REMARK  Name = ZINC38984619
REMARK  9 active torsions:
REMARK  status: ('A' for Active; 'I' for Inactive)
REMARK    1  A    between atoms: C_1  and  C_2
REMARK    2  A    between atoms: C_2  and  N_3
REMARK    3  A    between atoms: N_3  and  C_4
REMARK    4  A    between atoms: N_3  and  C_23
REMARK    5  A    between atoms: C_4  and  C_5
REMARK    6  A    between atoms: N_7  and  C_8
REMARK    7  A    between atoms: C_16  and  C_18
REMARK    8  A    between atoms: C_18  and  O_20
REMARK    9  A    between atoms: O_20  and  C_21
REMARK                            x       y       z     vdW  Elec       q    Type
REMARK                         _______ _______ _______ _____ _____    ______ ____
ROOT
ATOM      1  C   UNL     1       2.635  -2.125  -0.875  0.00  0.00    +0.234 C 
ATOM      2  O   UNL     1       1.696  -2.892  -0.908  0.00  0.00    -0.274 OA
ATOM      3  N   UNL     1       3.860  -2.574  -0.538  0.00  0.00    -0.285 N 
ATOM      4  H   UNL     1       4.625  -1.979  -0.588  0.00  0.00    +0.155 HD
ENDROOT
BRANCH   3   5
ATOM      5  C   UNL     1       4.025  -3.863  -0.127  0.00  0.00    +0.053 C 
ATOM      6  C   UNL     1       5.221  -4.515   0.120  0.00  0.00    +0.019 A 
ATOM      7  C   UNL     1       6.571  -4.098   0.035  0.00  0.00    +0.026 A 
ATOM      8  C   UNL     1       7.564  -4.969   0.343  0.00  0.00    +0.019 A 
ATOM      9  C   UNL     1       7.290  -6.280   0.745  0.00  0.00    +0.017 A 
ATOM     10  C   UNL     1       6.022  -6.747   0.848  0.00  0.00    +0.027 A 
ATOM     11  C   UNL     1       4.929  -5.895   0.543  0.00  0.00    +0.045 A 
ATOM     12  N   UNL     1       3.628  -6.104   0.564  0.00  0.00    -0.367 N 
ATOM     13  C   UNL     1       2.938  -4.875   0.160  0.00  0.00    +0.234 C 
ATOM     14 BR   UNL     1       9.362  -4.398   0.224  0.00  0.00    -0.050 Br
ATOM     15  H   UNL     1       3.196  -6.937   0.811  0.00  0.00    +0.161 HD
BRANCH  13  16
ATOM     16  C   UNL     1       2.052  -4.383   1.276  0.00  0.00    +0.335 C 
ATOM     17  O   UNL     1       2.318  -4.654   2.423  0.00  0.00    -0.248 OA
BRANCH  16  18
ATOM     18  O   UNL     1       0.968  -3.644   0.995  0.00  0.00    -0.466 OA
ATOM     19  C   UNL     1       0.173  -3.212   2.101  0.00  0.00    +0.280 C 
ENDBRANCH  16  18
ENDBRANCH  13  16
ENDBRANCH   3   5
BRANCH   1  20
ATOM     20  C   UNL     1       2.432  -0.671  -1.212  0.00  0.00    +0.201 C 
BRANCH  20  21
ATOM     21  N   UNL     1       1.023  -0.438  -1.542  0.00  0.00    -0.321 N 
BRANCH  21  22
ATOM     22  C   UNL     1       0.585  -0.565  -2.865  0.00  0.00    +0.034 A 
ATOM     23  C   UNL     1       1.483  -0.916  -3.864  0.00  0.00    +0.027 A 
ATOM     24  C   UNL     1       1.051  -1.041  -5.171  0.00  0.00    +0.051 A 
ATOM     25  C   UNL     1      -0.279  -0.817  -5.488  0.00  0.00    +0.166 A 
ATOM     26  C   UNL     1      -1.182  -0.465  -4.489  0.00  0.00    +0.168 A 
ATOM     27  C   UNL     1      -0.750  -0.344  -3.178  0.00  0.00    +0.072 A 
ATOM     28  O   UNL     1      -2.414  -0.301  -5.052  0.00  0.00    -0.453 OA
ATOM     29  C   UNL     1      -2.176  -0.156  -6.465  0.00  0.00    +0.466 C 
ATOM     30  O   UNL     1      -0.946  -0.874  -6.679  0.00  0.00    -0.453 OA
ENDBRANCH  21  22
BRANCH  21  32
ATOM     31  C   UNL     1       0.028   1.449  -0.348  0.00  0.00    +0.024 C 
ATOM     32  C   UNL     1       0.074  -0.074  -0.488  0.00  0.00    +0.102 C 
ENDBRANCH  21  32
ENDBRANCH  20  21
ENDBRANCH   1  20
TORSDOF 7
