REMARK  Name = ZINC10214982
REMARK  8 active torsions:
REMARK  status: ('A' for Active; 'I' for Inactive)
REMARK    1  A    between atoms: C_1  and  C_2
REMARK    2  A    between atoms: C_2  and  C_4
REMARK    3  A    between atoms: C_2  and  O_19
REMARK    4  A    between atoms: N_6  and  C_7
REMARK    5  A    between atoms: C_8  and  C_17
REMARK    6  A    between atoms: O_19  and  C_20
REMARK    7  A    between atoms: C_23  and  S_26
REMARK    8  A    between atoms: S_26  and  N_29
REMARK                            x       y       z     vdW  Elec       q    Type
REMARK                         _______ _______ _______ _____ _____    ______ ____
ROOT
ATOM      1  C   UNL     1      -3.649   5.375   4.840  0.00  0.00    +0.062 C 
ATOM      2  C   UNL     1      -2.716   4.288   5.378  0.00  0.00    +0.256 C 
ENDROOT
BRANCH   2   3
ATOM      3  C   UNL     1      -2.865   4.194   6.875  0.00  0.00    +0.258 C 
ATOM      4  O   UNL     1      -3.226   3.155   7.385  0.00  0.00    -0.271 OA
ATOM      5  N   UNL     1      -2.595   5.266   7.647  0.00  0.00    -0.276 N 
ATOM      6  H   UNL     1      -2.306   6.097   7.239  0.00  0.00    +0.155 HD
BRANCH   5   7
ATOM      7  C   UNL     1      -2.732   5.180   9.025  0.00  0.00    +0.090 A 
ATOM      8  C   UNL     1      -2.505   6.161   9.976  0.00  0.00    +0.084 A 
ATOM      9  C   UNL     1      -2.726   5.816  11.373  0.00  0.00    -0.018 A 
ATOM     10  C   UNL     1      -3.127   4.545  11.589  0.00  0.00    -0.004 A 
ATOM     11  S   UNL     1      -3.235   3.822   9.975  0.00  0.00    -0.077 S 
ATOM     12  C   UNL     1      -3.420   3.887  12.901  0.00  0.00    +0.043 C 
ATOM     13  C   UNL     1      -4.346   4.792  13.725  0.00  0.00    +0.005 C 
ATOM     14  C   UNL     1      -3.484   5.737  14.556  0.00  0.00    +0.001 C 
ATOM     15  C   UNL     1      -2.204   6.085  13.799  0.00  0.00    +0.005 C 
ATOM     16  C   UNL     1      -2.533   6.819  12.504  0.00  0.00    +0.037 C 
BRANCH   8  17
ATOM     17  C   UNL     1      -2.068   7.472   9.597  0.00  0.00    +0.102 C 
ATOM     18  N   UNL     1      -1.722   8.511   9.296  0.00  0.00    -0.191 NA
ENDBRANCH   8  17
ENDBRANCH   5   7
ENDBRANCH   2   3
BRANCH   2  19
ATOM     19  O   UNL     1      -3.057   3.032   4.786  0.00  0.00    -0.480 OA
BRANCH  19  20
ATOM     20  C   UNL     1      -2.512   2.754   3.573  0.00  0.00    +0.122 A 
ATOM     21  C   UNL     1      -1.758   3.714   2.913  0.00  0.00    +0.047 A 
ATOM     22  C   UNL     1      -1.205   3.429   1.680  0.00  0.00    +0.032 A 
ATOM     23  C   UNL     1      -1.402   2.188   1.103  0.00  0.00    +0.106 A 
ATOM     24  C   UNL     1      -2.158   1.232   1.756  0.00  0.00    +0.032 A 
ATOM     25  C   UNL     1      -2.708   1.510   2.991  0.00  0.00    +0.047 A 
BRANCH  23  26
ATOM     26  S   UNL     1      -0.695   1.827  -0.470  0.00  0.00    +0.061 S 
ATOM     27  O   UNL     1      -0.494   3.074  -1.121  0.00  0.00    -0.153 OA
ATOM     28  O   UNL     1      -1.480   0.788  -1.040  0.00  0.00    -0.153 OA
BRANCH  26  29
ATOM     29  N   UNL     1       0.808   1.189  -0.197  0.00  0.00    -0.172 NA
ATOM     30  C   UNL     1       1.996   2.054  -0.119  0.00  0.00    +0.137 C 
ATOM     31  C   UNL     1       2.761   1.703   1.167  0.00  0.00    +0.177 C 
ATOM     32  O   UNL     1       2.999   0.294   1.202  0.00  0.00    -0.377 OA
ATOM     33  C   UNL     1       1.811  -0.500   1.246  0.00  0.00    +0.177 C 
ATOM     34  C   UNL     1       0.997  -0.261  -0.030  0.00  0.00    +0.137 C 
ENDBRANCH  26  29
ENDBRANCH  23  26
ENDBRANCH  19  20
ENDBRANCH   2  19
TORSDOF 7
