REMARK  Name = ZINC00759270
REMARK  12 active torsions:
REMARK  status: ('A' for Active; 'I' for Inactive)
REMARK    1  A    between atoms: C_1  and  C_2
REMARK    2  A    between atoms: C_2  and  C_3
REMARK    3  A    between atoms: C_3  and  C_4
REMARK    4  A    between atoms: C_3  and  C_5
REMARK    5  A    between atoms: C_3  and  C_6
REMARK    6  A    between atoms: C_13  and  N_18
REMARK    7  A    between atoms: C_14  and  C_15
REMARK    8  A    between atoms: C_19  and  C_21
REMARK    9  A    between atoms: C_23  and  O_29
REMARK   10  A    between atoms: C_25  and  O_27
REMARK   11  A    between atoms: O_27  and  C_28
REMARK   12  A    between atoms: O_29  and  C_30
REMARK                            x       y       z     vdW  Elec       q    Type
REMARK                         _______ _______ _______ _____ _____    ______ ____
ROOT
ATOM      1  C   UNL     1       0.739  -2.027  -1.265  0.00  0.00    -0.000 C 
ATOM      2  C   UNL     1       1.455  -2.524  -2.524  0.00  0.00    +0.009 C 
ATOM      3  C   UNL     1       1.700  -4.031  -2.424  0.00  0.00    +0.037 C 
ATOM      4  C   UNL     1       0.381  -4.720  -2.095  0.00  0.00    -0.023 A 
ATOM      5  C   UNL     1      -0.659  -4.026  -1.585  0.00  0.00    -0.004 A 
ATOM      6  S   UNL     1      -1.944  -5.225  -1.372  0.00  0.00    -0.077 S 
ATOM      7  C   UNL     1      -1.113  -6.631  -1.951  0.00  0.00    +0.085 A 
ATOM      8  C   UNL     1       0.139  -6.139  -2.296  0.00  0.00    +0.068 A 
ATOM      9  C   UNL     1      -0.701  -2.562  -1.272  0.00  0.00    +0.046 C 
ENDROOT
BRANCH   8  10
ATOM     10  C   UNL     1       1.177  -7.018  -2.842  0.00  0.00    +0.244 C 
ATOM     11  O   UNL     1       1.955  -7.580  -2.094  0.00  0.00    -0.270 OA
ATOM     12  N   UNL     1       1.270  -7.203  -4.174  0.00  0.00    -0.325 N 
ATOM     13  H   UNL     1       0.651  -6.755  -4.771  0.00  0.00    +0.145 HD
ATOM     14  H   UNL     1       1.958  -7.785  -4.536  0.00  0.00    +0.145 HD
ENDBRANCH   8  10
BRANCH   7  15
ATOM     15  N   UNL     1      -1.583  -7.930  -2.048  0.00  0.00    -0.275 N 
ATOM     16  C   UNL     1      -2.841  -8.222  -1.661  0.00  0.00    +0.249 C 
ATOM     17  O   UNL     1      -3.562  -7.345  -1.227  0.00  0.00    -0.270 OA
ATOM     18  H   UNL     1      -1.008  -8.630  -2.394  0.00  0.00    +0.156 HD
BRANCH  16  19
ATOM     19  C   UNL     1      -3.343  -9.608  -1.764  0.00  0.00    +0.044 A 
ATOM     20  C   UNL     1      -2.518 -10.616  -2.267  0.00  0.00    +0.059 A 
ATOM     21  C   UNL     1      -2.992 -11.914  -2.357  0.00  0.00    +0.124 A 
ATOM     22  C   UNL     1      -4.286 -12.212  -1.958  0.00  0.00    +0.091 A 
ATOM     23  C   UNL     1      -5.111 -11.213  -1.462  0.00  0.00    +0.124 A 
ATOM     24  C   UNL     1      -4.645  -9.913  -1.363  0.00  0.00    +0.059 A 
BRANCH  23  25
ATOM     25  O   UNL     1      -6.379 -11.511  -1.072  0.00  0.00    -0.495 OA
ATOM     26  C   UNL     1      -6.794 -12.872  -1.201  0.00  0.00    +0.277 C 
ENDBRANCH  23  25
BRANCH  21  27
ATOM     27  O   UNL     1      -2.188 -12.897  -2.843  0.00  0.00    -0.495 OA
ATOM     28  C   UNL     1      -2.742 -14.212  -2.914  0.00  0.00    +0.277 C 
ENDBRANCH  21  27
ENDBRANCH  16  19
ENDBRANCH   7  15
BRANCH   1  29
ATOM     29  C   UNL     1       0.718  -0.497  -1.257  0.00  0.00    -0.032 C 
ATOM     30  C   UNL     1      -0.022   0.009  -2.496  0.00  0.00    +0.011 C 
ATOM     31  C   UNL     1       2.154   0.032  -1.268  0.00  0.00    +0.011 C 
BRANCH  29  33
ATOM     32  C   UNL     1      -0.019   1.526   0.010  0.00  0.00    +0.004 C 
ATOM     33  C   UNL     1       0.002  -0.004   0.002  0.00  0.00    +0.003 C 
ENDBRANCH  29  33
ENDBRANCH   1  29
TORSDOF 7
