REMARK  Name = ZINC15869583
REMARK  10 active torsions:
REMARK  status: ('A' for Active; 'I' for Inactive)
REMARK    1  A    between atoms: C_1  and  C_2
REMARK    2  A    between atoms: C_5  and  S_9
REMARK    3  A    between atoms: S_9  and  N_12
REMARK    4  A    between atoms: N_12  and  C_13
REMARK    5  A    between atoms: C_16  and  C_19
REMARK    6  A    between atoms: C_19  and  C_22
REMARK    7  A    between atoms: N_24  and  C_25
REMARK    8  A    between atoms: C_25  and  C_26
REMARK    9  A    between atoms: C_26  and  C_27
REMARK   10  A    between atoms: C_27  and  C_28
REMARK                            x       y       z     vdW  Elec       q    Type
REMARK                         _______ _______ _______ _____ _____    ______ ____
ROOT
ATOM      1  C   UNL     1       2.208  -3.744   2.375  0.00  0.00    +0.048 A 
ATOM      2  C   UNL     1       2.321  -2.541   1.690  0.00  0.00    +0.025 A 
ATOM      3  C   UNL     1       1.269  -2.084   0.921  0.00  0.00    +0.006 A 
ATOM      4  C   UNL     1       0.103  -2.822   0.834  0.00  0.00    -0.032 A 
ATOM      5  C   UNL     1      -0.015  -4.018   1.519  0.00  0.00    +0.006 A 
ATOM      6  C   UNL     1       1.035  -4.483   2.285  0.00  0.00    +0.025 A 
ENDROOT
BRANCH   4   7
ATOM      7  C   UNL     1      -1.044  -2.321  -0.006  0.00  0.00    +0.072 C 
ATOM      8  C   UNL     1      -1.452  -3.159  -1.219  0.00  0.00    +0.022 C 
ATOM      9  C   UNL     1      -2.345  -3.124   0.023  0.00  0.00    +0.022 C 
BRANCH   7  10
ATOM     10  C   UNL     1      -1.153  -0.823  -0.127  0.00  0.00    +0.224 C 
ATOM     11  O   UNL     1      -0.729  -0.261  -1.115  0.00  0.00    -0.275 OA
ATOM     12  N   UNL     1      -1.722  -0.106   0.863  0.00  0.00    -0.315 N 
ATOM     13  H   UNL     1      -2.126  -0.560   1.619  0.00  0.00    +0.149 HD
BRANCH  12  14
ATOM     14  C   UNL     1      -1.731   1.357   0.796  0.00  0.00    +0.104 C 
BRANCH  14  15
ATOM     15  C   UNL     1      -2.432   1.920   2.034  0.00  0.00    +0.023 C 
BRANCH  15  16
ATOM     16  C   UNL     1      -2.441   3.449   1.964  0.00  0.00    +0.036 C 
BRANCH  16  17
ATOM     17  C   UNL     1      -3.132   4.003   3.183  0.00  0.00    -0.047 A 
ATOM     18  C   UNL     1      -4.496   4.230   3.162  0.00  0.00    +0.003 A 
ATOM     19  C   UNL     1      -5.130   4.734   4.282  0.00  0.00    +0.000 A 
ATOM     20  C   UNL     1      -4.400   5.020   5.420  0.00  0.00    +0.000 A 
ATOM     21  C   UNL     1      -3.035   4.798   5.439  0.00  0.00    +0.000 A 
ATOM     22  C   UNL     1      -2.402   4.290   4.321  0.00  0.00    +0.003 A 
ENDBRANCH  16  17
ENDBRANCH  15  16
ENDBRANCH  14  15
ENDBRANCH  12  14
ENDBRANCH   7  10
ENDBRANCH   4   7
BRANCH   1  23
ATOM     23  N   UNL     1       3.270  -4.209   3.153  0.00  0.00    -0.216 N 
ATOM     24  H   UNL     1       4.173  -4.196   2.799  0.00  0.00    +0.174 HD
BRANCH  23  25
ATOM     25  S   UNL     1       2.989  -4.783   4.681  0.00  0.00    +0.072 S 
ATOM     26  O   UNL     1       1.962  -5.759   4.565  0.00  0.00    -0.150 OA
ATOM     27  O   UNL     1       4.259  -5.078   5.245  0.00  0.00    -0.150 OA
BRANCH  25  32
ATOM     28  C   UNL     1       0.689  -0.229   7.903  0.00  0.00    +0.045 C 
ATOM     29  C   UNL     1       1.263  -1.366   7.099  0.00  0.00    -0.032 A 
ATOM     30  C   UNL     1       2.632  -1.499   6.968  0.00  0.00    +0.007 A 
ATOM     31  C   UNL     1       3.159  -2.545   6.234  0.00  0.00    +0.029 A 
ATOM     32  C   UNL     1       2.316  -3.454   5.621  0.00  0.00    +0.110 A 
ATOM     33  C   UNL     1       0.947  -3.322   5.751  0.00  0.00    +0.049 A 
ATOM     34  C   UNL     1       0.419  -2.278   6.490  0.00  0.00    +0.046 A 
ATOM     35 CL   UNL     1      -1.302  -2.112   6.652  0.00  0.00    -0.083 Cl
ENDBRANCH  25  32
ENDBRANCH  23  25
ENDBRANCH   1  23
TORSDOF 9
