REMARK  Name = ZINC59513727
REMARK  7 active torsions:
REMARK  status: ('A' for Active; 'I' for Inactive)
REMARK    1  A    between atoms: C_1  and  C_2
REMARK    2  A    between atoms: C_3  and  N_11
REMARK    3  A    between atoms: C_7  and  N_8
REMARK    4  A    between atoms: C_12  and  C_13
REMARK    5  A    between atoms: C_16  and  O_21
REMARK    6  A    between atoms: C_17  and  O_19
REMARK    7  A    between atoms: O_19  and  C_20
REMARK                            x       y       z     vdW  Elec       q    Type
REMARK                         _______ _______ _______ _____ _____    ______ ____
ROOT
ATOM      1  N   UNL     1      -0.344   0.492  -1.966  0.00  0.00    -0.255 NA
ATOM      2  C   UNL     1      -0.497   0.129  -3.208  0.00  0.00    +0.119 C 
ENDROOT
BRANCH   1   5
ATOM      3  C   UNL     1       1.800   0.877  -0.139  0.00  0.00    +0.048 C 
ATOM      4  C   UNL     1       0.880  -0.315  -0.070  0.00  0.00    +0.005 A 
ATOM      5  C   UNL     1      -0.158  -0.453  -0.994  0.00  0.00    +0.069 A 
ATOM      6  C   UNL     1      -1.005  -1.561  -0.922  0.00  0.00    +0.028 A 
ATOM      7  C   UNL     1      -0.812  -2.510   0.060  0.00  0.00    +0.004 A 
ATOM      8  C   UNL     1       0.218  -2.367   0.973  0.00  0.00    +0.033 A 
ATOM      9  C   UNL     1       1.065  -1.274   0.903  0.00  0.00    +0.131 A 
BRANCH   9  10
ATOM     10  N   UNL     1       2.168  -1.133   1.880  0.00  0.00    +0.057 N 
ATOM     11  O   UNL     1       3.233  -0.679   1.528  0.00  0.00    -0.126 OA
ATOM     12  O   UNL     1       2.005  -1.470   3.030  0.00  0.00    -0.126 OA
ENDBRANCH   9  10
ENDBRANCH   1   5
BRANCH   2  13
ATOM     13  C   UNL     1      -0.804   1.135  -4.236  0.00  0.00    -0.003 A 
ATOM     14  C   UNL     1      -0.924   2.484  -3.884  0.00  0.00    +0.013 A 
ATOM     15  C   UNL     1      -1.211   3.425  -4.849  0.00  0.00    +0.050 A 
ATOM     16  C   UNL     1      -1.381   3.038  -6.171  0.00  0.00    +0.158 A 
ATOM     17  C   UNL     1      -1.262   1.696  -6.530  0.00  0.00    +0.162 A 
ATOM     18  C   UNL     1      -0.969   0.748  -5.570  0.00  0.00    +0.058 A 
BRANCH  17  19
ATOM     19  O   UNL     1      -1.430   1.322  -7.827  0.00  0.00    -0.491 OA
ATOM     20  C   UNL     1      -1.294  -0.069  -8.123  0.00  0.00    +0.277 C 
ENDBRANCH  17  19
BRANCH  16  21
ATOM     21  O   UNL     1      -1.665   3.970  -7.118  0.00  0.00    -0.503 OA
ATOM     22  H   UNL     1      -0.883   4.355  -7.537  0.00  0.00    +0.292 HD
ENDBRANCH  16  21
ENDBRANCH   2  13
TORSDOF 5
