REMARK  Name = ZINC49503727
REMARK  7 active torsions:
REMARK  status: ('A' for Active; 'I' for Inactive)
REMARK    1  A    between atoms: C_1  and  C_2
REMARK    2  A    between atoms: C_4  and  C_8
REMARK    3  A    between atoms: C_5  and  C_7
REMARK    4  A    between atoms: C_8  and  C_10
REMARK    5  A    between atoms: C_8  and  N_11
REMARK    6  A    between atoms: C_12  and  C_14
REMARK    7  A    between atoms: C_16  and  N_20
REMARK                            x       y       z     vdW  Elec       q    Type
REMARK                         _______ _______ _______ _____ _____    ______ ____
ROOT
ATOM      1  N   UNL     1      -3.103  -2.609   0.585  0.00  0.00    -0.304 N 
ATOM      2  C   UNL     1      -4.000  -3.372   1.240  0.00  0.00    +0.261 C 
ATOM      3  O   UNL     1      -3.822  -4.572   1.339  0.00  0.00    -0.269 OA
ATOM      4  H   UNL     1      -3.245  -1.653   0.506  0.00  0.00    +0.150 HD
ENDROOT
BRANCH   2   5
ATOM      5  C   UNL     1      -5.191  -2.756   1.834  0.00  0.00    +0.104 A 
ATOM      6  C   UNL     1      -6.184  -3.412   2.533  0.00  0.00    +0.055 A 
ATOM      7  C   UNL     1      -7.124  -2.446   2.918  0.00  0.00    +0.043 A 
ATOM      8  C   UNL     1      -6.696  -1.242   2.455  0.00  0.00    +0.106 A 
ATOM      9  N   UNL     1      -5.518  -1.420   1.799  0.00  0.00    -0.355 N 
ATOM     10  H   UNL     1      -4.996  -0.722   1.375  0.00  0.00    +0.166 HD
BRANCH   7  11
ATOM     11  N   UNL     1      -8.301  -2.681   3.652  0.00  0.00    -0.357 N 
ATOM     12  H   UNL     1      -8.522  -3.581   3.940  0.00  0.00    +0.142 HD
ATOM     13  H   UNL     1      -8.892  -1.943   3.871  0.00  0.00    +0.142 HD
ENDBRANCH   7  11
ENDBRANCH   2   5
BRANCH   1  14
ATOM     14  C   UNL     1      -1.912  -3.224  -0.008  0.00  0.00    +0.101 C 
ATOM     15  C   UNL     1      -2.240  -3.712  -1.420  0.00  0.00    +0.033 C 
BRANCH  14  19
ATOM     16  C   UNL     1      -0.117   1.532  -0.303  0.00  0.00    +0.051 C 
ATOM     17  C   UNL     1      -0.066   0.029  -0.210  0.00  0.00    -0.013 A 
ATOM     18  C   UNL     1      -1.089  -0.859  -0.154  0.00  0.00    +0.016 A 
ATOM     19  C   UNL     1      -0.801  -2.208  -0.072  0.00  0.00    -0.017 A 
ATOM     20  C   UNL     1       0.495  -2.604  -0.049  0.00  0.00    -0.008 A 
ATOM     21  S   UNL     1       1.359  -1.046  -0.153  0.00  0.00    -0.098 S 
ATOM     22  C   UNL     1       1.060  -3.999   0.036  0.00  0.00    +0.052 C 
ENDBRANCH  14  19
ENDBRANCH   1  14
TORSDOF 4
