REMARK  Name = ZINC10768182
REMARK  4 active torsions:
REMARK  status: ('A' for Active; 'I' for Inactive)
REMARK    1  A    between atoms: C_6  and  C_7
REMARK    2  A    between atoms: C_13  and  C_15
REMARK    3  A    between atoms: N_20  and  S_22
REMARK    4  A    between atoms: S_22  and  C_25
REMARK                            x       y       z     vdW  Elec       q    Type
REMARK                         _______ _______ _______ _____ _____    ______ ____
ROOT
ATOM      1  C   UNL     1       2.185   0.735  -0.015  0.00  0.00    +0.080 A 
ATOM      2  C   UNL     1       1.749   2.030  -0.004  0.00  0.00    +0.076 A 
ATOM      3  S   UNL     1      -0.022   1.783   0.012  0.00  0.00    -0.060 S 
ATOM      4  C   UNL     1       0.002  -0.004   0.002  0.00  0.00    +0.165 A 
ATOM      5  N   UNL     1       1.299  -0.249  -0.012  0.00  0.00    -0.225 NA
ATOM      6  N   UNL     1      -1.062  -0.898   0.007  0.00  0.00    -0.264 N 
ATOM      7  C   UNL     1      -2.329  -0.438   0.021  0.00  0.00    +0.223 C 
ATOM      8  O   UNL     1      -2.540   0.756   0.030  0.00  0.00    -0.275 OA
ATOM      9  H   UNL     1      -0.893  -1.853  -0.000  0.00  0.00    +0.157 HD
ENDROOT
BRANCH   1  15
ATOM     10  C   UNL     1       4.566   1.469   0.070  0.00  0.00    +0.014 A 
ATOM     11  C   UNL     1       5.917   1.189   0.055  0.00  0.00    +0.050 A 
ATOM     12  C   UNL     1       6.356  -0.121  -0.061  0.00  0.00    +0.166 A 
ATOM     13  C   UNL     1       5.432  -1.160  -0.162  0.00  0.00    +0.167 A 
ATOM     14  C   UNL     1       4.077  -0.884  -0.141  0.00  0.00    +0.059 A 
ATOM     15  C   UNL     1       3.638   0.435  -0.031  0.00  0.00    +0.005 A 
ATOM     16  O   UNL     1       6.112  -2.340  -0.264  0.00  0.00    -0.453 OA
ATOM     17  C   UNL     1       7.449  -2.053   0.187  0.00  0.00    +0.466 C 
ATOM     18  O   UNL     1       7.614  -0.651  -0.100  0.00  0.00    -0.453 OA
ENDBRANCH   1  15
BRANCH   7  19
ATOM     19  C   UNL     1      -3.482  -1.407   0.026  0.00  0.00    +0.091 C 
ATOM     20  C   UNL     1      -3.421  -2.281  -1.229  0.00  0.00    +0.015 C 
ATOM     21  C   UNL     1      -4.574  -3.288  -1.208  0.00  0.00    +0.018 C 
ATOM     22  C   UNL     1      -5.906  -2.532  -1.210  0.00  0.00    +0.109 C 
ATOM     23  N   UNL     1      -5.913  -1.584  -0.088  0.00  0.00    -0.175 NA
ATOM     24  C   UNL     1      -4.803  -0.630   0.039  0.00  0.00    +0.122 C 
BRANCH  23  25
ATOM     25  S   UNL     1      -7.150  -1.589   1.014  0.00  0.00    +0.067 S 
ATOM     26  O   UNL     1      -7.186  -0.291   1.590  0.00  0.00    -0.152 OA
ATOM     27  O   UNL     1      -8.273  -2.164   0.360  0.00  0.00    -0.152 OA
BRANCH  25  28
ATOM     28  C   UNL     1      -6.694  -2.700   2.303  0.00  0.00    +0.144 A 
ATOM     29  C   UNL     1      -6.009  -2.447   3.445  0.00  0.00    +0.038 A 
ATOM     30  C   UNL     1      -5.767  -3.486   4.325  0.00  0.00    +0.030 A 
ATOM     31  C   UNL     1      -6.212  -4.729   4.014  0.00  0.00    +0.080 A 
ATOM     32  S   UNL     1      -7.008  -4.452   2.440  0.00  0.00    -0.057 S 
ATOM     33 CL   UNL     1      -6.051  -6.205   4.913  0.00  0.00    -0.076 Cl
ENDBRANCH  25  28
ENDBRANCH  23  25
ENDBRANCH   7  19
TORSDOF 4
