REMARK  Name = ZINC05164206
REMARK  2 active torsions:
REMARK  status: ('A' for Active; 'I' for Inactive)
REMARK    1  A    between atoms: N_11  and  N_12
REMARK    2  A    between atoms: C_13  and  C_15
REMARK                            x       y       z     vdW  Elec       q    Type
REMARK                         _______ _______ _______ _____ _____    ______ ____
ROOT
ATOM      1  N   UNL     1       2.217  -2.904   0.313  0.00  0.00    -0.204 N 
ATOM      2  C   UNL     1       1.197  -2.089  -0.024  0.00  0.00    +0.276 C 
ATOM      3  O   UNL     1       0.248  -2.528  -0.638  0.00  0.00    -0.270 OA
ATOM      4  H   UNL     1       2.976  -2.553   0.805  0.00  0.00    +0.177 HD
ENDROOT
BRANCH   1  15
ATOM      5  C   UNL     1       3.117  -9.148  -0.786  0.00  0.00    +0.000 A 
ATOM      6  C   UNL     1       1.968  -8.389  -0.925  0.00  0.00    +0.001 A 
ATOM      7  C   UNL     1       1.979  -7.054  -0.578  0.00  0.00    +0.010 A 
ATOM      8  C   UNL     1       3.151  -6.474  -0.088  0.00  0.00    +0.001 A 
ATOM      9  C   UNL     1       4.306  -7.241   0.055  0.00  0.00    -0.038 A 
ATOM     10  C   UNL     1       4.279  -8.579  -0.299  0.00  0.00    +0.004 A 
ATOM     11  C   UNL     1       5.582  -6.653   0.593  0.00  0.00    +0.036 C 
ATOM     12  C   UNL     1       5.614  -5.138   0.409  0.00  0.00    +0.011 C 
ATOM     13  C   UNL     1       4.363  -4.520   1.040  0.00  0.00    +0.058 C 
ATOM     14  C   UNL     1       3.162  -5.041   0.278  0.00  0.00    +0.067 C 
ATOM     15  N   UNL     1       2.180  -4.257  -0.046  0.00  0.00    -0.184 NA
ENDBRANCH   1  15
BRANCH   2  16
ATOM     16  C   UNL     1       1.236  -0.633   0.363  0.00  0.00    +0.297 C 
ATOM     17  C   UNL     1       2.373   0.072  -0.388  0.00  0.00    +0.283 C 
ATOM     18  O   UNL     1       2.373   1.453  -0.008  0.00  0.00    -0.484 OA
ATOM     19  C   UNL     1       1.168   2.084   0.002  0.00  0.00    +0.162 A 
ATOM     20  C   UNL     1       1.126   3.471   0.006  0.00  0.00    +0.049 A 
ATOM     21  C   UNL     1      -0.091   4.126   0.019  0.00  0.00    +0.004 A 
ATOM     22  C   UNL     1      -1.269   3.403   0.029  0.00  0.00    +0.004 A 
ATOM     23  C   UNL     1      -1.234   2.021   0.019  0.00  0.00    +0.049 A 
ATOM     24  C   UNL     1      -0.016   1.357   0.009  0.00  0.00    +0.163 A 
ATOM     25  O   UNL     1       0.002  -0.004   0.002  0.00  0.00    -0.472 OA
ENDBRANCH   2  16
TORSDOF 2
