REMARK  Name = ZINC09647494
REMARK  13 active torsions:
REMARK  status: ('A' for Active; 'I' for Inactive)
REMARK    1  A    between atoms: C_1  and  C_2
REMARK    2  A    between atoms: C_3  and  C_35
REMARK    3  A    between atoms: C_7  and  N_18
REMARK    4  A    between atoms: C_9  and  C_11
REMARK    5  A    between atoms: C_11  and  N_65
REMARK    6  A    between atoms: C_14  and  C_17
REMARK    7  A    between atoms: N_18  and  C_19
REMARK    8  A    between atoms: C_19  and  C_21
REMARK    9  A    between atoms: C_19  and  C_23
REMARK   10  A    between atoms: C_21  and  O_22
REMARK   11  A    between atoms: C_23  and  C_25
REMARK   12  A    between atoms: C_23  and  O_34
REMARK   13  A    between atoms: C_28  and  N_31
REMARK                            x       y       z     vdW  Elec       q    Type
REMARK                         _______ _______ _______ _____ _____    ______ ____
ROOT
ATOM      1  C   UNK A   0      -5.291   3.983   0.333  0.00  0.00    +0.045 C 
ATOM      2  C   UNK A   0      -6.111   3.825  -0.922  0.00  0.00    -0.028 A 
ATOM      3  C   UNK A   0      -7.404   4.181  -0.937  0.00  0.00    -0.008 A 
ATOM      4  S   UNK A   0      -7.917   3.811  -2.604  0.00  0.00    -0.074 S 
ATOM      5  C   UNK A   0      -6.381   3.189  -3.235  0.00  0.00    +0.114 A 
ATOM      6  C   UNK A   0      -5.510   3.281  -2.127  0.00  0.00    +0.051 A 
ATOM      7  C   UNK A   0      -4.178   2.844  -2.362  0.00  0.00    +0.131 A 
ATOM      8  N   UNK A   0      -3.851   2.385  -3.559  0.00  0.00    -0.219 NA
ATOM      9  C   UNK A   0      -4.722   2.322  -4.550  0.00  0.00    +0.116 A 
ATOM     10  N   UNK A   0      -5.970   2.718  -4.395  0.00  0.00    -0.227 NA
ATOM     11  C   UNK A   0      -8.226   4.756   0.187  0.00  0.00    +0.052 C 
ENDROOT
BRANCH   7  12
ATOM     12  N   UNK A   1      -3.236   2.893  -1.350  0.00  0.00    -0.321 N 
ATOM     13  H   UNK A   1      -3.502   3.141  -0.451  0.00  0.00    +0.148 HD
BRANCH  12  14
ATOM     14  C   UNK A   1      -1.835   2.572  -1.636  0.00  0.00    +0.130 C 
BRANCH  14  15
ATOM     15  C   UNK A   1      -1.123   3.820  -2.161  0.00  0.00    +0.181 C 
BRANCH  15  16
ATOM     16  O   UNK A   1      -1.116   4.827  -1.147  0.00  0.00    -0.393 OA
ATOM     17  H   UNK A   1      -0.679   5.648  -1.410  0.00  0.00    +0.209 HD
ENDBRANCH  15  16
ENDBRANCH  14  15
BRANCH  14  18
ATOM     18  C   UNK A   1      -1.150   2.094  -0.355  0.00  0.00    +0.167 C 
BRANCH  18  19
ATOM     19  C   UNK A   1      -1.889   0.901   0.195  0.00  0.00    -0.017 A 
ATOM     20  C   UNK A   1      -1.605  -0.366  -0.279  0.00  0.00    +0.008 A 
ATOM     21  C   UNK A   1      -2.288  -1.460   0.221  0.00  0.00    +0.033 A 
ATOM     22  C   UNK A   1      -3.253  -1.286   1.195  0.00  0.00    +0.126 A 
ATOM     23  C   UNK A   1      -3.536  -0.018   1.669  0.00  0.00    +0.033 A 
ATOM     24  C   UNK A   1      -2.854   1.075   1.169  0.00  0.00    +0.008 A 
BRANCH  22  25
ATOM     25  N   UNK A   1      -3.984  -2.456   1.730  0.00  0.00    +0.056 N 
ATOM     26  O   UNK A   1      -4.835  -2.303   2.588  0.00  0.00    -0.126 OA
ATOM     27  O   UNK A   1      -3.735  -3.573   1.313  0.00  0.00    -0.126 OA
ENDBRANCH  22  25
ENDBRANCH  18  19
BRANCH  18  28
ATOM     28  O   UNK A   1       0.200   1.725  -0.646  0.00  0.00    -0.385 OA
ATOM     29  H   UNK A   1       0.286   1.076  -1.358  0.00  0.00    +0.210 HD
ENDBRANCH  18  28
ENDBRANCH  14  18
ENDBRANCH  12  14
ENDBRANCH   7  12
BRANCH   9  30
ATOM     30  C   UNK A   0      -4.279   1.788  -5.888  0.00  0.00    -0.001 C 
BRANCH  30  37
ATOM     31  C   UNK A   0      -5.818  -0.018  -5.410  0.00  0.00    -0.078 C 
ATOM     32  C   UNK A   0      -5.949  -1.541  -5.331  0.00  0.00    -0.016 C 
ATOM     33  C   UNK A   0      -5.751  -2.138  -6.728  0.00  0.00    -0.018 C 
ATOM     34  C   UNK A   0      -4.381  -1.716  -7.266  0.00  0.00    -0.016 C 
ATOM     35  C   UNK A   0      -4.296  -0.188  -7.288  0.00  0.00    -0.078 C 
ATOM     36  C   UNK A   0      -5.820  -3.664  -6.646  0.00  0.00    +0.007 C 
ATOM     37  N   UNK A   0      -4.470   0.323  -5.911  0.00  0.00    +0.384 N 
ATOM     38  H   UNK A   0      -3.768  -0.115  -5.303  0.00  0.00    -0.081 HD
ENDBRANCH  30  37
ENDBRANCH   9  30
TORSDOF 10
