REMARK  Name = ZINC02492404
REMARK  10 active torsions:
REMARK  status: ('A' for Active; 'I' for Inactive)
REMARK    1  A    between atoms: C_1  and  C_2
REMARK    2  A    between atoms: C_2  and  C_3
REMARK    3  A    between atoms: C_2  and  O_4
REMARK    4  A    between atoms: O_4  and  C_5
REMARK    5  A    between atoms: C_5  and  C_7
REMARK    6  A    between atoms: C_7  and  O_8
REMARK    7  A    between atoms: O_8  and  C_9
REMARK    8  A    between atoms: C_16  and  C_29
REMARK    9  A    between atoms: C_22  and  C_27
REMARK   10  A    between atoms: C_22  and  C_28
REMARK                            x       y       z     vdW  Elec       q    Type
REMARK                         _______ _______ _______ _____ _____    ______ ____
ROOT
ATOM      1  C   UNL     1      -0.222   6.631   3.757  0.00  0.00    +0.143 A 
ATOM      2  C   UNL     1       0.355   5.552   3.109  0.00  0.00    +0.093 A 
ATOM      3  C   UNL     1       0.252   5.430   1.728  0.00  0.00    +0.131 A 
ATOM      4  C   UNL     1      -0.433   6.389   1.002  0.00  0.00    +0.004 A 
ATOM      5  C   UNL     1      -1.008   7.468   1.653  0.00  0.00    +0.031 A 
ATOM      6  C   UNL     1      -0.905   7.593   3.024  0.00  0.00    +0.083 A 
ATOM      7 CL   UNL     1      -1.627   8.949   3.831  0.00  0.00    -0.080 Cl
ATOM      8  C   UNL     1      -0.573   6.289  -0.496  0.00  0.00    +0.058 C 
ATOM      9  C   UNL     1       0.470   5.314  -1.049  0.00  0.00    +0.081 C 
ATOM     10  C   UNL     1       0.434   4.038  -0.202  0.00  0.00    +0.182 C 
ATOM     11  O   UNL     1       0.840   4.362   1.127  0.00  0.00    -0.468 OA
ATOM     12  C   UNL     1       1.391   3.002  -0.796  0.00  0.00    +0.094 C 
ATOM     13  C   UNL     1       1.256   1.699  -0.001  0.00  0.00    +0.036 C 
ATOM     14  N   UNL     1      -0.147   1.280   0.002  0.00  0.00    -0.294 N 
ATOM     15  C   UNL     1      -1.143   2.173  -0.089  0.00  0.00    +0.303 C 
ATOM     16  O   UNL     1      -2.291   1.772  -0.075  0.00  0.00    -0.253 OA
ATOM     17  N   UNL     1      -0.924   3.494  -0.188  0.00  0.00    -0.262 N 
ATOM     18  C   UNL     1       1.723   1.928   1.438  0.00  0.00    +0.031 C 
ATOM     19  C   UNL     1       2.113   0.611  -0.650  0.00  0.00    +0.031 C 
ATOM     20  H   UNL     1      -0.360   0.336   0.066  0.00  0.00    +0.151 HD
ATOM     21  H   UNL     1      -1.679   4.098  -0.256  0.00  0.00    +0.154 HD
ENDROOT
BRANCH   8  22
ATOM     22  C   UNL     1      -0.363   7.649  -1.111  0.00  0.00    -0.040 A 
ATOM     23  C   UNL     1       0.837   8.311  -0.929  0.00  0.00    +0.004 A 
ATOM     24  C   UNL     1       1.031   9.557  -1.496  0.00  0.00    +0.000 A 
ATOM     25  C   UNL     1       0.022  10.144  -2.236  0.00  0.00    +0.000 A 
ATOM     26  C   UNL     1      -1.179   9.484  -2.414  0.00  0.00    +0.000 A 
ATOM     27  C   UNL     1      -1.372   8.237  -1.850  0.00  0.00    +0.004 A 
ENDBRANCH   8  22
BRANCH   1  28
ATOM     28  O   UNL     1      -0.120   6.749   5.107  0.00  0.00    -0.479 OA
BRANCH  28  29
ATOM     29  C   UNL     1       0.598   5.723   5.796  0.00  0.00    +0.349 C 
BRANCH  29  30
ATOM     30  C   UNL     1       0.606   6.020   7.273  0.00  0.00    +0.345 C 
ATOM     31  O   UNL     1       0.055   7.010   7.693  0.00  0.00    -0.247 OA
BRANCH  30  32
ATOM     32  O   UNL     1       1.226   5.186   8.122  0.00  0.00    -0.460 OA
BRANCH  32  34
ATOM     33  C   UNL     1      -0.040   4.909  10.184  0.00  0.00    +0.052 C 
ATOM     34  C   UNL     1       1.194   5.535   9.531  0.00  0.00    +0.170 C 
ATOM     35  C   UNL     1       2.457   5.008  10.216  0.00  0.00    +0.052 C 
ENDBRANCH  32  34
ENDBRANCH  30  32
ENDBRANCH  29  30
ENDBRANCH  28  29
ENDBRANCH   1  28
TORSDOF 6
