REMARK  Name = ZINC01867674
REMARK  10 active torsions:
REMARK  status: ('A' for Active; 'I' for Inactive)
REMARK    1  A    between atoms: C_1  and  C_2
REMARK    2  A    between atoms: C_2  and  C_3
REMARK    3  A    between atoms: C_2  and  C_4
REMARK    4  A    between atoms: N_14  and  C_29
REMARK    5  A    between atoms: C_17  and  S_20
REMARK    6  A    between atoms: S_20  and  C_21
REMARK    7  A    between atoms: C_21  and  C_22
REMARK    8  A    between atoms: C_22  and  C_23
REMARK    9  A    between atoms: C_32  and  O_35
REMARK   10  A    between atoms: O_35  and  C_36
REMARK                            x       y       z     vdW  Elec       q    Type
REMARK                         _______ _______ _______ _____ _____    ______ ____
ROOT
ATOM      1  C   UNL     1       2.209  -1.208   0.018  0.00  0.00    +0.126 C 
ATOM      2  C   UNL     1       1.998  -2.687   0.363  0.00  0.00    +0.068 C 
ATOM      3  C   UNL     1       2.469  -2.905   1.794  0.00  0.00    -0.018 A 
ATOM      4  C   UNL     1       3.270  -1.996   2.390  0.00  0.00    +0.021 A 
ATOM      5  S   UNL     1       3.557  -2.648   4.007  0.00  0.00    -0.072 S 
ATOM      6  C   UNL     1       2.660  -4.056   3.903  0.00  0.00    +0.102 A 
ATOM      7  C   UNL     1       2.120  -4.057   2.621  0.00  0.00    +0.075 A 
ATOM      8  C   UNL     1       1.269  -5.215   2.265  0.00  0.00    +0.268 A 
ATOM      9  O   UNL     1       0.764  -5.284   1.159  0.00  0.00    -0.266 OA
ATOM     10  N   UNL     1       1.057  -6.189   3.165  0.00  0.00    -0.245 N 
ATOM     11  C   UNL     1       1.621  -6.136   4.430  0.00  0.00    +0.245 A 
ATOM     12  N   UNL     1       2.414  -5.080   4.793  0.00  0.00    -0.249 N 
ATOM     13  C   UNL     1       2.828  -5.291   6.082  0.00  0.00    +0.198 A 
ATOM     14  N   UNL     1       2.313  -6.424   6.495  0.00  0.00    -0.120 NA
ATOM     15  N   UNL     1       1.549  -6.959   5.450  0.00  0.00    -0.109 NA
ATOM     16  C   UNL     1       3.777  -0.731   1.772  0.00  0.00    +0.203 C 
ATOM     17  O   UNL     1       3.541  -0.811   0.357  0.00  0.00    -0.371 OA
ENDROOT
BRANCH  10  18
ATOM     18  C   UNL     1       0.249  -7.280   2.818  0.00  0.00    +0.053 A 
ATOM     19  C   UNL     1      -1.119  -7.233   3.050  0.00  0.00    +0.030 A 
ATOM     20  C   UNL     1      -1.915  -8.309   2.708  0.00  0.00    +0.047 A 
ATOM     21  C   UNL     1      -1.347  -9.436   2.133  0.00  0.00    +0.120 A 
ATOM     22  C   UNL     1       0.020  -9.484   1.901  0.00  0.00    +0.047 A 
ATOM     23  C   UNL     1       0.816  -8.407   2.237  0.00  0.00    +0.030 A 
BRANCH  21  24
ATOM     24  O   UNL     1      -2.131 -10.495   1.797  0.00  0.00    -0.495 OA
ATOM     25  C   UNL     1      -1.480 -11.623   1.208  0.00  0.00    +0.277 C 
ENDBRANCH  21  24
ENDBRANCH  10  18
BRANCH   1  27
ATOM     26  C   UNL     1       2.187   0.477  -1.827  0.00  0.00    +0.010 C 
ATOM     27  C   UNL     1       1.984  -1.000  -1.481  0.00  0.00    +0.012 C 
ATOM     28  C   UNL     1       2.981  -1.851  -2.270  0.00  0.00    +0.010 C 
ENDBRANCH   1  27
BRANCH  13  29
ATOM     29  S   UNL     1       3.870  -4.225   7.022  0.00  0.00    -0.085 S 
BRANCH  29  30
ATOM     30  C   UNL     1       4.031  -5.066   8.621  0.00  0.00    +0.082 C 
BRANCH  30  31
ATOM     31  C   UNL     1       4.923  -4.237   9.546  0.00  0.00    +0.046 C 
BRANCH  31  32
ATOM     32  C   UNL     1       5.057  -4.936  10.875  0.00  0.00    -0.047 A 
ATOM     33  C   UNL     1       4.152  -4.676  11.887  0.00  0.00    +0.003 A 
ATOM     34  C   UNL     1       4.274  -5.317  13.105  0.00  0.00    +0.000 A 
ATOM     35  C   UNL     1       5.302  -6.219  13.312  0.00  0.00    +0.000 A 
ATOM     36  C   UNL     1       6.207  -6.479  12.299  0.00  0.00    +0.000 A 
ATOM     37  C   UNL     1       6.081  -5.841  11.079  0.00  0.00    +0.003 A 
ENDBRANCH  31  32
ENDBRANCH  30  31
ENDBRANCH  29  30
ENDBRANCH  13  29
TORSDOF 7
