REMARK  Name = ZINC31829593
REMARK  7 active torsions:
REMARK  status: ('A' for Active; 'I' for Inactive)
REMARK    1  A    between atoms: C_1  and  C_2
REMARK    2  A    between atoms: N_13  and  C_16
REMARK    3  A    between atoms: C_16  and  C_17
REMARK    4  A    between atoms: N_19  and  N_20
REMARK    5  A    between atoms: C_21  and  C_22
REMARK    6  A    between atoms: C_26  and  O_28
REMARK    7  A    between atoms: O_28  and  C_29
REMARK                            x       y       z     vdW  Elec       q    Type
REMARK                         _______ _______ _______ _____ _____    ______ ____
ROOT
ATOM      1  C   UNL     1     -10.065   9.074  -6.731  0.00  0.00    +0.008 C 
ATOM      2  C   UNL     1      -9.161   8.783  -5.531  0.00  0.00    -0.009 C 
ATOM      3  C   UNL     1      -8.721   7.317  -5.559  0.00  0.00    +0.008 C 
ATOM      4  C   UNL     1      -7.627   7.082  -4.517  0.00  0.00    +0.037 C 
ATOM      5  C   UNL     1      -8.115   7.598  -3.166  0.00  0.00    -0.023 A 
ATOM      6  C   UNL     1      -9.146   8.468  -3.091  0.00  0.00    -0.004 A 
ATOM      7  S   UNL     1      -9.357   8.781  -1.359  0.00  0.00    -0.071 S 
ATOM      8  C   UNL     1      -8.058   7.740  -0.741  0.00  0.00    +0.138 A 
ATOM      9  C   UNL     1      -7.504   7.184  -1.905  0.00  0.00    +0.079 A 
ATOM     10  C   UNL     1      -6.407   6.280  -1.706  0.00  0.00    +0.279 A 
ATOM     11  O   UNL     1      -5.862   5.747  -2.657  0.00  0.00    -0.265 OA
ATOM     12  N   UNL     1      -5.992   6.031  -0.449  0.00  0.00    -0.201 N 
ATOM     13  N   UNL     1      -6.619   6.636   0.645  0.00  0.00    -0.061 NA
ATOM     14  N   UNL     1      -7.601   7.453   0.474  0.00  0.00    -0.123 NA
ATOM     15  C   UNL     1      -9.934   9.041  -4.229  0.00  0.00    +0.046 C 
ENDROOT
BRANCH  12  16
ATOM     16  C   UNL     1      -4.874   5.111  -0.225  0.00  0.00    +0.246 C 
BRANCH  16  17
ATOM     17  C   UNL     1      -3.579   5.881  -0.234  0.00  0.00    +0.254 C 
ATOM     18  O   UNL     1      -3.589   7.081  -0.410  0.00  0.00    -0.272 OA
ATOM     19  N   UNL     1      -2.411   5.237  -0.045  0.00  0.00    -0.205 N 
ATOM     20  H   UNL     1      -2.402   4.149   0.115  0.00  0.00    +0.177 HD
BRANCH  19  21
ATOM     21  N   UNL     1      -1.207   5.954  -0.054  0.00  0.00    -0.188 NA
ATOM     22  C   UNL     1      -0.075   5.322   0.000  0.00  0.00    +0.138 C 
BRANCH  22  23
ATOM     23  C   UNL     1       0.017   3.931  -0.484  0.00  0.00    -0.002 A 
ATOM     24  C   UNL     1      -1.004   3.394  -1.273  0.00  0.00    +0.010 A 
ATOM     25  C   UNL     1      -0.911   2.096  -1.729  0.00  0.00    +0.004 A 
ATOM     26  C   UNL     1       0.184   1.319  -1.399  0.00  0.00    +0.045 A 
ATOM     27  C   UNL     1       1.203   1.843  -0.615  0.00  0.00    +0.121 A 
ATOM     28  C   UNL     1       1.124   3.147  -0.156  0.00  0.00    +0.055 A 
BRANCH  27  29
ATOM     29  O   UNL     1       2.280   1.076  -0.298  0.00  0.00    -0.495 OA
ATOM     30  C   UNL     1       2.296  -0.260  -0.805  0.00  0.00    +0.277 C 
ENDBRANCH  27  29
ENDBRANCH  22  23
ENDBRANCH  19  21
ENDBRANCH  16  17
ENDBRANCH  12  16
TORSDOF 5
