REMARK  Name = ZINC02729486
REMARK  8 active torsions:
REMARK  status: ('A' for Active; 'I' for Inactive)
REMARK    1  A    between atoms: C_1  and  C_2
REMARK    2  A    between atoms: C_2  and  C_3
REMARK    3  A    between atoms: C_3  and  N_54
REMARK    4  A    between atoms: C_15  and  C_16
REMARK    5  A    between atoms: C_15  and  N_56
REMARK    6  A    between atoms: C_17  and  C_23
REMARK    7  A    between atoms: C_17  and  C_25
REMARK    8  A    between atoms: C_19  and  C_20
REMARK                            x       y       z     vdW  Elec       q    Type
REMARK                         _______ _______ _______ _____ _____    ______ ____
ROOT
ATOM      1  C   UNL     1       0.003  -0.004  -0.001  0.00  0.00    -0.051 C 
ATOM      2  C   UNL     1      -0.018   1.495   0.007  0.00  0.00    -0.044 C 
ATOM      3  C   UNL     1       1.074   2.227   0.002  0.00  0.00    -0.051 C 
ATOM      4  C   UNL     1       2.452   1.617   0.046  0.00  0.00    +0.008 C 
ATOM      5  C   UNL     1       2.424   0.131   0.319  0.00  0.00    -0.070 C 
ATOM      6  C   UNL     1       3.276   2.409   1.073  0.00  0.00    +0.009 C 
ATOM      7  C   UNL     1       4.633   1.753   1.272  0.00  0.00    -0.008 C 
ATOM      8  C   UNL     1       4.584   0.534   2.187  0.00  0.00    -0.078 C 
ATOM      9  C   UNL     1       2.541   1.286   3.245  0.00  0.00    -0.078 C 
ATOM     10  C   UNL     1       2.491   2.535   2.373  0.00  0.00    -0.008 C 
ATOM     11  C   UNL     1       3.469   3.820   0.486  0.00  0.00    +0.187 C 
ATOM     12  C   UNL     1       2.142   4.432   0.141  0.00  0.00    +0.065 C 
ATOM     13  C   UNL     1       1.015   3.707  -0.084  0.00  0.00    +0.163 C 
ATOM     14  N   UNL     1       2.063   5.794   0.049  0.00  0.00    -0.304 NA
ATOM     15  H   UNL     1       1.218   6.217  -0.171  0.00  0.00    +0.186 HD
ATOM     16  N   UNL     1       1.319  -0.541  -0.409  0.00  0.00    +0.382 N 
ATOM     17  H   UNL     1       1.441  -0.369  -1.414  0.00  0.00    -0.081 HD
ATOM     18  N   UNL     1       3.943   0.887   3.468  0.00  0.00    +0.380 N 
ATOM     19  H   UNL     1       4.449   1.678   3.884  0.00  0.00    -0.082 HD
ENDROOT
BRANCH  18  20
ATOM     20  C   UNL     1       4.002  -0.261   4.398  0.00  0.00    -0.082 C 
ATOM     21  C   UNL     1       5.421  -0.833   4.396  0.00  0.00    -0.017 C 
ENDBRANCH  18  20
BRANCH  13  22
ATOM     22  C   UNL     1      -0.202   4.386  -0.410  0.00  0.00    +0.076 C 
ATOM     23  N   UNL     1      -1.168   4.925  -0.669  0.00  0.00    -0.196 NA
ENDBRANCH  13  22
BRANCH  11  24
ATOM     24  C   UNL     1       4.294   3.763  -0.733  0.00  0.00    +0.091 C 
ATOM     25  N   UNL     1       4.930   3.719  -1.673  0.00  0.00    -0.195 NA
ENDBRANCH  11  24
BRANCH  11  26
ATOM     26  C   UNL     1       4.154   4.704   1.442  0.00  0.00    +0.091 C 
ATOM     27  N   UNL     1       4.683   5.386   2.180  0.00  0.00    -0.195 NA
ENDBRANCH  11  26
BRANCH  16  28
ATOM     28  C   UNL     1       1.372  -1.993  -0.172  0.00  0.00    -0.079 C 
BRANCH  28  30
ATOM     29  C   UNL     1       1.297  -3.850   1.498  0.00  0.00    +0.002 C 
ATOM     30  C   UNL     1       1.234  -2.332   1.313  0.00  0.00    -0.022 C 
ENDBRANCH  28  30
ENDBRANCH  16  28
TORSDOF 6
