REMARK  Name = ZINC18023164
REMARK  6 active torsions:
REMARK  status: ('A' for Active; 'I' for Inactive)
REMARK    1  A    between atoms: C_1  and  C_2
REMARK    2  A    between atoms: N_10  and  N_14
REMARK    3  A    between atoms: C_15  and  C_17
REMARK    4  A    between atoms: C_17  and  C_19
REMARK    5  A    between atoms: C_17  and  O_20
REMARK    6  A    between atoms: O_20  and  C_21
REMARK                            x       y       z     vdW  Elec       q    Type
REMARK                         _______ _______ _______ _____ _____    ______ ____
ROOT
ATOM      1  C   UNL     1       8.915   5.504   2.201  0.00  0.00    +0.007 C 
ATOM      2  C   UNL     1       7.480   5.065   2.497  0.00  0.00    -0.014 C 
ATOM      3  C   UNL     1       6.590   5.390   1.295  0.00  0.00    +0.006 C 
ATOM      4  C   UNL     1       5.151   4.961   1.597  0.00  0.00    +0.035 C 
ATOM      5  C   UNL     1       5.114   3.465   1.889  0.00  0.00    +0.114 C 
ATOM      6  C   UNL     1       6.016   3.123   3.069  0.00  0.00    +0.035 C 
ATOM      7  C   UNL     1       7.451   3.558   2.762  0.00  0.00    +0.006 C 
ATOM      8  C   UNL     1       3.697   3.017   2.162  0.00  0.00    +0.263 C 
ATOM      9  O   UNL     1       2.968   3.391   3.056  0.00  0.00    -0.271 OA
ATOM     10  N   UNL     1       3.413   2.114   1.201  0.00  0.00    -0.137 N 
ATOM     11  C   UNL     1       4.449   1.932   0.374  0.00  0.00    +0.326 C 
ATOM     12  O   UNL     1       4.436   1.163  -0.568  0.00  0.00    -0.251 OA
ATOM     13  N   UNL     1       5.508   2.698   0.700  0.00  0.00    -0.284 N 
ATOM     14  H   UNL     1       6.362   2.733   0.243  0.00  0.00    +0.151 HD
ENDROOT
BRANCH  10  15
ATOM     15  N   UNL     1       2.187   1.445   1.087  0.00  0.00    -0.221 N 
ATOM     16  C   UNL     1       1.311   1.802   0.127  0.00  0.00    +0.270 C 
ATOM     17  O   UNL     1       1.584   2.703  -0.638  0.00  0.00    -0.270 OA
ATOM     18  H   UNL     1       1.969   0.724   1.698  0.00  0.00    +0.174 HD
BRANCH  16  19
ATOM     19  C   UNL     1      -0.007   1.083   0.003  0.00  0.00    +0.257 C 
ATOM     20  C   UNL     1      -0.850   1.345   1.253  0.00  0.00    +0.062 C 
BRANCH  19  21
ATOM     21  O   UNL     1      -0.704   1.559  -1.150  0.00  0.00    -0.480 OA
BRANCH  21  22
ATOM     22  C   UNL     1      -1.615   0.721  -1.710  0.00  0.00    +0.122 A 
ATOM     23  C   UNL     1      -1.910  -0.491  -1.102  0.00  0.00    +0.047 A 
ATOM     24  C   UNL     1      -2.841  -1.339  -1.671  0.00  0.00    +0.019 A 
ATOM     25  C   UNL     1      -3.470  -0.986  -2.851  0.00  0.00    +0.018 A 
ATOM     26  C   UNL     1      -3.172   0.219  -3.462  0.00  0.00    +0.019 A 
ATOM     27  C   UNL     1      -2.247   1.073  -2.894  0.00  0.00    +0.047 A 
ATOM     28 BR   UNL     1      -4.738  -2.152  -3.630  0.00  0.00    -0.050 Br
ENDBRANCH  21  22
ENDBRANCH  19  21
ENDBRANCH  16  19
ENDBRANCH  10  15
TORSDOF 4
