REMARK  Name = ZINC21253418
REMARK  13 active torsions:
REMARK  status: ('A' for Active; 'I' for Inactive)
REMARK    1  A    between atoms: C_1  and  C_2
REMARK    2  A    between atoms: C_2  and  C_3
REMARK    3  A    between atoms: C_3  and  O_4
REMARK    4  A    between atoms: O_4  and  C_5
REMARK    5  A    between atoms: C_6  and  C_13
REMARK    6  A    between atoms: C_10  and  O_11
REMARK    7  A    between atoms: O_11  and  C_12
REMARK    8  A    between atoms: C_18  and  C_23
REMARK    9  A    between atoms: C_26  and  O_29
REMARK   10  A    between atoms: O_29  and  C_30
REMARK   11  A    between atoms: C_30  and  C_31
REMARK   12  A    between atoms: C_31  and  C_32
REMARK   13  A    between atoms: C_31  and  C_33
REMARK                            x       y       z     vdW  Elec       q    Type
REMARK                         _______ _______ _______ _____ _____    ______ ____
ROOT
ATOM      1  C   UNL     1       0.002  -0.004   0.002  0.00  0.00    +0.140 C 
ATOM      2  C   UNL     1      -0.312  -0.480  -1.397  0.00  0.00    +0.037 C 
ATOM      3  C   UNL     1       0.553  -1.059  -2.245  0.00  0.00    +0.017 C 
ATOM      4  C   UNL     1       0.108  -1.467  -3.640  0.00  0.00    +0.059 C 
ATOM      5  C   UNL     1      -1.361  -1.886  -3.616  0.00  0.00    +0.032 C 
ATOM      6  C   UNL     1      -2.180  -0.687  -3.125  0.00  0.00    +0.088 C 
ATOM      7  C   UNL     1      -1.656  -0.268  -1.784  0.00  0.00    +0.163 C 
ATOM      8  O   UNL     1      -2.413   0.273  -1.002  0.00  0.00    -0.292 OA
ATOM      9  N   UNL     1       1.855  -1.326  -1.965  0.00  0.00    -0.316 N 
ATOM     10  C   UNL     1       2.739  -0.428  -1.379  0.00  0.00    +0.052 A 
ATOM     11  C   UNL     1       3.849   0.060  -2.046  0.00  0.00    +0.025 A 
ATOM     12  C   UNL     1       4.714   0.917  -1.387  0.00  0.00    +0.002 A 
ATOM     13  C   UNL     1       4.473   1.279  -0.075  0.00  0.00    +0.002 A 
ATOM     14  C   UNL     1       3.354   0.805   0.588  0.00  0.00    +0.025 A 
ATOM     15  C   UNL     1       2.475  -0.035  -0.075  0.00  0.00    +0.049 A 
ATOM     16  N   UNL     1       1.283  -0.449   0.510  0.00  0.00    -0.331 N 
ATOM     17  H   UNL     1       2.278  -2.313  -2.205  0.00  0.00    +0.152 HD
ATOM     18  H   UNL     1       1.326  -1.127   1.375  0.00  0.00    +0.147 HD
ENDROOT
BRANCH   1  20
ATOM     19  C   UNL     1      -0.183   2.187   1.204  0.00  0.00    +0.167 A 
ATOM     20  C   UNL     1      -0.018   1.503   0.010  0.00  0.00    +0.023 A 
ATOM     21  C   UNL     1       0.121   2.203  -1.174  0.00  0.00    +0.009 A 
ATOM     22  C   UNL     1       0.103   3.585  -1.170  0.00  0.00    +0.004 A 
ATOM     23  C   UNL     1      -0.054   4.274   0.019  0.00  0.00    +0.049 A 
ATOM     24  C   UNL     1      -0.195   3.578   1.209  0.00  0.00    +0.162 A 
BRANCH  24  25
ATOM     25  O   UNL     1      -0.350   4.254   2.379  0.00  0.00    -0.491 OA
ATOM     26  C   UNL     1      -0.360   5.681   2.307  0.00  0.00    +0.277 C 
ENDBRANCH  24  25
BRANCH  19  27
ATOM     27  O   UNL     1      -0.326   1.500   2.369  0.00  0.00    -0.488 OA
BRANCH  27  28
ATOM     28  C   UNL     1       0.868   1.188   3.089  0.00  0.00    +0.229 C 
BRANCH  28  30
ATOM     29  C   UNL     1       1.788   0.086   5.134  0.00  0.00    +0.007 C 
ATOM     30  C   UNL     1       0.510   0.420   4.363  0.00  0.00    +0.038 C 
ENDBRANCH  28  30
ENDBRANCH  27  28
ENDBRANCH  19  27
ENDBRANCH   1  20
BRANCH   5  31
ATOM     31  C   UNL     1      -1.804  -2.275  -5.003  0.00  0.00    -0.043 A 
ATOM     32  C   UNL     1      -1.745  -1.351  -6.030  0.00  0.00    +0.007 A 
ATOM     33  C   UNL     1      -2.145  -1.707  -7.304  0.00  0.00    +0.046 A 
ATOM     34  C   UNL     1      -2.616  -2.988  -7.549  0.00  0.00    +0.121 A 
ATOM     35  C   UNL     1      -2.679  -3.912  -6.516  0.00  0.00    +0.046 A 
ATOM     36  C   UNL     1      -2.273  -3.553  -5.245  0.00  0.00    +0.007 A 
BRANCH  34  37
ATOM     37  O   UNL     1      -3.015  -3.339  -8.800  0.00  0.00    -0.492 OA
BRANCH  37  38
ATOM     38  C   UNL     1      -2.923  -2.338  -9.815  0.00  0.00    +0.232 C 
BRANCH  38  39
ATOM     39  C   UNL     1      -3.413  -2.913 -11.146  0.00  0.00    +0.020 C 
ATOM     40  C   UNL     1      -4.902  -3.246 -11.040  0.00  0.00    +0.010 C 
ATOM     41  C   UNL     1      -3.198  -1.883 -12.257  0.00  0.00    +0.010 C 
ENDBRANCH  38  39
ENDBRANCH  37  38
ENDBRANCH  34  37
ENDBRANCH   5  31
TORSDOF 9
