REMARK  Name = ZINC36877557
REMARK  7 active torsions:
REMARK  status: ('A' for Active; 'I' for Inactive)
REMARK    1  A    between atoms: C_4  and  N_29
REMARK    2  A    between atoms: C_5  and  N_7
REMARK    3  A    between atoms: C_8  and  C_10
REMARK    4  A    between atoms: C_10  and  C_11
REMARK    5  A    between atoms: C_11  and  S_12
REMARK    6  A    between atoms: S_12  and  C_13
REMARK    7  A    between atoms: C_13  and  C_14
REMARK                            x       y       z     vdW  Elec       q    Type
REMARK                         _______ _______ _______ _____ _____    ______ ____
ROOT
ATOM      1  C   UNL     1      -1.316  -4.811   0.305  0.00  0.00    +0.079 C 
ENDROOT
BRANCH   1   2
ATOM      2  C   UNL     1       0.114  -4.278   0.193  0.00  0.00    +0.107 C 
BRANCH   2   4
ATOM      3  N   UNL     1       1.234  -2.082  -0.021  0.00  0.00    -0.284 N 
ATOM      4  C   UNL     1       0.082  -2.775   0.088  0.00  0.00    +0.218 C 
ATOM      5  O   UNL     1      -0.979  -2.188   0.102  0.00  0.00    -0.275 OA
ATOM      6  H   UNL     1       2.078  -2.554  -0.097  0.00  0.00    +0.155 HD
BRANCH   3  11
ATOM      7  C   UNL     1       0.135   1.378  -0.617  0.00  0.00    +0.002 A 
ATOM      8  C   UNL     1       1.166   2.090  -0.032  0.00  0.00    +0.002 A 
ATOM      9  C   UNL     1       2.224   1.423   0.558  0.00  0.00    +0.025 A 
ATOM     10  C   UNL     1       2.252   0.036   0.565  0.00  0.00    +0.051 A 
ATOM     11  C   UNL     1       1.211  -0.681  -0.025  0.00  0.00    +0.055 A 
ATOM     12  C   UNL     1       0.154  -0.004  -0.614  0.00  0.00    +0.025 A 
BRANCH  10  13
ATOM     13  N   UNL     1       3.321  -0.641   1.161  0.00  0.00    -0.328 N 
ATOM     14  C   UNL     1       4.515  -0.991   0.380  0.00  0.00    +0.105 C 
ATOM     15  C   UNL     1       5.753  -0.449   1.101  0.00  0.00    +0.019 C 
ATOM     16  C   UNL     1       5.768  -0.970   2.540  0.00  0.00    +0.003 C 
ATOM     17  C   UNL     1       4.523  -0.473   3.278  0.00  0.00    +0.019 C 
ATOM     18  C   UNL     1       3.274  -1.010   2.583  0.00  0.00    +0.105 C 
ENDBRANCH  10  13
ENDBRANCH   3  11
ENDBRANCH   2   4
ENDBRANCH   1   2
BRANCH   1  19
ATOM     19  S   UNL     1      -1.278  -6.620   0.431  0.00  0.00    -0.153 S 
BRANCH  19  20
ATOM     20  C   UNL     1      -3.026  -7.088   0.555  0.00  0.00    +0.143 C 
BRANCH  20  21
ATOM     21  C   UNL     1      -3.139  -8.587   0.667  0.00  0.00    +0.121 A 
ATOM     22  N   UNL     1      -4.367  -9.158   0.766  0.00  0.00    -0.310 N 
ATOM     23  H   UNL     1      -5.155  -8.593   0.763  0.00  0.00    +0.170 HD
ATOM     24  C   UNL     1      -4.512 -10.492   0.867  0.00  0.00    +0.260 A 
ATOM     25  O   UNL     1      -5.622 -10.990   0.954  0.00  0.00    -0.267 OA
ATOM     26  C   UNL     1      -3.341 -11.319   0.871  0.00  0.00    +0.075 A 
ATOM     27  C   UNL     1      -3.257 -12.775   0.971  0.00  0.00    -0.023 A 
ATOM     28  C   UNL     1      -2.022 -13.320   0.951  0.00  0.00    -0.004 A 
ATOM     29  S   UNL     1      -0.915 -11.943   0.799  0.00  0.00    -0.073 S 
ATOM     30  C   UNL     1      -2.118 -10.638   0.764  0.00  0.00    +0.116 A 
ATOM     31  N   UNL     1      -2.053  -9.313   0.662  0.00  0.00    -0.226 NA
ATOM     32  C   UNL     1      -1.669 -14.773   1.040  0.00  0.00    +0.043 C 
ATOM     33  C   UNL     1      -2.904 -15.541   1.532  0.00  0.00    +0.005 C 
ATOM     34  C   UNL     1      -4.120 -15.091   0.717  0.00  0.00    +0.005 C 
ATOM     35  C   UNL     1      -4.496 -13.658   1.094  0.00  0.00    +0.037 C 
ENDBRANCH  20  21
ENDBRANCH  19  20
ENDBRANCH   1  19
TORSDOF 7
