REMARK  Name = ZINC40739782
REMARK  7 active torsions:
REMARK  status: ('A' for Active; 'I' for Inactive)
REMARK    1  A    between atoms: C_6  and  C_7
REMARK    2  A    between atoms: C_7  and  N_8
REMARK    3  A    between atoms: N_8  and  C_9
REMARK    4  A    between atoms: C_9  and  C_10
REMARK    5  A    between atoms: C_15  and  O_16
REMARK    6  A    between atoms: O_16  and  C_17
REMARK    7  A    between atoms: C_17  and  C_18
REMARK                            x       y       z     vdW  Elec       q    Type
REMARK                         _______ _______ _______ _____ _____    ______ ____
ROOT
ATOM      1  C   UNL     1      -3.436  -2.015  -2.782  0.00  0.00    -0.022 A 
ATOM      2  C   UNL     1      -4.406  -1.213  -3.353  0.00  0.00    +0.020 A 
ATOM      3  C   UNL     1      -4.815  -1.441  -4.654  0.00  0.00    +0.018 A 
ATOM      4  C   UNL     1      -4.255  -2.473  -5.387  0.00  0.00    +0.019 A 
ATOM      5  C   UNL     1      -3.285  -3.276  -4.820  0.00  0.00    +0.047 A 
ATOM      6  C   UNL     1      -2.869  -3.046  -3.517  0.00  0.00    +0.122 A 
ATOM      7 BR   UNL     1      -6.143  -0.343  -5.433  0.00  0.00    -0.050 Br
ENDROOT
BRANCH   1   8
ATOM      8  C   UNL     1      -2.991  -1.766  -1.364  0.00  0.00    -0.043 C 
BRANCH   8   9
ATOM      9  N   UNL     1      -1.728  -1.016  -1.372  0.00  0.00    +0.384 N 
ATOM     10  H   UNL     1      -1.864  -0.134  -1.842  0.00  0.00    -0.085 HD
ATOM     11  H   UNL     1      -1.022  -1.550  -1.857  0.00  0.00    -0.085 HD
BRANCH   9  12
ATOM     12  C   UNL     1      -1.294  -0.774   0.010  0.00  0.00    -0.046 C 
BRANCH  12  18
ATOM     13  C   UNL     1      -0.017   1.378   0.010  0.00  0.00    +0.005 A 
ATOM     14  C   UNL     1       1.170   2.088   0.002  0.00  0.00    +0.050 A 
ATOM     15  C   UNL     1       2.380   1.416  -0.013  0.00  0.00    +0.166 A 
ATOM     16  C   UNL     1       2.399   0.023  -0.021  0.00  0.00    +0.166 A 
ATOM     17  C   UNL     1       1.207  -0.682  -0.014  0.00  0.00    +0.051 A 
ATOM     18  C   UNL     1       0.002  -0.004   0.002  0.00  0.00    -0.061 A 
ATOM     19  O   UNL     1       3.698  -0.395  -0.036  0.00  0.00    -0.453 OA
ATOM     20  C   UNL     1       4.466   0.750  -0.450  0.00  0.00    +0.466 C 
ATOM     21  O   UNL     1       3.668   1.870  -0.024  0.00  0.00    -0.453 OA
ENDBRANCH  12  18
ENDBRANCH   9  12
ENDBRANCH   8   9
ENDBRANCH   1   8
BRANCH   6  22
ATOM     22  O   UNL     1      -1.912  -3.833  -2.959  0.00  0.00    -0.487 OA
BRANCH  22  23
ATOM     23  C   UNL     1      -1.372  -4.875  -3.774  0.00  0.00    +0.264 C 
BRANCH  23  24
ATOM     24  C   UNL     1      -0.332  -5.636  -2.993  0.00  0.00    -0.009 A 
ATOM     25  C   UNL     1       0.990  -5.234  -3.027  0.00  0.00    +0.008 A 
ATOM     26  C   UNL     1       1.945  -5.931  -2.312  0.00  0.00    +0.022 A 
ATOM     27  C   UNL     1       1.577  -7.033  -1.560  0.00  0.00    +0.059 A 
ATOM     28  C   UNL     1       0.253  -7.436  -1.526  0.00  0.00    +0.060 A 
ATOM     29  C   UNL     1      -0.702  -6.734  -2.238  0.00  0.00    +0.028 A 
ATOM     30 CL   UNL     1      -0.209  -8.819  -0.584  0.00  0.00    -0.082 Cl
ATOM     31 CL   UNL     1       2.776  -7.910  -0.661  0.00  0.00    -0.082 Cl
ENDBRANCH  23  24
ENDBRANCH  22  23
ENDBRANCH   6  22
TORSDOF 7
