REMARK  Name = ZINC12341921
REMARK  7 active torsions:
REMARK  status: ('A' for Active; 'I' for Inactive)
REMARK    1  A    between atoms: C_1  and  C_2
REMARK    2  A    between atoms: C_2  and  C_3
REMARK    3  A    between atoms: C_8  and  O_32
REMARK    4  A    between atoms: C_9  and  C_11
REMARK    5  A    between atoms: C_11  and  C_13
REMARK    6  A    between atoms: C_11  and  N_22
REMARK    7  A    between atoms: C_16  and  N_19
REMARK                            x       y       z     vdW  Elec       q    Type
REMARK                         _______ _______ _______ _____ _____    ______ ____
ROOT
ATOM      1  C   UNL     1       5.247   2.833  -0.034  0.00  0.00    +0.130 C 
ENDROOT
BRANCH   1   2
ATOM      2  N   UNL     1       5.559   3.955   0.860  0.00  0.00    -0.286 NA
ATOM      3  C   UNL     1       6.987   4.302   0.793  0.00  0.00    +0.090 C 
ATOM      4  C   UNL     1       7.184   5.674   1.438  0.00  0.00    +0.051 C 
ATOM      5  C   UNL     1       6.525   5.706   2.793  0.00  0.00    -0.042 A 
ATOM      6  C   UNL     1       6.880   6.713   3.678  0.00  0.00    +0.004 A 
ATOM      7  C   UNL     1       6.297   6.781   4.927  0.00  0.00    +0.000 A 
ATOM      8  C   UNL     1       5.355   5.840   5.299  0.00  0.00    +0.000 A 
ATOM      9  C   UNL     1       5.003   4.835   4.420  0.00  0.00    +0.005 A 
ATOM     10  C   UNL     1       5.589   4.765   3.164  0.00  0.00    -0.030 A 
ATOM     11  C   UNL     1       5.175   3.648   2.242  0.00  0.00    +0.120 C 
ENDBRANCH   1   2
BRANCH   1  18
ATOM     12  C   UNL     1      -0.275   0.660   0.551  0.00  0.00    +0.152 A 
ATOM     13  N   UNL     1      -0.140   1.979   0.435  0.00  0.00    -0.205 NA
ATOM     14  C   UNL     1       1.126   2.274   0.318  0.00  0.00    +0.199 A 
ATOM     15  N   UNL     1       1.867   1.133   0.354  0.00  0.00    -0.173 N 
ATOM     16  N   UNL     1       0.904   0.101   0.508  0.00  0.00    -0.147 NA
ATOM     17  C   UNL     1       3.230   1.263   0.242  0.00  0.00    +0.228 A 
ATOM     18  C   UNL     1       3.790   2.470   0.103  0.00  0.00    +0.076 A 
ATOM     19  S   UNL     1       2.359   3.539   0.124  0.00  0.00    -0.047 S 
BRANCH  12  21
ATOM     20  C   UNL     1      -2.131  -0.435  -0.676  0.00  0.00    +0.012 C 
ATOM     21  C   UNL     1      -1.583  -0.073   0.706  0.00  0.00    +0.075 C 
ENDBRANCH  12  21
BRANCH  17  22
ATOM     22  O   UNL     1       4.018   0.154   0.273  0.00  0.00    -0.492 OA
ATOM     23  H   UNL     1       5.109   0.252   0.183  0.00  0.00    +0.294 HD
ENDBRANCH  17  22
ENDBRANCH   1  18
BRANCH   1  24
ATOM     24  C   UNL     1       5.532   3.232  -1.459  0.00  0.00    -0.025 A 
ATOM     25  C   UNL     1       5.114   4.463  -1.929  0.00  0.00    +0.008 A 
ATOM     26  C   UNL     1       5.380   4.831  -3.235  0.00  0.00    +0.033 A 
ATOM     27  C   UNL     1       6.055   3.964  -4.074  0.00  0.00    +0.126 A 
ATOM     28  C   UNL     1       6.469   2.731  -3.605  0.00  0.00    +0.033 A 
ATOM     29  C   UNL     1       6.207   2.365  -2.298  0.00  0.00    +0.008 A 
BRANCH  27  30
ATOM     30  N   UNL     1       6.335   4.355  -5.473  0.00  0.00    +0.056 N 
ATOM     31  O   UNL     1       6.929   3.591  -6.212  0.00  0.00    -0.126 OA
ATOM     32  O   UNL     1       5.970   5.441  -5.886  0.00  0.00    -0.126 OA
ENDBRANCH  27  30
ENDBRANCH   1  24
TORSDOF 6
