REMARK  Name = ZINC66599816
REMARK  7 active torsions:
REMARK  status: ('A' for Active; 'I' for Inactive)
REMARK    1  A    between atoms: C_1  and  C_2
REMARK    2  A    between atoms: C_2  and  C_3
REMARK    3  A    between atoms: C_3  and  C_4
REMARK    4  A    between atoms: C_4  and  N_5
REMARK    5  A    between atoms: C_10  and  C_12
REMARK    6  A    between atoms: C_12  and  N_13
REMARK    7  A    between atoms: C_19  and  C_22
REMARK                            x       y       z     vdW  Elec       q    Type
REMARK                         _______ _______ _______ _____ _____    ______ ____
ROOT
ATOM      1  N   UNL     1      -0.924  -3.786   1.519  0.00  0.00    -0.301 N 
ATOM      2  C   UNL     1      -0.112  -4.077   2.555  0.00  0.00    +0.302 C 
ATOM      3  O   UNL     1      -0.480  -4.851   3.417  0.00  0.00    -0.253 OA
ATOM      4  N   UNL     1       1.108  -3.510   2.635  0.00  0.00    -0.286 N 
ATOM      5  C   UNL     1       2.049  -3.905   3.692  0.00  0.00    +0.110 C 
ATOM      6  C   UNL     1       2.512  -2.648   4.435  0.00  0.00    +0.030 C 
ATOM      7  C   UNL     1       3.081  -1.645   3.429  0.00  0.00    +0.060 C 
ATOM      8  C   UNL     1       1.990  -1.244   2.434  0.00  0.00    +0.030 C 
ATOM      9  C   UNL     1       1.524  -2.488   1.664  0.00  0.00    +0.110 C 
ATOM     10  H   UNL     1      -0.660  -3.115   0.870  0.00  0.00    +0.150 HD
ENDROOT
BRANCH   7  11
ATOM     11  C   UNL     1       3.569  -0.421   4.161  0.00  0.00    +0.141 A 
ATOM     12  N   UNL     1       2.847   0.369   4.912  0.00  0.00    -0.133 NA
ATOM     13  N   UNL     1       3.573   1.319   5.387  0.00  0.00    -0.129 NA
ATOM     14  C   UNL     1       4.816   1.182   4.957  0.00  0.00    +0.161 A 
ATOM     15  N   UNL     1       4.842   0.059   4.166  0.00  0.00    -0.286 N 
ATOM     16  C   UNL     1       6.003  -0.346   3.577  0.00  0.00    +0.094 A 
ATOM     17  C   UNL     1       7.145   0.348   3.766  0.00  0.00    +0.018 A 
ATOM     18  C   UNL     1       7.152   1.499   4.573  0.00  0.00    +0.005 A 
ATOM     19  C   UNL     1       5.999   1.919   5.160  0.00  0.00    +0.048 A 
ENDBRANCH   7  11
BRANCH   1  20
ATOM     20  C   UNL     1      -2.204  -4.484   1.373  0.00  0.00    +0.090 C 
BRANCH  20  26
ATOM     21  N   UNL     1      -1.933  -4.277  -1.051  0.00  0.00    +0.383 N 
ATOM     22  C   UNL     1      -2.588  -3.947  -2.323  0.00  0.00    -0.078 C 
ATOM     23  C   UNL     1      -2.956  -2.462  -2.341  0.00  0.00    -0.019 C 
ATOM     24  C   UNL     1      -3.910  -2.163  -1.181  0.00  0.00    -0.003 C 
ATOM     25  C   UNL     1      -3.246  -2.581   0.134  0.00  0.00    -0.014 C 
ATOM     26  C   UNL     1      -2.868  -4.062   0.061  0.00  0.00    -0.051 C 
ATOM     27  H   UNL     1      -1.124  -3.687  -0.928  0.00  0.00    -0.081 HD
BRANCH  21  28
ATOM     28  C   UNL     1      -1.513  -5.685  -1.069  0.00  0.00    -0.078 C 
BRANCH  28  29
ATOM     29  C   UNL     1      -0.452  -5.886  -2.153  0.00  0.00    -0.019 C 
BRANCH  29  31
ATOM     30  C   UNL     1       1.047  -7.553  -3.256  0.00  0.00    +0.004 C 
ATOM     31  C   UNL     1      -0.014  -7.351  -2.172  0.00  0.00    -0.005 C 
ENDBRANCH  29  31
ENDBRANCH  28  29
ENDBRANCH  21  28
ENDBRANCH  20  26
ENDBRANCH   1  20
TORSDOF 6
