REMARK  Name = ZINC01558234
REMARK  4 active torsions:
REMARK  status: ('A' for Active; 'I' for Inactive)
REMARK    1  A    between atoms: C_1  and  N_2
REMARK    2  A    between atoms: N_7  and  C_23
REMARK    3  A    between atoms: N_14  and  N_15
REMARK    4  A    between atoms: N_15  and  C_16
REMARK                            x       y       z     vdW  Elec       q    Type
REMARK                         _______ _______ _______ _____ _____    ______ ____
ROOT
ATOM      1  C   UNL     1      -1.681  -0.314  -3.465  0.00  0.00    +0.133 C 
ATOM      2  N   UNL     1      -2.783  -0.076  -2.530  0.00  0.00    -0.282 N 
ATOM      3  C   UNL     1      -3.186  -1.097  -1.546  0.00  0.00    +0.227 C 
ATOM      4  C   UNL     1      -4.660  -1.150  -1.322  0.00  0.00    +0.248 C 
ATOM      5  O   UNL     1      -5.231  -2.208  -1.161  0.00  0.00    -0.273 OA
ATOM      6  N   UNL     1      -5.338   0.019  -1.305  0.00  0.00    -0.282 N 
ATOM      7  C   UNL     1      -4.597   1.242  -1.521  0.00  0.00    +0.227 C 
ATOM      8  C   UNL     1      -3.477   1.103  -2.535  0.00  0.00    +0.248 C 
ATOM      9  O   UNL     1      -3.211   1.994  -3.314  0.00  0.00    -0.273 OA
ATOM     10  S   UNL     1      -3.884   1.871   0.031  0.00  0.00    -0.065 S 
ATOM     11  C   UNL     1      -2.352   0.984   0.019  0.00  0.00    +0.153 C 
ATOM     12  N   UNL     1      -1.234   1.650   0.017  0.00  0.00    -0.169 NA
ATOM     13  S   UNL     1      -2.302  -0.783   0.002  0.00  0.00    -0.065 S 
ATOM     14  C   UNL     1      -6.785   0.047  -1.075  0.00  0.00    +0.133 C 
ENDROOT
BRANCH  12  15
ATOM     15  N   UNL     1      -0.011   0.966   0.007  0.00  0.00    -0.236 N 
ATOM     16  H   UNL     1       0.002  -0.004   0.002  0.00  0.00    +0.174 HD
BRANCH  15  17
ATOM     17  C   UNL     1       1.185   1.678  -0.000  0.00  0.00    +0.048 A 
ATOM     18  C   UNL     1       1.169   3.069   0.002  0.00  0.00    +0.025 A 
ATOM     19  C   UNL     1       2.357   3.772  -0.001  0.00  0.00    +0.002 A 
ATOM     20  C   UNL     1       3.563   3.095  -0.016  0.00  0.00    +0.000 A 
ATOM     21  C   UNL     1       3.584   1.712  -0.023  0.00  0.00    +0.002 A 
ATOM     22  C   UNL     1       2.400   1.001  -0.015  0.00  0.00    +0.025 A 
ENDBRANCH  15  17
ENDBRANCH  12  15
TORSDOF 2
