REMARK  Name = ZINC42613362
REMARK  6 active torsions:
REMARK  status: ('A' for Active; 'I' for Inactive)
REMARK    1  A    between atoms: C_1  and  C_2
REMARK    2  A    between atoms: C_8  and  N_10
REMARK    3  A    between atoms: N_10  and  C_11
REMARK    4  A    between atoms: N_10  and  C_12
REMARK    5  A    between atoms: C_15  and  N_21
REMARK    6  A    between atoms: C_17  and  C_18
REMARK                            x       y       z     vdW  Elec       q    Type
REMARK                         _______ _______ _______ _____ _____    ______ ____
ROOT
ATOM      1  C   UNL     1       0.858   0.679   3.150  0.00  0.00    +0.042 A 
ATOM      2  C   UNL     1       0.717   2.046   2.942  0.00  0.00    +0.025 A 
ATOM      3  C   UNL     1       0.963   2.932   3.970  0.00  0.00    +0.024 A 
ATOM      4  C   UNL     1       1.353   2.466   5.222  0.00  0.00    +0.025 A 
ATOM      5  C   UNL     1       1.498   1.108   5.445  0.00  0.00    +0.037 A 
ATOM      6  C   UNL     1       1.245   0.203   4.411  0.00  0.00    +0.059 A 
ENDROOT
BRANCH   6   7
ATOM      7  C   UNL     1       1.390  -1.246   4.643  0.00  0.00    +0.243 C 
ATOM      8  O   UNL     1       0.998  -2.038   3.807  0.00  0.00    -0.270 OA
ATOM      9  N   UNL     1       1.957  -1.693   5.781  0.00  0.00    -0.325 N 
ATOM     10  H   UNL     1       2.269  -1.062   6.448  0.00  0.00    +0.145 HD
ATOM     11  H   UNL     1       2.052  -2.646   5.934  0.00  0.00    +0.145 HD
ENDBRANCH   6   7
BRANCH   4  12
ATOM     12  N   UNL     1       1.601   3.374   6.258  0.00  0.00    -0.358 N 
ATOM     13  H   UNL     1       1.500   4.326   6.103  0.00  0.00    +0.142 HD
ATOM     14  H   UNL     1       1.873   3.051   7.131  0.00  0.00    +0.142 HD
ENDBRANCH   4  12
BRANCH   1  15
ATOM     15  N   UNL     1       0.610  -0.214   2.112  0.00  0.00    -0.329 N 
ATOM     16  C   UNL     1      -0.732  -0.772   1.930  0.00  0.00    +0.129 C 
BRANCH  15  23
ATOM     17  C   UNL     1       3.232  -0.880   3.147  0.00  0.00    +0.009 C 
ATOM     18  C   UNL     1       3.036  -0.180   1.801  0.00  0.00    +0.006 C 
ATOM     19  C   UNL     1       3.054   1.336   2.008  0.00  0.00    +0.005 C 
ATOM     20  C   UNL     1       2.859   2.037   0.662  0.00  0.00    +0.000 C 
ATOM     21  C   UNL     1       1.515   1.621   0.061  0.00  0.00    +0.002 C 
ATOM     22  C   UNL     1       1.496   0.105  -0.146  0.00  0.00    +0.023 C 
ATOM     23  C   UNL     1       1.692  -0.596   1.200  0.00  0.00    +0.076 C 
ENDBRANCH  15  23
ENDBRANCH   1  15
TORSDOF 4
