REMARK  Name = ZINC39999580
REMARK  8 active torsions:
REMARK  status: ('A' for Active; 'I' for Inactive)
REMARK    1  A    between atoms: C_1  and  C_2
REMARK    2  A    between atoms: C_2  and  S_3
REMARK    3  A    between atoms: S_3  and  C_4
REMARK    4  A    between atoms: C_10  and  C_25
REMARK    5  A    between atoms: C_12  and  C_17
REMARK    6  A    between atoms: C_17  and  C_19
REMARK    7  A    between atoms: C_22  and  C_24
REMARK    8  A    between atoms: C_28  and  N_31
REMARK                            x       y       z     vdW  Elec       q    Type
REMARK                         _______ _______ _______ _____ _____    ______ ____
ROOT
ATOM      1  C   UNL     1       0.649  -2.311  -1.513  0.00  0.00    +0.160 A 
ATOM      2  N   UNL     1       0.154  -3.062  -0.539  0.00  0.00    -0.133 NA
ATOM      3  N   UNL     1       0.236  -4.320  -0.560  0.00  0.00    -0.125 NA
ATOM      4  C   UNL     1       0.820  -4.968  -1.555  0.00  0.00    +0.192 A 
ATOM      5  S   UNL     1       1.302  -3.587  -2.587  0.00  0.00    -0.024 S 
ATOM      6  N   UNL     1       1.002  -6.333  -1.747  0.00  0.00    -0.230 N 
ATOM      7  C   UNL     1       0.557  -7.400  -0.842  0.00  0.00    +0.152 C 
ATOM      8  C   UNL     1       0.986  -8.700  -1.483  0.00  0.00    +0.080 C 
ATOM      9  C   UNL     1       1.612  -8.377  -2.639  0.00  0.00    +0.250 C 
ATOM     10  C   UNL     1       1.613  -6.910  -2.798  0.00  0.00    +0.293 C 
ATOM     11  O   UNL     1       2.095  -6.311  -3.739  0.00  0.00    -0.266 OA
ATOM     12  O   UNL     1       2.148  -9.261  -3.513  0.00  0.00    -0.282 OA
ENDROOT
BRANCH   7  13
ATOM     13  C   UNL     1       1.213  -7.244   0.505  0.00  0.00    -0.022 A 
ATOM     14  C   UNL     1       2.563  -6.958   0.588  0.00  0.00    +0.008 A 
ATOM     15  C   UNL     1       3.165  -6.815   1.824  0.00  0.00    +0.033 A 
ATOM     16  C   UNL     1       2.416  -6.956   2.978  0.00  0.00    +0.126 A 
ATOM     17  C   UNL     1       1.066  -7.241   2.895  0.00  0.00    +0.033 A 
ATOM     18  C   UNL     1       0.464  -7.380   1.659  0.00  0.00    +0.008 A 
BRANCH  16  19
ATOM     19  N   UNL     1       3.061  -6.804   4.302  0.00  0.00    +0.056 N 
ATOM     20  O   UNL     1       4.242  -6.555   4.374  0.00  0.00    -0.126 OA
ATOM     21  O   UNL     1       2.406  -6.928   5.311  0.00  0.00    -0.126 OA
ENDBRANCH  16  19
ENDBRANCH   7  13
BRANCH   8  22
ATOM     22  C   UNL     1       0.766 -10.050  -0.954  0.00  0.00    +0.230 C 
ATOM     23  O   UNL     1       1.716 -10.732  -0.610  0.00  0.00    -0.283 OA
BRANCH  22  24
ATOM     24  C   UNL     1      -0.596 -10.579  -0.839  0.00  0.00    +0.175 A 
ATOM     25  C   UNL     1      -0.954 -11.784  -0.274  0.00  0.00    +0.053 A 
ATOM     26  C   UNL     1      -2.349 -11.877  -0.381  0.00  0.00    +0.045 A 
ATOM     27  C   UNL     1      -2.779 -10.751  -0.994  0.00  0.00    +0.103 A 
ATOM     28  O   UNL     1      -1.724  -9.971  -1.263  0.00  0.00    -0.457 OA
ATOM     29  C   UNL     1      -4.214 -10.424  -1.318  0.00  0.00    +0.086 C 
ENDBRANCH  22  24
ENDBRANCH   8  22
BRANCH   1  30
ATOM     30  S   UNL     1       0.654  -0.559  -1.702  0.00  0.00    -0.097 S 
BRANCH  30  32
ATOM     31  C   UNL     1      -0.252   1.573  -0.249  0.00  0.00    +0.016 C 
ATOM     32  C   UNL     1      -0.187   0.045  -0.213  0.00  0.00    +0.073 C 
ENDBRANCH  30  32
ENDBRANCH   1  30
TORSDOF 6
