REMARK  Name = ZINC09369034
REMARK  9 active torsions:
REMARK  status: ('A' for Active; 'I' for Inactive)
REMARK    1  A    between atoms: C_1  and  C_2
REMARK    2  A    between atoms: C_5  and  C_9
REMARK    3  A    between atoms: C_7  and  C_8
REMARK    4  A    between atoms: N_11  and  C_12
REMARK    5  A    between atoms: C_12  and  C_13
REMARK    6  A    between atoms: C_16  and  S_25
REMARK    7  A    between atoms: N_17  and  C_18
REMARK    8  A    between atoms: S_25  and  C_26
REMARK    9  A    between atoms: C_26  and  C_27
REMARK                            x       y       z     vdW  Elec       q    Type
REMARK                         _______ _______ _______ _____ _____    ______ ____
ROOT
ATOM      1  C   UNL     1      -6.094   2.914   0.078  0.00  0.00    +0.156 A 
ATOM      2  N   UNL     1      -6.690   2.417  -0.968  0.00  0.00    -0.132 NA
ATOM      3  N   UNL     1      -7.613   1.600  -0.605  0.00  0.00    -0.122 NA
ATOM      4  C   UNL     1      -7.664   1.537   0.706  0.00  0.00    +0.197 A 
ATOM      5  N   UNL     1      -6.695   2.375   1.185  0.00  0.00    -0.273 N 
ENDROOT
BRANCH   5   6
ATOM      6  C   UNL     1      -6.382   2.629   2.528  0.00  0.00    +0.052 A 
ATOM      7  C   UNL     1      -7.308   3.255   3.351  0.00  0.00    +0.026 A 
ATOM      8  C   UNL     1      -6.998   3.504   4.674  0.00  0.00    +0.003 A 
ATOM      9  C   UNL     1      -5.767   3.130   5.179  0.00  0.00    +0.020 A 
ATOM     10  C   UNL     1      -4.841   2.506   4.361  0.00  0.00    +0.043 A 
ATOM     11  C   UNL     1      -5.148   2.251   3.038  0.00  0.00    +0.046 A 
ATOM     12 CL   UNL     1      -3.296   2.039   5.000  0.00  0.00    -0.083 Cl
ENDBRANCH   5   6
BRANCH   1  13
ATOM     13  C   UNL     1      -4.958   3.905   0.072  0.00  0.00    +0.181 C 
BRANCH  13  16
ATOM     14  C   UNL     1      -2.522   3.870   0.048  0.00  0.00    +0.244 C 
ATOM     15  O   UNL     1      -2.534   5.086   0.054  0.00  0.00    -0.270 OA
ATOM     16  N   UNL     1      -3.682   3.185   0.056  0.00  0.00    -0.304 N 
ATOM     17  H   UNL     1      -3.673   2.215   0.050  0.00  0.00    +0.149 HD
BRANCH  14  22
ATOM     18  C   UNL     1       2.490   1.042  -0.016  0.00  0.00    +0.044 C 
ATOM     19  C   UNL     1       1.177   1.782   0.000  0.00  0.00    -0.047 A 
ATOM     20  C   UNL     1      -0.013   1.076   0.008  0.00  0.00    +0.004 A 
ATOM     21  C   UNL     1      -1.217   1.748   0.017  0.00  0.00    +0.013 A 
ATOM     22  C   UNL     1      -1.234   3.143   0.031  0.00  0.00    +0.037 A 
ATOM     23  C   UNL     1      -0.031   3.850   0.023  0.00  0.00    +0.016 A 
ATOM     24  C   UNL     1       1.167   3.166   0.007  0.00  0.00    -0.047 A 
ATOM     25  C   UNL     1       2.468   3.927  -0.001  0.00  0.00    +0.044 C 
ENDBRANCH  14  22
ENDBRANCH  13  16
ENDBRANCH   1  13
BRANCH   4  26
ATOM     26  S   UNL     1      -8.771   0.558   1.666  0.00  0.00    -0.076 S 
BRANCH  26  27
ATOM     27  C   UNL     1      -9.711  -0.242   0.342  0.00  0.00    +0.173 C 
BRANCH  27  28
ATOM     28  C   UNL     1     -10.748  -1.155   0.944  0.00  0.00    +0.229 C 
ATOM     29  O   UNL     1     -10.842  -1.255   2.149  0.00  0.00    -0.275 OA
ATOM     30  N   UNL     1     -11.571  -1.861   0.143  0.00  0.00    -0.264 N 
ATOM     31  C   UNL     1     -12.528  -2.703   0.699  0.00  0.00    +0.164 A 
ATOM     32  N   UNL     1     -12.778  -2.948   1.970  0.00  0.00    -0.233 NA
ATOM     33  C   UNL     1     -13.736  -3.780   2.330  0.00  0.00    +0.120 A 
ATOM     34  C   UNL     1     -14.456  -4.394   1.359  0.00  0.00    +0.068 A 
ATOM     35  S   UNL     1     -13.694  -3.708  -0.104  0.00  0.00    -0.061 S 
ATOM     36  H   UNL     1     -11.496  -1.781  -0.820  0.00  0.00    +0.157 HD
ENDBRANCH  27  28
ENDBRANCH  26  27
ENDBRANCH   4  26
TORSDOF 7
