REMARK  Name = ZINC04015337
REMARK  11 active torsions:
REMARK  status: ('A' for Active; 'I' for Inactive)
REMARK    1  A    between atoms: C_1  and  C_2
REMARK    2  A    between atoms: C_2  and  O_3
REMARK    3  A    between atoms: O_3  and  C_4
REMARK    4  A    between atoms: C_4  and  C_6
REMARK    5  A    between atoms: C_7  and  C_24
REMARK    6  A    between atoms: N_8  and  C_23
REMARK    7  A    between atoms: C_11  and  C_17
REMARK    8  A    between atoms: C_12  and  O_16
REMARK    9  A    between atoms: C_17  and  N_61
REMARK   10  A    between atoms: C_24  and  O_25
REMARK   11  A    between atoms: O_25  and  C_26
REMARK                            x       y       z     vdW  Elec       q    Type
REMARK                         _______ _______ _______ _____ _____    ______ ____
ROOT
ATOM      1  C   UNL     1       4.069   2.824   2.227  0.00  0.00    +0.091 A 
ATOM      2  C   UNL     1       5.159   3.334   1.584  0.00  0.00    +0.071 A 
ATOM      3  N   UNL     1       4.976   3.262   0.244  0.00  0.00    -0.343 N 
ATOM      4  C   UNL     1       3.748   2.699  -0.045  0.00  0.00    +0.051 A 
ATOM      5  C   UNL     1       3.125   2.399   1.177  0.00  0.00    +0.019 A 
ATOM      6  C   UNL     1       1.858   1.820   1.192  0.00  0.00    -0.011 A 
ATOM      7  C   UNL     1       1.224   1.533  -0.001  0.00  0.00    +0.133 A 
ATOM      8  C   UNL     1       1.842   1.830  -1.212  0.00  0.00    +0.061 A 
ATOM      9  C   UNL     1       3.094   2.408  -1.237  0.00  0.00    +0.045 A 
ATOM     10 BR   UNL     1       0.959   1.439  -2.838  0.00  0.00    -0.046 Br
ATOM     11  C   UNL     1       5.943   3.719  -0.757  0.00  0.00    +0.149 C 
ENDROOT
BRANCH   1  12
ATOM     12  C   UNL     1       3.874   2.720   3.678  0.00  0.00    +0.342 C 
ATOM     13  O   UNL     1       4.234   1.721   4.269  0.00  0.00    -0.245 OA
BRANCH  12  14
ATOM     14  O   UNL     1       3.295   3.733   4.354  0.00  0.00    -0.461 OA
BRANCH  14  16
ATOM     15  C   UNL     1       2.464   4.804   6.377  0.00  0.00    +0.048 C 
ATOM     16  C   UNL     1       3.134   3.562   5.787  0.00  0.00    +0.229 C 
ENDBRANCH  14  16
ENDBRANCH  12  14
ENDBRANCH   1  12
BRANCH   7  17
ATOM     17  O   UNL     1      -0.011   0.963   0.007  0.00  0.00    -0.505 OA
ATOM     18  H   UNL     1       0.002  -0.004   0.002  0.00  0.00    +0.292 HD
ENDBRANCH   7  17
BRANCH   6  19
ATOM     19  C   UNL     1       1.186   1.505   2.503  0.00  0.00    -0.039 C 
BRANCH  19  25
ATOM     20  C   UNL     1       1.003  -0.856   1.996  0.00  0.00    -0.078 C 
ATOM     21  C   UNL     1       1.518  -2.244   2.381  0.00  0.00    -0.019 C 
ATOM     22  C   UNL     1       1.088  -2.564   3.815  0.00  0.00    -0.004 C 
ATOM     23  C   UNL     1       1.627  -1.481   4.755  0.00  0.00    -0.019 C 
ATOM     24  C   UNL     1       1.109  -0.115   4.301  0.00  0.00    -0.078 C 
ATOM     25  N   UNL     1       1.577   0.143   2.923  0.00  0.00    +0.382 N 
ATOM     26  H   UNL     1       2.601   0.069   2.900  0.00  0.00    -0.081 HD
ENDBRANCH  19  25
ENDBRANCH   6  19
BRANCH   2  27
ATOM     27  C   UNL     1       6.384   3.892   2.263  0.00  0.00    +0.283 C 
BRANCH  27  28
ATOM     28  O   UNL     1       6.206   5.292   2.489  0.00  0.00    -0.486 OA
BRANCH  28  29
ATOM     29  C   UNL     1       7.226   5.952   3.098  0.00  0.00    +0.121 A 
ATOM     30  C   UNL     1       8.372   5.266   3.474  0.00  0.00    +0.045 A 
ATOM     31  C   UNL     1       9.410   5.941   4.087  0.00  0.00    +0.004 A 
ATOM     32  C   UNL     1       9.303   7.297   4.336  0.00  0.00    +0.000 A 
ATOM     33  C   UNL     1       8.160   7.982   3.967  0.00  0.00    +0.004 A 
ATOM     34  C   UNL     1       7.121   7.312   3.349  0.00  0.00    +0.045 A 
ENDBRANCH  28  29
ENDBRANCH  27  28
ENDBRANCH   2  27
TORSDOF 9
