REMARK  Name = ZINC12675143
REMARK  8 active torsions:
REMARK  status: ('A' for Active; 'I' for Inactive)
REMARK    1  A    between atoms: C_1  and  C_2
REMARK    2  A    between atoms: C_2  and  C_3
REMARK    3  A    between atoms: C_4  and  C_30
REMARK    4  A    between atoms: C_6  and  C_8
REMARK    5  A    between atoms: N_10  and  N_11
REMARK    6  A    between atoms: C_12  and  C_14
REMARK    7  A    between atoms: C_18  and  S_20
REMARK    8  A    between atoms: S_20  and  N_23
REMARK                            x       y       z     vdW  Elec       q    Type
REMARK                         _______ _______ _______ _____ _____    ______ ____
ROOT
ATOM      1  N   UNL     1      -4.727   2.805   0.754  0.00  0.00    -0.230 N 
ATOM      2  C   UNL     1      -5.897   3.463   0.633  0.00  0.00    +0.260 C 
ATOM      3  O   UNL     1      -5.914   4.679   0.643  0.00  0.00    -0.269 OA
ATOM      4  H   UNL     1      -4.714   1.835   0.746  0.00  0.00    +0.173 HD
ENDROOT
BRANCH   2   5
ATOM      5  C   UNL     1      -7.159   2.708   0.489  0.00  0.00    +0.040 A 
ATOM      6  C   UNL     1      -7.142   1.311   0.472  0.00  0.00    +0.014 A 
ATOM      7  C   UNL     1      -8.323   0.612   0.342  0.00  0.00    +0.023 A 
ATOM      8  C   UNL     1      -9.524   1.291   0.218  0.00  0.00    +0.067 A 
ATOM      9  C   UNL     1      -9.546   2.676   0.229  0.00  0.00    +0.124 A 
ATOM     10  C   UNL     1      -8.372   3.387   0.364  0.00  0.00    +0.043 A 
ATOM     11 CL   UNL     1     -11.006   0.404   0.048  0.00  0.00    -0.082 Cl
BRANCH   9  12
ATOM     12  S   UNL     1     -11.079   3.531   0.072  0.00  0.00    +0.062 S 
ATOM     13  O   UNL     1     -10.773   4.919   0.087  0.00  0.00    -0.153 OA
ATOM     14  O   UNL     1     -11.778   2.917  -1.002  0.00  0.00    -0.153 OA
BRANCH  12  15
ATOM     15  N   UNL     1     -11.954   3.225   1.444  0.00  0.00    -0.177 NA
ATOM     16  C   UNL     1     -12.980   2.174   1.458  0.00  0.00    +0.109 C 
ATOM     17  C   UNL     1     -12.689   1.222   2.629  0.00  0.00    +0.017 C 
ATOM     18  C   UNL     1     -12.600   2.030   3.925  0.00  0.00    +0.003 C 
ATOM     19  C   UNL     1     -11.450   3.035   3.824  0.00  0.00    +0.017 C 
ATOM     20  C   UNL     1     -11.723   4.003   2.669  0.00  0.00    +0.109 C 
ENDBRANCH  12  15
ENDBRANCH   9  12
ENDBRANCH   2   5
BRANCH   1  23
ATOM     21  C   UNL     1      -2.361   2.863   1.011  0.00  0.00    +0.267 C 
ATOM     22  O   UNL     1      -2.344   1.646   1.001  0.00  0.00    -0.268 OA
ATOM     23  N   UNL     1      -3.531   3.521   0.891  0.00  0.00    -0.230 N 
ATOM     24  H   UNL     1      -3.545   4.491   0.898  0.00  0.00    +0.173 HD
BRANCH  21  28
ATOM     25  C   UNL     1       0.869   5.387   1.380  0.00  0.00    -0.007 A 
ATOM     26  C   UNL     1       1.186   4.066   1.402  0.00  0.00    -0.040 A 
ATOM     27  C   UNL     1       0.184   3.134   1.290  0.00  0.00    +0.024 A 
ATOM     28  C   UNL     1      -1.110   3.612   1.154  0.00  0.00    +0.076 A 
ATOM     29  S   UNL     1      -0.855   5.377   1.202  0.00  0.00    -0.088 S 
ATOM     30  C   UNL     1       2.621   3.628   1.547  0.00  0.00    +0.044 C 
BRANCH  25  32
ATOM     31  C   UNL     1       2.253   6.987   0.086  0.00  0.00    +0.009 C 
ATOM     32  C   UNL     1       1.793   6.573   1.485  0.00  0.00    +0.039 C 
ENDBRANCH  25  32
ENDBRANCH  21  28
ENDBRANCH   1  23
TORSDOF 6
