REMARK  Name = ZINC12951389
REMARK  8 active torsions:
REMARK  status: ('A' for Active; 'I' for Inactive)
REMARK    1  A    between atoms: C_1  and  O_2
REMARK    2  A    between atoms: O_2  and  C_3
REMARK    3  A    between atoms: C_5  and  C_15
REMARK    4  A    between atoms: C_8  and  O_9
REMARK    5  A    between atoms: O_9  and  C_10
REMARK    6  A    between atoms: C_18  and  C_29
REMARK    7  A    between atoms: C_24  and  N_28
REMARK    8  A    between atoms: C_25  and  C_26
REMARK                            x       y       z     vdW  Elec       q    Type
REMARK                         _______ _______ _______ _____ _____    ______ ____
ROOT
ATOM      1  C   UNL     1       3.026   0.177  -3.530  0.00  0.00    +0.102 C 
ATOM      2  C   UNL     1       3.012  -0.179  -4.995  0.00  0.00    +0.054 A 
ATOM      3  C   UNL     1       2.035  -0.001  -5.917  0.00  0.00    +0.074 A 
ATOM      4  N   UNL     1       2.505  -0.490  -7.103  0.00  0.00    -0.273 N 
ATOM      5  H   UNL     1       2.026  -0.499  -7.947  0.00  0.00    +0.189 HD
ATOM      6  N   UNL     1       3.804  -0.975  -6.886  0.00  0.00    -0.135 NA
ATOM      7  C   UNL     1       4.109  -0.790  -5.633  0.00  0.00    +0.245 A 
ATOM      8  O   UNL     1       5.253  -1.096  -4.962  0.00  0.00    -0.421 OA
ATOM      9  C   UNL     1       5.419  -0.557  -3.738  0.00  0.00    +0.201 C 
ATOM     10  C   UNL     1       4.441   0.045  -3.027  0.00  0.00    +0.098 C 
ENDROOT
BRANCH   3  11
ATOM     11  C   UNL     1       0.707   0.608  -5.683  0.00  0.00    +0.000 A 
ATOM     12  C   UNL     1       0.603   1.822  -5.004  0.00  0.00    +0.011 A 
ATOM     13  C   UNL     1      -0.637   2.385  -4.788  0.00  0.00    +0.020 A 
ATOM     14  C   UNL     1      -1.779   1.747  -5.245  0.00  0.00    +0.041 A 
ATOM     15  C   UNL     1      -1.682   0.542  -5.919  0.00  0.00    +0.020 A 
ATOM     16  C   UNL     1      -0.446  -0.028  -6.146  0.00  0.00    +0.011 A 
ATOM     17 CL   UNL     1      -3.337   2.461  -4.970  0.00  0.00    -0.084 Cl
ENDBRANCH   3  11
BRANCH   1  20
ATOM     18  C   UNL     1       0.244  -1.124  -1.329  0.00  0.00    +0.162 A 
ATOM     19  C   UNL     1       1.073  -0.261  -2.029  0.00  0.00    +0.054 A 
ATOM     20  C   UNL     1       2.126  -0.763  -2.770  0.00  0.00    -0.031 A 
ATOM     21  C   UNL     1       2.355  -2.126  -2.817  0.00  0.00    +0.008 A 
ATOM     22  C   UNL     1       1.532  -2.992  -2.121  0.00  0.00    +0.050 A 
ATOM     23  C   UNL     1       0.478  -2.495  -1.371  0.00  0.00    +0.162 A 
BRANCH  18  25
ATOM     24  C   UNL     1      -0.972   0.786  -0.603  0.00  0.00    +0.277 C 
ATOM     25  O   UNL     1      -0.792  -0.631  -0.599  0.00  0.00    -0.491 OA
ENDBRANCH  18  25
BRANCH  23  26
ATOM     26  O   UNL     1      -0.329  -3.345  -0.682  0.00  0.00    -0.485 OA
BRANCH  26  27
ATOM     27  C   UNL     1      -0.111  -4.745  -0.874  0.00  0.00    +0.174 C 
ATOM     28  C   UNL     1       0.931  -5.276   0.141  0.00  0.00    +0.044 C 
ATOM     29  C   UNL     1       0.598  -6.786   0.215  0.00  0.00    +0.004 C 
ATOM     30  C   UNL     1      -0.943  -6.838   0.141  0.00  0.00    +0.004 C 
ATOM     31  C   UNL     1      -1.393  -5.540  -0.551  0.00  0.00    +0.044 C 
ENDBRANCH  26  27
ENDBRANCH  23  26
ENDBRANCH   1  20
BRANCH   9  32
ATOM     32  N   UNL     1       6.669  -0.623  -3.175  0.00  0.00    -0.328 N 
ATOM     33  H   UNL     1       7.396  -1.048  -3.657  0.00  0.00    +0.145 HD
ATOM     34  H   UNL     1       6.825  -0.246  -2.295  0.00  0.00    +0.145 HD
ENDBRANCH   9  32
BRANCH  10  35
ATOM     35  C   UNL     1       4.761   0.580  -1.738  0.00  0.00    +0.101 C 
ATOM     36  N   UNL     1       5.015   1.005  -0.716  0.00  0.00    -0.191 NA
ENDBRANCH  10  35
TORSDOF 7
