REMARK  Name = ZINC63067912
REMARK  6 active torsions:
REMARK  status: ('A' for Active; 'I' for Inactive)
REMARK    1  A    between atoms: C_8  and  C_11
REMARK    2  A    between atoms: N_14  and  C_17
REMARK    3  A    between atoms: C_17  and  N_19
REMARK    4  A    between atoms: N_19  and  C_20
REMARK    5  A    between atoms: C_20  and  C_21
REMARK    6  A    between atoms: C_21  and  C_22
REMARK                            x       y       z     vdW  Elec       q    Type
REMARK                         _______ _______ _______ _____ _____    ______ ____
ROOT
ATOM      1  C   UNL     1       5.181  -3.953  -4.718  0.00  0.00    +0.133 C 
ATOM      2  S   UNL     1       4.756  -3.114  -6.148  0.00  0.00    -0.019 S 
ENDROOT
BRANCH   1   6
ATOM      3  C   UNL     1       2.944  -3.482  -1.305  0.00  0.00    +0.023 C 
ATOM      4  C   UNL     1       2.766  -2.588  -2.534  0.00  0.00    +0.025 C 
ATOM      5  C   UNL     1       2.973  -3.423  -3.802  0.00  0.00    +0.107 C 
ATOM      6  N   UNL     1       4.282  -4.086  -3.723  0.00  0.00    -0.313 N 
ATOM      7  C   UNL     1       4.592  -4.898  -2.538  0.00  0.00    +0.107 C 
ATOM      8  C   UNL     1       4.367  -4.046  -1.284  0.00  0.00    +0.025 C 
BRANCH   3  16
ATOM      9  C   UNL     1      -0.007   1.378   0.011  0.00  0.00    +0.002 A 
ATOM     10  C   UNL     1       1.167   2.107   0.003  0.00  0.00    +0.001 A 
ATOM     11  C   UNL     1       2.376   1.432  -0.013  0.00  0.00    +0.016 A 
ATOM     12  C   UNL     1       2.392   0.055  -0.020  0.00  0.00    +0.031 A 
ATOM     13  C   UNL     1       1.222  -0.710  -0.012  0.00  0.00    +0.042 A 
ATOM     14  C   UNL     1       0.010   0.003   0.004  0.00  0.00    +0.024 A 
ATOM     15  N   UNL     1       1.346  -2.099  -0.020  0.00  0.00    -0.331 N 
ATOM     16  C   UNL     1       2.704  -2.659  -0.037  0.00  0.00    +0.136 C 
ATOM     17  S   UNL     1       3.720  -1.127  -0.039  0.00  0.00    -0.101 S 
ATOM     18  H   UNL     1       0.565  -2.674  -0.015  0.00  0.00    +0.147 HD
ENDBRANCH   3  16
ENDBRANCH   1   6
BRANCH   1  19
ATOM     19  N   UNL     1       6.414  -4.481  -4.588  0.00  0.00    -0.326 N 
ATOM     20  H   UNL     1       6.631  -5.020  -3.811  0.00  0.00    +0.148 HD
BRANCH  19  21
ATOM     21  C   UNL     1       7.426  -4.243  -5.620  0.00  0.00    +0.107 C 
BRANCH  21  22
ATOM     22  C   UNL     1       8.726  -4.948  -5.231  0.00  0.00    +0.065 C 
BRANCH  22  23
ATOM     23  C   UNL     1       9.783  -4.699  -6.309  0.00  0.00    +0.175 C 
ATOM     24  N   UNL     1       9.351  -5.285  -7.584  0.00  0.00    -0.363 N 
ATOM     25  C   UNL     1      10.235  -6.178  -7.923  0.00  0.00    +0.060 A 
ATOM     26  C   UNL     1      10.350  -7.082  -9.076  0.00  0.00    +0.027 A 
ATOM     27  C   UNL     1      11.403  -7.920  -9.161  0.00  0.00    +0.002 A 
ATOM     28  C   UNL     1      12.412  -7.972  -8.183  0.00  0.00    +0.002 A 
ATOM     29  C   UNL     1      12.402  -7.187  -7.087  0.00  0.00    +0.027 A 
ATOM     30  C   UNL     1      11.303  -6.233  -6.888  0.00  0.00    +0.060 A 
ATOM     31  N   UNL     1      11.039  -5.370  -5.949  0.00  0.00    -0.363 N 
ATOM     32  H   UNL     1       8.553  -5.050  -8.083  0.00  0.00    +0.162 HD
ATOM     33  H   UNL     1      11.573  -5.202  -5.157  0.00  0.00    +0.162 HD
ENDBRANCH  22  23
ENDBRANCH  21  22
ENDBRANCH  19  21
ENDBRANCH   1  19
TORSDOF 6
