REMARK  Name = ZINC12807751
REMARK  9 active torsions:
REMARK  status: ('A' for Active; 'I' for Inactive)
REMARK    1  A    between atoms: C_1  and  C_2
REMARK    2  A    between atoms: C_5  and  C_9
REMARK    3  A    between atoms: C_6  and  C_8
REMARK    4  A    between atoms: C_9  and  N_51
REMARK    5  A    between atoms: C_10  and  N_51
REMARK    6  A    between atoms: C_11  and  C_13
REMARK    7  A    between atoms: C_11  and  C_14
REMARK    8  A    between atoms: C_11  and  N_51
REMARK    9  A    between atoms: C_20  and  C_25
REMARK                            x       y       z     vdW  Elec       q    Type
REMARK                         _______ _______ _______ _____ _____    ______ ____
ROOT
ATOM      1  C   UNL     1      -4.382  -0.616   3.182  0.00  0.00    +0.097 A 
ATOM      2  N   UNL     1      -3.432   0.212   3.686  0.00  0.00    -0.312 N 
ATOM      3  H   UNL     1      -3.654   0.792   4.432  0.00  0.00    +0.170 HD
ATOM      4  C   UNL     1      -2.188   0.244   3.173  0.00  0.00    +0.260 A 
ATOM      5  O   UNL     1      -1.346   0.992   3.638  0.00  0.00    -0.267 OA
ATOM      6  C   UNL     1      -1.868  -0.619   2.077  0.00  0.00    +0.083 A 
ATOM      7  C   UNL     1      -0.610  -0.762   1.352  0.00  0.00    +0.039 A 
ATOM      8  C   UNL     1      -0.545  -1.653   0.330  0.00  0.00    +0.059 A 
ATOM      9  S   UNL     1      -2.187  -2.346   0.282  0.00  0.00    -0.076 S 
ATOM     10  C   UNL     1      -2.915  -1.435   1.619  0.00  0.00    +0.116 A 
ATOM     11  N   UNL     1      -4.122  -1.411   2.179  0.00  0.00    -0.228 NA
ENDROOT
BRANCH   7  12
ATOM     12  C   UNL     1       0.571   0.042   1.727  0.00  0.00    +0.136 A 
ATOM     13  C   UNL     1       1.823  -0.438   1.956  0.00  0.00    +0.050 A 
ATOM     14  C   UNL     1       2.629   0.671   2.284  0.00  0.00    +0.042 A 
ATOM     15  C   UNL     1       1.839   1.760   2.239  0.00  0.00    +0.196 A 
ATOM     16  O   UNL     1       0.596   1.377   1.902  0.00  0.00    -0.463 OA
ENDBRANCH   7  12
BRANCH   1  17
ATOM     17  C   UNL     1      -5.761  -0.618   3.790  0.00  0.00    -0.004 C 
ATOM     18  C   UNL     1      -5.655  -0.867   5.295  0.00  0.00    -0.005 C 
BRANCH  17  20
ATOM     19  C   UNL     1      -5.950  -2.997   3.384  0.00  0.00    -0.095 C 
ATOM     20  N   UNL     1      -6.593  -1.681   3.186  0.00  0.00    +0.387 N 
ATOM     21  H   UNL     1      -7.511  -1.686   3.644  0.00  0.00    -0.081 HD
BRANCH  20  22
ATOM     22  C   UNL     1      -6.777  -1.420   1.743  0.00  0.00    -0.042 C 
BRANCH  22  27
ATOM     23  C   UNL     1     -10.698  -5.123  -0.333  0.00  0.00    +0.044 C 
ATOM     24  C   UNL     1      -9.675  -4.157   0.208  0.00  0.00    -0.050 A 
ATOM     25  C   UNL     1      -8.328  -4.389   0.003  0.00  0.00    +0.003 A 
ATOM     26  C   UNL     1      -7.390  -3.504   0.499  0.00  0.00    +0.002 A 
ATOM     27  C   UNL     1      -7.799  -2.385   1.201  0.00  0.00    -0.061 A 
ATOM     28  C   UNL     1      -9.146  -2.155   1.411  0.00  0.00    -0.049 A 
ATOM     29  C   UNL     1     -10.084  -3.038   0.910  0.00  0.00    +0.007 A 
ATOM     30  C   UNL     1      -9.592  -0.939   2.182  0.00  0.00    +0.044 C 
ENDBRANCH  22  27
ENDBRANCH  20  22
ENDBRANCH  17  20
ENDBRANCH   1  17
TORSDOF 5
