REMARK  Name = ZINC08789811
REMARK  11 active torsions:
REMARK  status: ('A' for Active; 'I' for Inactive)
REMARK    1  A    between atoms: C_1  and  C_2
REMARK    2  A    between atoms: C_13  and  O_30
REMARK    3  A    between atoms: C_17  and  C_29
REMARK    4  A    between atoms: C_22  and  C_28
REMARK    5  A    between atoms: C_23  and  C_24
REMARK    6  A    between atoms: C_23  and  O_27
REMARK    7  A    between atoms: C_24  and  C_26
REMARK    8  A    between atoms: O_30  and  C_31
REMARK    9  A    between atoms: C_31  and  C_33
REMARK   10  A    between atoms: C_33  and  C_34
REMARK   11  A    between atoms: C_34  and  N_80
REMARK                            x       y       z     vdW  Elec       q    Type
REMARK                         _______ _______ _______ _____ _____    ______ ____
ROOT
ATOM      1  C   UNL     1       9.789  -4.700  -2.335  0.00  0.00    +0.011 C 
ATOM      2  C   UNL     1       8.490  -5.341  -2.827  0.00  0.00    +0.026 C 
ATOM      3  C   UNL     1       7.445  -4.242  -3.160  0.00  0.00    +0.011 C 
ATOM      4  C   UNL     1       6.620  -4.151  -1.871  0.00  0.00    +0.002 C 
ATOM      5  C   UNL     1       5.222  -3.578  -2.021  0.00  0.00    +0.000 C 
ATOM      6  C   UNL     1       5.313  -2.103  -2.429  0.00  0.00    +0.031 C 
ATOM      7  C   UNL     1       3.935  -1.507  -2.419  0.00  0.00    -0.027 C 
ATOM      8  C   UNL     1       2.979  -1.947  -1.655  0.00  0.00    -0.064 C 
ATOM      9  C   UNL     1       1.635  -1.238  -1.703  0.00  0.00    +0.075 C 
ATOM     10  C   UNL     1       1.222  -0.889  -0.270  0.00  0.00    +0.180 C 
ATOM     11  C   UNL     1       1.224  -2.158   0.584  0.00  0.00    +0.046 C 
ATOM     12  C   UNL     1       2.644  -2.720   0.671  0.00  0.00    +0.015 C 
ATOM     13  C   UNL     1       3.120  -3.118  -0.729  0.00  0.00    -0.008 C 
ATOM     14  C   UNL     1       4.540  -3.654  -0.648  0.00  0.00    +0.003 C 
ATOM     15  C   UNL     1       4.524  -5.077  -0.099  0.00  0.00    +0.005 C 
ATOM     16  C   UNL     1       5.932  -5.692  -0.071  0.00  0.00    +0.010 C 
ATOM     17  C   UNL     1       6.466  -5.647  -1.490  0.00  0.00    +0.007 C 
ATOM     18  C   UNL     1       7.868  -6.210  -1.706  0.00  0.00    +0.131 C 
ATOM     19  C   UNL     1       5.481  -6.328  -2.442  0.00  0.00    +0.015 C 
ATOM     20  C   UNL     1       2.214  -4.241  -1.238  0.00  0.00    +0.016 C 
ENDROOT
BRANCH  18  21
ATOM     21  C   UNL     1       7.792  -7.651  -2.142  0.00  0.00    +0.162 C 
ATOM     22  O   UNL     1       7.751  -7.924  -3.317  0.00  0.00    -0.295 OA
ATOM     23  C   UNL     1       7.768  -8.750  -1.111  0.00  0.00    +0.089 C 
ENDBRANCH  18  21
BRANCH  18  24
ATOM     24  O   UNL     1       8.637  -6.096  -0.507  0.00  0.00    -0.380 OA
ATOM     25  H   UNL     1       9.550  -6.401  -0.595  0.00  0.00    +0.211 HD
ENDBRANCH  18  24
BRANCH  10  26
ATOM     26  O   UNL     1      -0.110  -0.312  -0.277  0.00  0.00    -0.461 OA
BRANCH  26  27
ATOM     27  C   UNL     1      -0.196   1.021  -0.409  0.00  0.00    +0.306 C 
ATOM     28  O   UNL     1       0.809   1.684  -0.515  0.00  0.00    -0.251 OA
BRANCH  27  29
ATOM     29  C   UNL     1      -1.546   1.691  -0.431  0.00  0.00    +0.102 C 
BRANCH  29  30
ATOM     30  C   UNL     1      -1.363   3.202  -0.590  0.00  0.00    -0.067 C 
BRANCH  30  36
ATOM     31  C   UNL     1      -3.437   3.472  -1.812  0.00  0.00    -0.050 C 
ATOM     32  C   UNL     1      -4.821   4.125  -1.765  0.00  0.00    +0.141 C 
ATOM     33  O   UNL     1      -4.669   5.543  -1.649  0.00  0.00    -0.383 OA
ATOM     34  C   UNL     1      -3.936   5.950  -0.490  0.00  0.00    +0.141 C 
ATOM     35  C   UNL     1      -2.543   5.316  -0.525  0.00  0.00    -0.050 C 
ATOM     36  N   UNL     1      -2.694   3.847  -0.591  0.00  0.00    +0.383 N 
ATOM     37  H   UNL     1      -3.220   3.527   0.231  0.00  0.00    -0.082 HD
ENDBRANCH  30  36
ENDBRANCH  29  30
ENDBRANCH  27  29
ENDBRANCH  26  27
ENDBRANCH  10  26
TORSDOF 7
