REMARK  Name = ZINC63494754
REMARK  11 active torsions:
REMARK  status: ('A' for Active; 'I' for Inactive)
REMARK    1  A    between atoms: C_1  and  C_2
REMARK    2  A    between atoms: C_2  and  C_3
REMARK    3  A    between atoms: C_2  and  C_4
REMARK    4  A    between atoms: C_4  and  C_5
REMARK    5  A    between atoms: C_5  and  N_6
REMARK    6  A    between atoms: C_11  and  C_22
REMARK    7  A    between atoms: C_22  and  C_23
REMARK    8  A    between atoms: C_23  and  C_24
REMARK    9  A    between atoms: N_26  and  C_27
REMARK   10  A    between atoms: C_27  and  C_28
REMARK   11  A    between atoms: C_28  and  C_29
REMARK                            x       y       z     vdW  Elec       q    Type
REMARK                         _______ _______ _______ _____ _____    ______ ____
ROOT
ATOM      1  N   UNL     1      -3.510  -0.638  -1.275  0.00  0.00    -0.259 N 
ATOM      2  C   UNL     1      -3.795  -1.968  -1.811  0.00  0.00    +0.310 C 
ATOM      3  N   UNL     1      -2.710  -2.914  -1.571  0.00  0.00    -0.147 NA
ATOM      4  N   UNL     1      -3.108  -3.927  -0.988  0.00  0.00    -0.166 NA
ATOM      5  C   UNL     1      -4.545  -3.856  -0.694  0.00  0.00    +0.217 C 
ATOM      6  N   UNL     1      -4.974  -2.505  -1.097  0.00  0.00    -0.267 N 
ATOM      7  C   UNL     1      -6.107  -1.758  -0.864  0.00  0.00    +0.047 A 
ATOM      8  C   UNL     1      -7.383  -2.273  -0.777  0.00  0.00    +0.024 A 
ATOM      9  C   UNL     1      -8.450  -1.421  -0.557  0.00  0.00    +0.002 A 
ATOM     10  C   UNL     1      -8.245  -0.056  -0.426  0.00  0.00    +0.001 A 
ATOM     11  C   UNL     1      -6.974   0.475  -0.504  0.00  0.00    +0.015 A 
ATOM     12  C   UNL     1      -5.889  -0.368  -0.716  0.00  0.00    +0.058 A 
ATOM     13  C   UNL     1      -4.501   0.126  -0.765  0.00  0.00    +0.251 C 
ATOM     14  O   UNL     1      -4.246   1.238  -0.345  0.00  0.00    -0.270 OA
ENDROOT
BRANCH   1  15
ATOM     15  C   UNL     1      -2.135  -0.131  -1.286  0.00  0.00    +0.112 C 
BRANCH  15  16
ATOM     16  C   UNL     1      -1.433  -0.534   0.013  0.00  0.00    +0.022 C 
BRANCH  16  18
ATOM     17  C   UNL     1      -0.019   1.526   0.010  0.00  0.00    +0.007 C 
ATOM     18  C   UNL     1       0.002  -0.004   0.002  0.00  0.00    -0.016 C 
ATOM     19  C   UNL     1       0.742  -0.511   1.242  0.00  0.00    +0.007 C 
ENDBRANCH  16  18
ENDBRANCH  15  16
ENDBRANCH   1  15
BRANCH   5  20
ATOM     20  C   UNL     1      -5.305  -4.902  -1.512  0.00  0.00    +0.058 C 
BRANCH  20  21
ATOM     21  C   UNL     1      -4.906  -6.303  -1.044  0.00  0.00    +0.099 C 
BRANCH  21  22
ATOM     22  C   UNL     1      -5.654  -7.334  -1.850  0.00  0.00    +0.213 C 
ATOM     23  O   UNL     1      -6.430  -6.983  -2.713  0.00  0.00    -0.276 OA
ATOM     24  N   UNL     1      -5.460  -8.646  -1.611  0.00  0.00    -0.315 N 
ATOM     25  H   UNL     1      -4.840  -8.928  -0.921  0.00  0.00    +0.149 HD
BRANCH  24  26
ATOM     26  C   UNL     1      -6.187  -9.649  -2.394  0.00  0.00    +0.108 C 
BRANCH  26  27
ATOM     27  C   UNL     1      -5.788 -11.050  -1.927  0.00  0.00    +0.052 C 
BRANCH  27  28
ATOM     28  C   UNL     1      -6.536 -12.080  -2.732  0.00  0.00    -0.040 C 
ATOM     29  C   UNL     1      -6.097 -12.723  -3.839  0.00  0.00    -0.001 A 
ATOM     30  C   UNL     1      -4.841 -12.657  -4.595  0.00  0.00    +0.010 A 
ATOM     31  C   UNL     1      -4.690 -13.440  -5.687  0.00  0.00    +0.001 A 
ATOM     32  C   UNL     1      -5.702 -14.310  -6.114  0.00  0.00    +0.002 A 
ATOM     33  C   UNL     1      -6.883 -14.427  -5.472  0.00  0.00    +0.026 A 
ATOM     34  C   UNL     1      -7.149 -13.651  -4.311  0.00  0.00    +0.043 A 
ATOM     35  N   UNL     1      -8.198 -13.585  -3.527  0.00  0.00    -0.380 N 
ATOM     36  C   UNL     1      -7.927 -12.610  -2.464  0.00  0.00    +0.144 C 
ATOM     37  H   UNL     1      -9.015 -14.097  -3.630  0.00  0.00    +0.160 HD
ENDBRANCH  27  28
ENDBRANCH  26  27
ENDBRANCH  24  26
ENDBRANCH  21  22
ENDBRANCH  20  21
ENDBRANCH   5  20
TORSDOF 9
