REMARK  Name = ZINC16968683
REMARK  7 active torsions:
REMARK  status: ('A' for Active; 'I' for Inactive)
REMARK    1  A    between atoms: C_1  and  C_2
REMARK    2  A    between atoms: C_18  and  C_32
REMARK    3  A    between atoms: C_23  and  C_24
REMARK    4  A    between atoms: C_23  and  O_31
REMARK    5  A    between atoms: C_24  and  C_26
REMARK    6  A    between atoms: C_26  and  O_27
REMARK    7  A    between atoms: O_27  and  S_28
REMARK                            x       y       z     vdW  Elec       q    Type
REMARK                         _______ _______ _______ _____ _____    ______ ____
ROOT
ATOM      1  C   UNL     1      -1.603   3.545   1.062  0.00  0.00    +0.016 C 
ATOM      2  C   UNL     1      -1.267   3.009  -0.332  0.00  0.00    -0.001 C 
ATOM      3  C   UNL     1       0.086   3.562  -0.739  0.00  0.00    +0.019 C 
ATOM      4  C   UNL     1       1.231   2.785  -0.090  0.00  0.00    +0.080 C 
ATOM      5  C   UNL     1       1.089   1.335  -0.509  0.00  0.00    +0.156 C 
ATOM      6  O   UNL     1       2.026   0.703  -0.950  0.00  0.00    -0.293 OA
ATOM      7  C   UNL     1      -0.241   0.735  -0.355  0.00  0.00    +0.046 C 
ATOM      8  C   UNL     1      -1.321   1.511  -0.273  0.00  0.00    -0.060 C 
ATOM      9  C   UNL     1      -2.665   0.832  -0.084  0.00  0.00    +0.032 C 
ATOM     10  C   UNL     1      -3.672   1.424  -1.075  0.00  0.00    +0.009 C 
ATOM     11  C   UNL     1      -3.701   2.942  -0.901  0.00  0.00    +0.004 C 
ATOM     12  C   UNL     1      -2.337   3.511  -1.304  0.00  0.00    +0.069 C 
ATOM     13  C   UNL     1      -2.377   5.018  -1.306  0.00  0.00    +0.138 C 
ATOM     14  O   UNL     1      -1.489   5.652  -0.788  0.00  0.00    -0.297 OA
ATOM     15  C   UNL     1      -3.546   5.734  -1.967  0.00  0.00    +0.084 C 
ATOM     16  C   UNL     1      -4.810   5.090  -1.419  0.00  0.00    +0.013 C 
ATOM     17  C   UNL     1      -4.759   3.575  -1.782  0.00  0.00    +0.002 C 
ATOM     18  C   UNL     1      -6.198   3.139  -1.494  0.00  0.00    +0.008 C 
ATOM     19  C   UNL     1      -7.038   4.311  -2.068  0.00  0.00    +0.043 C 
ATOM     20  C   UNL     1      -6.116   5.554  -2.062  0.00  0.00    +0.132 C 
ATOM     21  C   UNL     1      -4.878   5.284   0.097  0.00  0.00    +0.015 C 
ENDROOT
BRANCH  20  22
ATOM     22  C   UNL     1      -6.735   6.659  -1.246  0.00  0.00    +0.193 C 
ATOM     23  O   UNL     1      -7.552   6.397  -0.396  0.00  0.00    -0.292 OA
BRANCH  22  24
ATOM     24  C   UNL     1      -6.335   8.091  -1.490  0.00  0.00    +0.273 C 
BRANCH  24  25
ATOM     25  O   UNL     1      -7.054   8.945  -0.598  0.00  0.00    -0.206 OA
BRANCH  25  26
ATOM     26  S   UNL     1      -6.727  10.423  -0.758  0.00  0.00    +0.239 S 
ATOM     27  O   UNL     1      -7.357  11.098   0.323  0.00  0.00    -0.116 OA
ATOM     28  O   UNL     1      -5.329  10.506  -0.997  0.00  0.00    -0.116 OA
ATOM     29  O   UNL     1      -7.415  10.902  -2.029  0.00  0.00    -0.022 OA
ENDBRANCH  25  26
ENDBRANCH  24  25
ENDBRANCH  22  24
ENDBRANCH  20  22
BRANCH  20  30
ATOM     30  O   UNL     1      -5.878   6.001  -3.398  0.00  0.00    -0.380 OA
ATOM     31  H   UNL     1      -6.671   6.308  -3.857  0.00  0.00    +0.211 HD
ENDBRANCH  20  30
TORSDOF 5
