REMARK  Name = ZINC36608761
REMARK  14 active torsions:
REMARK  status: ('A' for Active; 'I' for Inactive)
REMARK    1  A    between atoms: C_1  and  C_2
REMARK    2  A    between atoms: C_2  and  C_3
REMARK    3  A    between atoms: C_2  and  C_4
REMARK    4  A    between atoms: C_2  and  C_5
REMARK    5  A    between atoms: C_5  and  C_6
REMARK    6  A    between atoms: C_6  and  C_7
REMARK    7  A    between atoms: C_6  and  C_8
REMARK    8  A    between atoms: C_6  and  N_9
REMARK    9  A    between atoms: C_10  and  C_12
REMARK   10  A    between atoms: C_12  and  C_14
REMARK   11  A    between atoms: C_12  and  N_21
REMARK   12  A    between atoms: C_18  and  O_20
REMARK   13  A    between atoms: N_21  and  C_22
REMARK   14  A    between atoms: C_28  and  C_30
REMARK                            x       y       z     vdW  Elec       q    Type
REMARK                         _______ _______ _______ _____ _____    ______ ____
ROOT
ATOM      1  C   UNL     1       4.742  -0.161  -4.124  0.00  0.00    +0.198 C 
ENDROOT
BRANCH   1   2
ATOM      2  C   UNL     1       4.612  -1.633  -4.419  0.00  0.00    -0.014 A 
ATOM      3  C   UNL     1       5.476  -2.536  -3.827  0.00  0.00    +0.006 A 
ATOM      4  C   UNL     1       5.359  -3.887  -4.096  0.00  0.00    +0.004 A 
ATOM      5  C   UNL     1       4.378  -4.339  -4.958  0.00  0.00    +0.045 A 
ATOM      6  C   UNL     1       3.510  -3.435  -5.553  0.00  0.00    +0.117 A 
ATOM      7  C   UNL     1       3.626  -2.080  -5.277  0.00  0.00    +0.051 A 
BRANCH   6   8
ATOM      8  O   UNL     1       2.544  -3.877  -6.401  0.00  0.00    -0.507 OA
ATOM      9  H   UNL     1       1.707  -4.092  -5.966  0.00  0.00    +0.292 HD
ENDBRANCH   6   8
ENDBRANCH   1   2
BRANCH   1  11
ATOM     10  N   UNL     1       3.036  -0.188  -2.334  0.00  0.00    -0.308 N 
ATOM     11  C   UNL     1       4.295   0.109  -2.711  0.00  0.00    +0.239 C 
ATOM     12  O   UNL     1       5.069   0.594  -1.912  0.00  0.00    -0.273 OA
ATOM     13  H   UNL     1       2.417  -0.576  -2.972  0.00  0.00    +0.149 HD
BRANCH  10  14
ATOM     14  C   UNL     1       2.602   0.075  -0.959  0.00  0.00    +0.030 C 
ATOM     15  C   UNL     1       2.884   1.536  -0.606  0.00  0.00    +0.031 C 
ATOM     16  C   UNL     1       3.365  -0.839   0.001  0.00  0.00    +0.031 C 
BRANCH  14  17
ATOM     17  C   UNL     1       1.101  -0.198  -0.838  0.00  0.00    +0.031 C 
BRANCH  17  19
ATOM     18  C   UNL     1       0.504  -0.588  -3.233  0.00  0.00    +0.010 C 
ATOM     19  C   UNL     1       0.377   0.381  -2.055  0.00  0.00    -0.036 C 
ATOM     20  C   UNL     1       1.006   1.725  -2.431  0.00  0.00    +0.010 C 
ATOM     21  C   UNL     1      -1.101   0.586  -1.720  0.00  0.00    +0.010 C 
ENDBRANCH  17  19
ENDBRANCH  14  17
ENDBRANCH  10  14
ENDBRANCH   1  11
BRANCH   1  22
ATOM     22  N   UNL     1       6.141   0.246  -4.280  0.00  0.00    -0.251 N 
ATOM     23  C   UNL     1       6.490   1.537  -4.112  0.00  0.00    +0.252 C 
ATOM     24  O   UNL     1       7.640   1.885  -4.299  0.00  0.00    -0.270 OA
BRANCH  23  25
ATOM     25  C   UNL     1       5.475   2.529  -3.700  0.00  0.00    +0.039 A 
ATOM     26  C   UNL     1       4.119   2.196  -3.722  0.00  0.00    +0.013 A 
ATOM     27  C   UNL     1       3.177   3.126  -3.336  0.00  0.00    +0.002 A 
ATOM     28  C   UNL     1       3.571   4.387  -2.927  0.00  0.00    +0.020 A 
ATOM     29  C   UNL     1       4.914   4.725  -2.903  0.00  0.00    +0.042 A 
ATOM     30  C   UNL     1       5.868   3.801  -3.282  0.00  0.00    +0.033 A 
ATOM     31 CL   UNL     1       5.399   6.310  -2.389  0.00  0.00    -0.084 Cl
ENDBRANCH  23  25
BRANCH  22  32
ATOM     32  C   UNL     1       7.114  -0.705  -4.604  0.00  0.00    +0.038 A 
ATOM     33  C   UNL     1       7.080  -1.344  -5.837  0.00  0.00    +0.023 A 
ATOM     34  C   UNL     1       8.042  -2.283  -6.153  0.00  0.00    +0.002 A 
ATOM     35  C   UNL     1       9.040  -2.586  -5.245  0.00  0.00    +0.000 A 
ATOM     36  C   UNL     1       9.077  -1.952  -4.017  0.00  0.00    +0.002 A 
ATOM     37  C   UNL     1       8.120  -1.008  -3.696  0.00  0.00    +0.023 A 
ENDBRANCH  22  32
ENDBRANCH   1  22
TORSDOF 9
