REMARK  Name = ZINC35450405
REMARK  14 active torsions:
REMARK  status: ('A' for Active; 'I' for Inactive)
REMARK    1  A    between atoms: C_1  and  C_2
REMARK    2  A    between atoms: C_2  and  C_3
REMARK    3  A    between atoms: C_3  and  C_5
REMARK    4  A    between atoms: C_3  and  S_6
REMARK    5  A    between atoms: S_6  and  C_7
REMARK    6  A    between atoms: C_14  and  C_26
REMARK    7  A    between atoms: C_20  and  C_24
REMARK    8  A    between atoms: C_20  and  C_25
REMARK    9  A    between atoms: C_28  and  O_36
REMARK   10  A    between atoms: C_29  and  O_34
REMARK   11  A    between atoms: C_31  and  O_32
REMARK   12  A    between atoms: O_32  and  C_33
REMARK   13  A    between atoms: O_34  and  C_35
REMARK   14  A    between atoms: O_36  and  C_37
REMARK                            x       y       z     vdW  Elec       q    Type
REMARK                         _______ _______ _______ _____ _____    ______ ____
ROOT
ATOM      1  C   UNL     1       0.852  -0.566   4.057  0.00  0.00    +0.171 A 
ATOM      2  N   UNL     1       2.010  -1.133   3.787  0.00  0.00    -0.208 NA
ATOM      3  C   UNL     1       2.826  -1.538   4.766  0.00  0.00    +0.135 A 
ATOM      4  C   UNL     1       2.454  -1.364   6.088  0.00  0.00    +0.069 A 
ATOM      5  C   UNL     1       1.224  -0.760   6.369  0.00  0.00    +0.258 A 
ATOM      6  O   UNL     1       0.865  -0.588   7.524  0.00  0.00    -0.267 OA
ATOM      7  N   UNL     1       0.444  -0.365   5.341  0.00  0.00    -0.302 N 
ATOM      8  C   UNL     1       3.349  -1.818   7.203  0.00  0.00    +0.096 C 
ATOM      9  C   UNL     1       4.760  -2.036   6.720  0.00  0.00    +0.024 C 
ATOM     10  C   UNL     1       5.035  -2.184   5.407  0.00  0.00    +0.017 C 
ATOM     11  N   UNL     1       4.040  -2.126   4.469  0.00  0.00    -0.302 N 
ATOM     12  C   UNL     1       6.447  -2.425   4.931  0.00  0.00    +0.058 C 
ATOM     13  C   UNL     1       7.432  -1.730   5.873  0.00  0.00    -0.023 C 
ATOM     14  C   UNL     1       7.221  -2.281   7.287  0.00  0.00    +0.086 C 
ATOM     15  C   UNL     1       5.784  -2.078   7.682  0.00  0.00    +0.162 C 
ATOM     16  O   UNL     1       5.503  -1.948   8.857  0.00  0.00    -0.292 OA
ATOM     17  C   UNL     1       8.866  -2.012   5.419  0.00  0.00    +0.011 C 
ATOM     18  C   UNL     1       7.176  -0.221   5.865  0.00  0.00    +0.011 C 
ATOM     19  H   UNL     1       4.188  -2.501   3.587  0.00  0.00    +0.153 HD
ATOM     20  H   UNL     1      -0.410   0.060   5.516  0.00  0.00    +0.171 HD
ENDROOT
BRANCH   8  21
ATOM     21  C   UNL     1       2.817  -3.110   7.767  0.00  0.00    +0.010 A 
ATOM     22  C   UNL     1       2.703  -4.223   6.955  0.00  0.00    +0.057 A 
ATOM     23  C   UNL     1       2.215  -5.412   7.471  0.00  0.00    +0.162 A 
ATOM     24  C   UNL     1       1.839  -5.486   8.809  0.00  0.00    +0.165 A 
ATOM     25  C   UNL     1       1.954  -4.370   9.622  0.00  0.00    +0.095 A 
ATOM     26  C   UNL     1       2.448  -3.183   9.102  0.00  0.00    +0.128 A 
BRANCH  26  27
ATOM     27  O   UNL     1       2.566  -2.089   9.900  0.00  0.00    -0.495 OA
ATOM     28  C   UNL     1       2.168  -2.235  11.265  0.00  0.00    +0.277 C 
ENDBRANCH  26  27
BRANCH  24  29
ATOM     29  O   UNL     1       1.359  -6.652   9.318  0.00  0.00    -0.491 OA
ATOM     30  C   UNL     1       0.993  -6.655  10.699  0.00  0.00    +0.277 C 
ENDBRANCH  24  29
BRANCH  23  31
ATOM     31  O   UNL     1       2.103  -6.506   6.671  0.00  0.00    -0.491 OA
ATOM     32  C   UNL     1       2.506  -6.358   5.308  0.00  0.00    +0.277 C 
ENDBRANCH  23  31
ENDBRANCH   8  21
BRANCH   1  33
ATOM     33  S   UNL     1      -0.187  -0.052   2.730  0.00  0.00    -0.085 S 
BRANCH  33  34
ATOM     34  C   UNL     1       0.742  -0.511   1.242  0.00  0.00    +0.051 C 
ATOM     35  C   UNL     1       0.872  -2.034   1.171  0.00  0.00    +0.019 C 
BRANCH  34  37
ATOM     36  C   UNL     1      -0.019   1.526   0.010  0.00  0.00    +0.005 C 
ATOM     37  C   UNL     1       0.002  -0.004   0.002  0.00  0.00    +0.011 C 
ENDBRANCH  34  37
ENDBRANCH  33  34
ENDBRANCH   1  33
TORSDOF 7
