REMARK  Name = ZINC14974131
REMARK  6 active torsions:
REMARK  status: ('A' for Active; 'I' for Inactive)
REMARK    1  A    between atoms: C_1  and  C_2
REMARK    2  A    between atoms: C_2  and  C_9
REMARK    3  A    between atoms: C_14  and  C_15
REMARK    4  A    between atoms: C_14  and  N_59
REMARK    5  A    between atoms: N_17  and  C_26
REMARK    6  A    between atoms: C_19  and  C_20
REMARK                            x       y       z     vdW  Elec       q    Type
REMARK                         _______ _______ _______ _____ _____    ______ ____
ROOT
ATOM      1  C   UNL     1       1.763   3.207   0.002  0.00  0.00    -0.039 C 
ENDROOT
BRANCH   1   7
ATOM      2  C   UNL     1       2.707   4.692   3.899  0.00  0.00    +0.018 C 
ATOM      3  C   UNL     1       2.116   5.642   2.853  0.00  0.00    -0.013 C 
ATOM      4  C   UNL     1       2.336   5.056   1.457  0.00  0.00    -0.078 C 
ATOM      5  C   UNL     1       2.275   2.797   2.332  0.00  0.00    -0.078 C 
ATOM      6  C   UNL     1       2.052   3.315   3.755  0.00  0.00    -0.013 C 
ATOM      7  N   UNL     1       1.662   3.742   1.375  0.00  0.00    +0.382 N 
ATOM      8  H   UNL     1       0.670   3.862   1.614  0.00  0.00    -0.081 HD
BRANCH   2  10
ATOM      9  C   UNL     1       0.949   5.556   5.476  0.00  0.00    +0.042 C 
ATOM     10  C   UNL     1       2.436   5.243   5.301  0.00  0.00    +0.112 C 
ATOM     11  C   UNL     1       2.902   4.262   6.358  0.00  0.00    +0.244 C 
ATOM     12  O   UNL     1       2.503   3.131   6.535  0.00  0.00    -0.273 OA
ATOM     13  N   UNL     1       3.853   4.909   7.061  0.00  0.00    -0.238 N 
ATOM     14  C   UNL     1       4.050   6.149   6.599  0.00  0.00    +0.307 C 
ATOM     15  O   UNL     1       4.858   6.926   7.071  0.00  0.00    -0.252 OA
ATOM     16  N   UNL     1       3.255   6.441   5.554  0.00  0.00    -0.285 N 
ATOM     17  H   UNL     1       4.335   4.524   7.809  0.00  0.00    +0.159 HD
ATOM     18  H   UNL     1       3.226   7.277   5.063  0.00  0.00    +0.151 HD
ENDBRANCH   2  10
ENDBRANCH   1   7
BRANCH   1  19
ATOM     19  C   UNL     1       1.317   1.768  -0.001  0.00  0.00    -0.018 A 
ATOM     20  C   UNL     1       2.126   0.685  -0.015  0.00  0.00    +0.116 A 
ATOM     21  N   UNL     1       1.339  -0.422  -0.013  0.00  0.00    -0.239 N 
ATOM     22  N   UNL     1       0.002  -0.004   0.002  0.00  0.00    -0.166 NA
ATOM     23  C   UNL     1      -0.016   1.312   0.009  0.00  0.00    +0.094 A 
BRANCH  23  24
ATOM     24  C   UNL     1      -1.228   2.167   0.020  0.00  0.00    +0.002 A 
ATOM     25  C   UNL     1      -1.229   3.371   0.722  0.00  0.00    +0.010 A 
ATOM     26  C   UNL     1      -2.358   4.165   0.724  0.00  0.00    +0.001 A 
ATOM     27  C   UNL     1      -3.491   3.762   0.040  0.00  0.00    +0.000 A 
ATOM     28  C   UNL     1      -3.498   2.566  -0.654  0.00  0.00    +0.001 A 
ATOM     29  C   UNL     1      -2.373   1.767  -0.667  0.00  0.00    +0.010 A 
ENDBRANCH  23  24
BRANCH  21  30
ATOM     30  C   UNL     1       1.786  -1.750  -0.024  0.00  0.00    +0.065 A 
ATOM     31  C   UNL     1       3.147  -2.026  -0.043  0.00  0.00    +0.028 A 
ATOM     32  C   UNL     1       3.585  -3.335  -0.049  0.00  0.00    +0.002 A 
ATOM     33  C   UNL     1       2.670  -4.372  -0.046  0.00  0.00    +0.000 A 
ATOM     34  C   UNL     1       1.314  -4.101  -0.031  0.00  0.00    +0.002 A 
ATOM     35  C   UNL     1       0.870  -2.793  -0.020  0.00  0.00    +0.028 A 
ENDBRANCH  21  30
ENDBRANCH   1  19
TORSDOF 5
