REMARK  Name = ZINC08718655
REMARK  6 active torsions:
REMARK  status: ('A' for Active; 'I' for Inactive)
REMARK    1  A    between atoms: C_1  and  C_2
REMARK    2  A    between atoms: C_2  and  C_20
REMARK    3  A    between atoms: N_5  and  C_9
REMARK    4  A    between atoms: C_9  and  C_10
REMARK    5  A    between atoms: N_12  and  C_13
REMARK    6  A    between atoms: C_14  and  C_18
REMARK                            x       y       z     vdW  Elec       q    Type
REMARK                         _______ _______ _______ _____ _____    ______ ____
ROOT
ATOM      1  C   UNL     1      -3.401   1.408  -1.128  0.00  0.00    +0.047 C 
ATOM      2  C   UNL     1      -2.497   0.952   0.019  0.00  0.00    +0.136 C 
ATOM      3  C   UNL     1      -3.223   1.048   1.346  0.00  0.00    +0.251 C 
ATOM      4  O   UNL     1      -3.669   2.049   1.866  0.00  0.00    -0.272 OA
ATOM      5  N   UNL     1      -3.269  -0.209   1.828  0.00  0.00    -0.215 N 
ATOM      6  C   UNL     1      -2.679  -1.078   0.999  0.00  0.00    +0.310 C 
ATOM      7  O   UNL     1      -2.595  -2.271   1.218  0.00  0.00    -0.252 OA
ATOM      8  N   UNL     1      -2.189  -0.484  -0.104  0.00  0.00    -0.281 N 
ATOM      9  H   UNL     1      -1.724  -0.916  -0.837  0.00  0.00    +0.152 HD
ENDROOT
BRANCH   2  10
ATOM     10  C   UNL     1      -1.228   1.765   0.049  0.00  0.00    -0.008 A 
ATOM     11  C   UNL     1      -0.019   1.152  -0.075  0.00  0.00    +0.007 A 
ATOM     12  C   UNL     1       1.163   1.888  -0.056  0.00  0.00    +0.001 A 
ATOM     13  C   UNL     1       1.145   3.241   0.093  0.00  0.00    +0.008 A 
ATOM     14  C   UNL     1      -0.084   3.909   0.229  0.00  0.00    -0.018 A 
ATOM     15  C   UNL     1      -1.288   3.160   0.210  0.00  0.00    -0.012 A 
ATOM     16  C   UNL     1      -2.517   3.827   0.346  0.00  0.00    +0.009 A 
ATOM     17  C   UNL     1      -2.536   5.180   0.494  0.00  0.00    +0.001 A 
ATOM     18  C   UNL     1      -1.352   5.916   0.513  0.00  0.00    +0.001 A 
ATOM     19  C   UNL     1      -0.144   5.304   0.384  0.00  0.00    +0.008 A 
ENDBRANCH   2  10
BRANCH   5  20
ATOM     20  C   UNL     1      -3.889  -0.580   3.103  0.00  0.00    +0.214 C 
BRANCH  20  21
ATOM     21  C   UNL     1      -2.861  -0.497   4.203  0.00  0.00    +0.236 C 
ATOM     22  O   UNL     1      -1.724  -0.163   3.947  0.00  0.00    -0.274 OA
ATOM     23  N   UNL     1      -3.207  -0.796   5.471  0.00  0.00    -0.278 N 
ATOM     24  H   UNL     1      -4.116  -1.064   5.676  0.00  0.00    +0.155 HD
BRANCH  23  25
ATOM     25  C   UNL     1      -2.261  -0.721   6.484  0.00  0.00    +0.089 A 
ATOM     26  C   UNL     1      -2.424  -0.981   7.839  0.00  0.00    +0.080 A 
ATOM     27  C   UNL     1      -1.260  -0.825   8.676  0.00  0.00    +0.028 A 
ATOM     28  C   UNL     1      -0.120  -0.432   8.076  0.00  0.00    +0.048 A 
ATOM     29  S   UNL     1      -0.593  -0.272   6.367  0.00  0.00    -0.081 S 
BRANCH  26  30
ATOM     30  C   UNL     1      -3.687  -1.388   8.378  0.00  0.00    +0.102 C 
ATOM     31  N   UNL     1      -4.689  -1.711   8.805  0.00  0.00    -0.191 NA
ENDBRANCH  26  30
ENDBRANCH  23  25
ENDBRANCH  20  21
ENDBRANCH   5  20
TORSDOF 5
