REMARK  Name = ZINC13102218
REMARK  8 active torsions:
REMARK  status: ('A' for Active; 'I' for Inactive)
REMARK    1  A    between atoms: C_1  and  S_2
REMARK    2  A    between atoms: S_2  and  C_5
REMARK    3  A    between atoms: C_8  and  C_14
REMARK    4  A    between atoms: C_10  and  N_11
REMARK    5  A    between atoms: C_14  and  O_16
REMARK    6  A    between atoms: O_16  and  C_17
REMARK    7  A    between atoms: C_17  and  C_18
REMARK    8  A    between atoms: C_29  and  C_31
REMARK                            x       y       z     vdW  Elec       q    Type
REMARK                         _______ _______ _______ _____ _____    ______ ____
ROOT
ATOM      1  C   UNL     1       2.729  -0.541  -1.707  0.00  0.00    +0.258 C 
ATOM      2  O   UNL     1       3.620   0.054  -2.276  0.00  0.00    -0.271 OA
ATOM      3  N   UNL     1       1.903   0.120  -0.873  0.00  0.00    -0.259 N 
ATOM      4  C   UNL     1       0.703  -0.492  -0.501  0.00  0.00    +0.050 A 
ATOM      5  C   UNL     1       0.230  -1.541  -1.286  0.00  0.00    +0.024 A 
ATOM      6  C   UNL     1      -0.940  -2.192  -0.952  0.00  0.00    +0.002 A 
ATOM      7  C   UNL     1      -1.655  -1.807   0.167  0.00  0.00    +0.001 A 
ATOM      8  C   UNL     1      -1.200  -0.765   0.951  0.00  0.00    +0.016 A 
ATOM      9  C   UNL     1      -0.024  -0.103   0.621  0.00  0.00    +0.029 A 
ATOM     10  S   UNL     1       0.527   1.227   1.641  0.00  0.00    -0.121 S 
ATOM     11  C   UNL     1       2.259   1.451   1.136  0.00  0.00    +0.102 C 
ATOM     12  C   UNL     1       2.302   1.442  -0.400  0.00  0.00    +0.122 C 
ENDROOT
BRANCH  12  13
ATOM     13  C   UNL     1       3.701   1.745  -0.869  0.00  0.00    -0.026 A 
ATOM     14  C   UNL     1       4.772   1.044  -0.346  0.00  0.00    +0.005 A 
ATOM     15  C   UNL     1       6.056   1.319  -0.779  0.00  0.00    +0.000 A 
ATOM     16  C   UNL     1       6.270   2.301  -1.728  0.00  0.00    +0.000 A 
ATOM     17  C   UNL     1       5.200   3.006  -2.247  0.00  0.00    +0.000 A 
ATOM     18  C   UNL     1       3.915   2.728  -1.817  0.00  0.00    +0.005 A 
ENDBRANCH  12  13
BRANCH   1  19
ATOM     19  C   UNL     1       2.548  -2.020  -1.932  0.00  0.00    +0.328 C 
BRANCH  19  20
ATOM     20  O   UNL     1       3.833  -2.625  -2.233  0.00  0.00    -0.452 OA
BRANCH  20  21
ATOM     21  C   UNL     1       3.846  -3.953  -2.461  0.00  0.00    +0.340 C 
ATOM     22  O   UNL     1       2.812  -4.588  -2.411  0.00  0.00    -0.245 OA
BRANCH  21  26
ATOM     23  C   UNL     1       7.502  -5.918  -3.358  0.00  0.00    +0.118 A 
ATOM     24  C   UNL     1       7.493  -4.555  -3.124  0.00  0.00    +0.030 A 
ATOM     25  C   UNL     1       6.308  -3.909  -2.838  0.00  0.00    +0.017 A 
ATOM     26  C   UNL     1       5.118  -4.637  -2.773  0.00  0.00    +0.061 A 
ATOM     27  C   UNL     1       5.134  -6.012  -3.011  0.00  0.00    +0.049 A 
ATOM     28  C   UNL     1       6.326  -6.644  -3.302  0.00  0.00    +0.152 A 
BRANCH  23  30
ATOM     29  C   UNL     1       9.332  -7.809  -2.303  0.00  0.00    +0.200 C 
ATOM     30  S   UNL     1       9.019  -6.734  -3.730  0.00  0.00    -0.004 S 
ATOM     31  O   UNL     1       8.736  -7.518  -4.881  0.00  0.00    -0.170 OA
ATOM     32  O   UNL     1       9.986  -5.695  -3.781  0.00  0.00    -0.170 OA
ENDBRANCH  23  30
BRANCH  28  33
ATOM     33  N   UNL     1       6.345  -8.103  -3.554  0.00  0.00    +0.058 N 
ATOM     34  O   UNL     1       5.299  -8.724  -3.617  0.00  0.00    -0.126 OA
ATOM     35  O   UNL     1       7.407  -8.682  -3.698  0.00  0.00    -0.126 OA
ENDBRANCH  28  33
ENDBRANCH  21  26
ENDBRANCH  20  21
ENDBRANCH  19  20
ENDBRANCH   1  19
TORSDOF 7
