REMARK  Name = ZINC11307688
REMARK  8 active torsions:
REMARK  status: ('A' for Active; 'I' for Inactive)
REMARK    1  A    between atoms: C_1  and  C_2
REMARK    2  A    between atoms: C_6  and  N_8
REMARK    3  A    between atoms: C_9  and  C_25
REMARK    4  A    between atoms: C_12  and  S_13
REMARK    5  A    between atoms: S_13  and  C_14
REMARK    6  A    between atoms: C_14  and  C_15
REMARK    7  A    between atoms: N_19  and  C_24
REMARK    8  A    between atoms: N_22  and  C_23
REMARK                            x       y       z     vdW  Elec       q    Type
REMARK                         _______ _______ _______ _____ _____    ______ ____
ROOT
ATOM      1  N   UNL     1      -0.069   5.244   0.030  0.00  0.00    -0.270 N 
ATOM      2  C   UNL     1      -0.553   6.077  -0.956  0.00  0.00    +0.171 A 
ATOM      3  N   UNL     1      -0.375   7.309  -0.539  0.00  0.00    -0.128 NA
ATOM      4  N   UNL     1       0.179   7.307   0.621  0.00  0.00    -0.122 NA
ATOM      5  C   UNL     1       0.384   6.074   1.022  0.00  0.00    +0.197 A 
ENDROOT
BRANCH   2   6
ATOM      6  C   UNL     1      -1.157   5.662  -2.237  0.00  0.00    +0.045 A 
ATOM      7  C   UNL     1      -1.338   4.388  -2.674  0.00  0.00    +0.095 A 
ATOM      8  N   UNL     1      -1.931   4.404  -3.904  0.00  0.00    -0.360 N 
ATOM      9  H   UNL     1      -2.163   3.614  -4.418  0.00  0.00    +0.165 HD
ATOM     10  C   UNL     1      -2.147   5.702  -4.312  0.00  0.00    +0.047 A 
ATOM     11  C   UNL     1      -1.676   6.548  -3.293  0.00  0.00    +0.010 A 
ATOM     12  C   UNL     1      -1.767   7.931  -3.436  0.00  0.00    +0.011 A 
ATOM     13  C   UNL     1      -2.322   8.463  -4.579  0.00  0.00    +0.001 A 
ATOM     14  C   UNL     1      -2.788   7.629  -5.586  0.00  0.00    +0.002 A 
ATOM     15  C   UNL     1      -2.704   6.260  -5.458  0.00  0.00    +0.026 A 
ENDBRANCH   2   6
BRANCH   1  21
ATOM     16  C   UNL     1       2.490   1.044  -0.015  0.00  0.00    +0.044 C 
ATOM     17  C   UNL     1       1.176   1.782   0.000  0.00  0.00    -0.048 A 
ATOM     18  C   UNL     1      -0.013   1.076   0.008  0.00  0.00    +0.003 A 
ATOM     19  C   UNL     1      -1.220   1.749   0.017  0.00  0.00    +0.002 A 
ATOM     20  C   UNL     1      -1.242   3.131   0.030  0.00  0.00    +0.026 A 
ATOM     21  C   UNL     1      -0.050   3.842   0.022  0.00  0.00    +0.051 A 
ATOM     22  C   UNL     1       1.161   3.163   0.007  0.00  0.00    +0.029 A 
ENDBRANCH   1  21
BRANCH   5  23
ATOM     23  S   UNL     1       1.111   5.578   2.548  0.00  0.00    -0.079 S 
BRANCH  23  24
ATOM     24  C   UNL     1       1.432   7.200   3.285  0.00  0.00    +0.131 C 
BRANCH  24  25
ATOM     25  C   UNL     1       2.072   7.021   4.638  0.00  0.00    +0.038 A 
ATOM     26  C   UNL     1       3.392   7.251   4.799  0.00  0.00    +0.092 A 
ATOM     27  C   UNL     1       3.970   7.079   6.080  0.00  0.00    +0.257 A 
ATOM     28  O   UNL     1       5.157   7.285   6.252  0.00  0.00    -0.268 OA
ATOM     29  N   UNL     1       3.193   6.681   7.108  0.00  0.00    -0.264 N 
ATOM     30  C   UNL     1       1.880   6.453   6.918  0.00  0.00    +0.332 A 
ATOM     31  O   UNL     1       1.192   6.094   7.854  0.00  0.00    -0.246 OA
ATOM     32  N   UNL     1       1.318   6.617   5.706  0.00  0.00    -0.300 N 
ATOM     33  C   UNL     1      -0.114   6.362   5.530  0.00  0.00    +0.154 C 
ATOM     34  C   UNL     1       3.780   6.495   8.437  0.00  0.00    +0.157 C 
ENDBRANCH  24  25
ENDBRANCH  23  24
ENDBRANCH   5  23
TORSDOF 5
