REMARK  Name = ZINC00245919
REMARK  3 active torsions:
REMARK  status: ('A' for Active; 'I' for Inactive)
REMARK    1  A    between atoms: N_9  and  N_12
REMARK    2  A    between atoms: C_13  and  C_14
REMARK    3  A    between atoms: C_17  and  N_20
REMARK                            x       y       z     vdW  Elec       q    Type
REMARK                         _______ _______ _______ _____ _____    ______ ____
ROOT
ATOM      1  C   UNL     1      -1.382   5.807   0.061  0.00  0.00    +0.001 A 
ATOM      2  C   UNL     1      -2.548   5.052   0.061  0.00  0.00    +0.002 A 
ATOM      3  C   UNL     1      -2.497   3.676   0.047  0.00  0.00    +0.028 A 
ATOM      4  C   UNL     1      -1.260   3.030   0.031  0.00  0.00    +0.078 A 
ATOM      5  C   UNL     1      -0.076   3.801   0.031  0.00  0.00    +0.067 A 
ATOM      6  C   UNL     1      -0.149   5.193   0.047  0.00  0.00    +0.015 A 
ATOM      7  C   UNL     1       1.211   3.091   0.015  0.00  0.00    +0.282 A 
ATOM      8  O   UNL     1       2.267   3.696   0.013  0.00  0.00    -0.265 OA
ATOM      9  N   UNL     1       1.176   1.738   0.001  0.00  0.00    -0.185 N 
ATOM     10  C   UNL     1      -0.013   1.076   0.002  0.00  0.00    +0.227 A 
ATOM     11  N   UNL     1      -1.164   1.677   0.012  0.00  0.00    -0.235 NA
ENDROOT
BRANCH   9  12
ATOM     12  N   UNL     1       2.375   1.013  -0.015  0.00  0.00    -0.170 NA
ATOM     13  C   UNL     1       2.351  -0.282   0.076  0.00  0.00    +0.141 C 
BRANCH  13  14
ATOM     14  C   UNL     1       3.614  -1.037   0.171  0.00  0.00    -0.005 A 
ATOM     15  C   UNL     1       4.838  -0.363   0.157  0.00  0.00    +0.012 A 
ATOM     16  C   UNL     1       6.015  -1.076   0.251  0.00  0.00    +0.033 A 
ATOM     17  C   UNL     1       5.986  -2.456   0.348  0.00  0.00    +0.126 A 
ATOM     18  C   UNL     1       4.778  -3.131   0.357  0.00  0.00    +0.033 A 
ATOM     19  C   UNL     1       3.593  -2.431   0.269  0.00  0.00    +0.012 A 
BRANCH  17  20
ATOM     20  N   UNL     1       7.254  -3.215   0.442  0.00  0.00    +0.056 N 
ATOM     21  O   UNL     1       7.232  -4.429   0.528  0.00  0.00    -0.126 OA
ATOM     22  O   UNL     1       8.319  -2.624   0.434  0.00  0.00    -0.126 OA
ENDBRANCH  17  20
ENDBRANCH  13  14
ENDBRANCH   9  12
TORSDOF 3
