REMARK  Name = ZINC66675042
REMARK  5 active torsions:
REMARK  status: ('A' for Active; 'I' for Inactive)
REMARK    1  A    between atoms: C_1  and  C_2
REMARK    2  A    between atoms: C_2  and  N_3
REMARK    3  A    between atoms: N_3  and  C_4
REMARK    4  A    between atoms: C_10  and  C_12
REMARK    5  A    between atoms: C_13  and  C_15
REMARK                            x       y       z     vdW  Elec       q    Type
REMARK                         _______ _______ _______ _____ _____    ______ ____
ROOT
ATOM      1  N   UNL     1       0.749   0.489  -0.601  0.00  0.00    -0.293 N 
ATOM      2  C   UNL     1      -0.100   0.659  -1.633  0.00  0.00    +0.263 C 
ATOM      3  O   UNL     1      -1.288   0.814  -1.425  0.00  0.00    -0.268 OA
ENDROOT
BRANCH   2   4
ATOM      4  C   UNL     1       0.412   0.658  -3.016  0.00  0.00    +0.105 A 
ATOM      5  C   UNL     1      -0.358   1.182  -4.002  0.00  0.00    +0.039 A 
ATOM      6  C   UNL     1       0.140   1.186  -5.378  0.00  0.00    -0.011 A 
ATOM      7  C   UNL     1      -0.610   1.712  -6.430  0.00  0.00    +0.009 A 
ATOM      8  C   UNL     1      -0.095   1.693  -7.708  0.00  0.00    +0.001 A 
ATOM      9  C   UNL     1       1.160   1.155  -7.958  0.00  0.00    +0.001 A 
ATOM     10  C   UNL     1       1.919   0.630  -6.934  0.00  0.00    +0.014 A 
ATOM     11  C   UNL     1       1.419   0.639  -5.633  0.00  0.00    +0.046 A 
ATOM     12  C   UNL     1       2.187   0.093  -4.505  0.00  0.00    +0.257 A 
ATOM     13  O   UNL     1       3.291  -0.385  -4.689  0.00  0.00    -0.267 OA
ATOM     14  N   UNL     1       1.660   0.130  -3.266  0.00  0.00    -0.318 N 
ATOM     15  H   UNL     1       2.174  -0.229  -2.526  0.00  0.00    +0.169 HD
ENDBRANCH   2   4
BRANCH   1  16
ATOM     16  C   UNL     1       2.136   0.089  -0.851  0.00  0.00    +0.079 C 
ATOM     17  C   UNL     1       2.852   1.192  -1.632  0.00  0.00    +0.023 C 
ATOM     18  C   UNL     1       2.834   2.488  -0.818  0.00  0.00    +0.002 C 
ATOM     19  C   UNL     1       3.548   2.262   0.516  0.00  0.00    +0.000 C 
ATOM     20  C   UNL     1       2.832   1.159   1.297  0.00  0.00    +0.005 C 
ATOM     21  C   UNL     1       2.850  -0.137   0.484  0.00  0.00    +0.006 C 
ATOM     22  C   UNL     1       2.134  -1.240   1.265  0.00  0.00    +0.009 C 
ENDBRANCH   1  16
BRANCH   1  24
ATOM     23  C   UNL     1       0.152   2.206   1.036  0.00  0.00    +0.024 C 
ATOM     24  C   UNL     1       0.285   0.705   0.772  0.00  0.00    +0.105 C 
ENDBRANCH   1  24
TORSDOF 3
