REMARK  Name = ZINC09934534
REMARK  8 active torsions:
REMARK  status: ('A' for Active; 'I' for Inactive)
REMARK    1  A    between atoms: C_1  and  C_2
REMARK    2  A    between atoms: C_4  and  C_29
REMARK    3  A    between atoms: N_8  and  S_9
REMARK    4  A    between atoms: S_9  and  C_12
REMARK    5  A    between atoms: C_15  and  N_18
REMARK    6  A    between atoms: N_18  and  C_19
REMARK    7  A    between atoms: C_19  and  C_20
REMARK    8  A    between atoms: C_25  and  O_26
REMARK                            x       y       z     vdW  Elec       q    Type
REMARK                         _______ _______ _______ _____ _____    ______ ____
ROOT
ATOM      1  C   UNL     1      -0.017   1.379   0.010  0.00  0.00    +0.109 A 
ATOM      2  C   UNL     1       1.169   2.089   0.002  0.00  0.00    +0.030 A 
ATOM      3  C   UNL     1       2.377   1.420  -0.013  0.00  0.00    +0.025 A 
ATOM      4  C   UNL     1       2.400   0.031  -0.021  0.00  0.00    +0.027 A 
ATOM      5  C   UNL     1       1.206  -0.680  -0.013  0.00  0.00    +0.025 A 
ATOM      6  C   UNL     1       0.002  -0.004   0.002  0.00  0.00    +0.030 A 
ENDROOT
BRANCH   1   7
ATOM      7  S   UNL     1      -1.556   2.237   0.022  0.00  0.00    +0.075 S 
ATOM      8  O   UNL     1      -1.306   3.525  -0.523  0.00  0.00    -0.150 OA
ATOM      9  O   UNL     1      -2.519   1.350  -0.529  0.00  0.00    -0.150 OA
BRANCH   7  17
ATOM     10  C   UNL     1       2.170   4.765   2.309  0.00  0.00    +0.066 C 
ATOM     11  C   UNL     1       0.787   4.384   2.771  0.00  0.00    +0.044 A 
ATOM     12  C   UNL     1       0.304   4.838   3.988  0.00  0.00    +0.046 A 
ATOM     13  C   UNL     1      -0.974   4.466   4.375  0.00  0.00    +0.044 A 
ATOM     14  N   UNL     1      -1.690   3.692   3.576  0.00  0.00    -0.219 NA
ATOM     15  C   UNL     1      -1.199   3.275   2.418  0.00  0.00    +0.235 A 
ATOM     16  N   UNL     1       0.021   3.609   2.022  0.00  0.00    -0.219 NA
ATOM     17  N   UNL     1      -1.976   2.467   1.607  0.00  0.00    -0.184 N 
ATOM     18  C   UNL     1      -1.540   4.936   5.690  0.00  0.00    +0.066 C 
ATOM     19  H   UNL     1      -2.766   2.035   1.967  0.00  0.00    +0.177 HD
ENDBRANCH   7  17
ENDBRANCH   1   7
BRANCH   4  20
ATOM     20  N   UNL     1       3.620  -0.649  -0.036  0.00  0.00    -0.340 N 
ATOM     21  H   UNL     1       3.634  -1.619  -0.041  0.00  0.00    +0.146 HD
BRANCH  20  22
ATOM     22  C   UNL     1       4.877   0.102  -0.044  0.00  0.00    +0.140 C 
BRANCH  22  23
ATOM     23  C   UNL     1       6.037  -0.860  -0.059  0.00  0.00    +0.014 A 
ATOM     24  C   UNL     1       6.713  -1.147   1.111  0.00  0.00    +0.028 A 
ATOM     25  C   UNL     1       7.777  -2.030   1.098  0.00  0.00    +0.043 A 
ATOM     26  C   UNL     1       8.168  -2.628  -0.087  0.00  0.00    +0.043 A 
ATOM     27  C   UNL     1       7.495  -2.344  -1.260  0.00  0.00    +0.084 A 
ATOM     28  C   UNL     1       6.423  -1.462  -1.248  0.00  0.00    +0.140 A 
ATOM     29 CL   UNL     1       7.985  -3.094  -2.747  0.00  0.00    -0.080 Cl
ATOM     30 CL   UNL     1       8.624  -2.390   2.571  0.00  0.00    -0.083 Cl
BRANCH  28  31
ATOM     31  O   UNL     1       5.756  -1.184  -2.399  0.00  0.00    -0.505 OA
ATOM     32  H   UNL     1       6.116  -0.434  -2.892  0.00  0.00    +0.292 HD
ENDBRANCH  28  31
ENDBRANCH  22  23
ENDBRANCH  20  22
ENDBRANCH   4  20
TORSDOF 6
