REMARK  Name = ZINC40476366
REMARK  12 active torsions:
REMARK  status: ('A' for Active; 'I' for Inactive)
REMARK    1  A    between atoms: C_1  and  C_2
REMARK    2  A    between atoms: C_2  and  C_3
REMARK    3  A    between atoms: C_3  and  C_4
REMARK    4  A    between atoms: C_4  and  C_5
REMARK    5  A    between atoms: C_5  and  S_6
REMARK    6  A    between atoms: S_6  and  C_7
REMARK    7  A    between atoms: C_18  and  C_20
REMARK    8  A    between atoms: C_23  and  O_26
REMARK    9  A    between atoms: O_26  and  C_27
REMARK   10  A    between atoms: C_27  and  C_28
REMARK   11  A    between atoms: C_37  and  C_39
REMARK   12  A    between atoms: C_37  and  C_40
REMARK                            x       y       z     vdW  Elec       q    Type
REMARK                         _______ _______ _______ _____ _____    ______ ____
ROOT
ATOM      1  C   UNL     1       2.326  -4.741  -4.025  0.00  0.00    +0.171 A 
ATOM      2  N   UNL     1       2.516  -6.051  -4.348  0.00  0.00    -0.302 N 
ATOM      3  H   UNL     1       2.184  -6.747  -3.761  0.00  0.00    +0.171 HD
ATOM      4  C   UNL     1       3.164  -6.381  -5.485  0.00  0.00    +0.258 A 
ATOM      5  O   UNL     1       3.342  -7.551  -5.783  0.00  0.00    -0.267 OA
ATOM      6  C   UNL     1       3.630  -5.356  -6.317  0.00  0.00    +0.069 A 
ATOM      7  C   UNL     1       3.408  -4.041  -5.944  0.00  0.00    +0.135 A 
ATOM      8  N   UNL     1       2.757  -3.772  -4.807  0.00  0.00    -0.208 NA
ATOM      9  N   UNL     1       3.853  -3.016  -6.755  0.00  0.00    -0.302 N 
ATOM     10  C   UNL     1       4.151  -3.246  -8.070  0.00  0.00    +0.017 C 
ATOM     11  C   UNL     1       4.393  -4.496  -8.518  0.00  0.00    +0.024 C 
ATOM     12  C   UNL     1       4.359  -5.681  -7.586  0.00  0.00    +0.092 C 
ATOM     13  C   UNL     1       4.684  -4.736  -9.873  0.00  0.00    +0.162 C 
ATOM     14  O   UNL     1       4.905  -5.872 -10.242  0.00  0.00    -0.292 OA
ATOM     15  C   UNL     1       4.728  -3.614 -10.874  0.00  0.00    +0.086 C 
ATOM     16  C   UNL     1       3.787  -2.497 -10.411  0.00  0.00    -0.023 C 
ATOM     17  C   UNL     1       4.207  -2.062  -9.005  0.00  0.00    +0.058 C 
ATOM     18  C   UNL     1       2.348  -3.015 -10.381  0.00  0.00    +0.011 C 
ATOM     19  C   UNL     1       3.891  -1.308 -11.369  0.00  0.00    +0.011 C 
ATOM     20  H   UNL     1       3.954  -2.123  -6.389  0.00  0.00    +0.153 HD
ENDROOT
BRANCH  12  21
ATOM     21  C   UNL     1       5.771  -6.087  -7.254  0.00  0.00    -0.035 A 
ATOM     22  C   UNL     1       6.606  -5.205  -6.593  0.00  0.00    +0.008 A 
ATOM     23  C   UNL     1       7.902  -5.575  -6.288  0.00  0.00    +0.046 A 
ATOM     24  C   UNL     1       8.364  -6.834  -6.644  0.00  0.00    +0.121 A 
ATOM     25  C   UNL     1       7.524  -7.717  -7.306  0.00  0.00    +0.046 A 
ATOM     26  C   UNL     1       6.228  -7.344  -7.605  0.00  0.00    +0.008 A 
BRANCH  24  27
ATOM     27  O   UNL     1       9.638  -7.200  -6.345  0.00  0.00    -0.487 OA
BRANCH  27  28
ATOM     28  C   UNL     1      10.047  -8.511  -6.742  0.00  0.00    +0.264 C 
BRANCH  28  29
ATOM     29  C   UNL     1      11.478  -8.738  -6.330  0.00  0.00    -0.010 A 
ATOM     30  C   UNL     1      12.507  -8.402  -7.191  0.00  0.00    +0.007 A 
ATOM     31  C   UNL     1      13.820  -8.610  -6.812  0.00  0.00    +0.000 A 
ATOM     32  C   UNL     1      14.105  -9.153  -5.574  0.00  0.00    +0.000 A 
ATOM     33  C   UNL     1      13.076  -9.488  -4.713  0.00  0.00    +0.000 A 
ATOM     34  C   UNL     1      11.763  -9.276  -5.089  0.00  0.00    +0.007 A 
ENDBRANCH  28  29
ENDBRANCH  27  28
ENDBRANCH  24  27
ENDBRANCH  12  21
BRANCH   1  35
ATOM     35  S   UNL     1       1.480  -4.335  -2.534  0.00  0.00    -0.088 S 
BRANCH  35  36
ATOM     36  C   UNL     1       1.455  -2.521  -2.524  0.00  0.00    +0.077 C 
BRANCH  36  37
ATOM     37  C   UNL     1       0.739  -2.027  -1.265  0.00  0.00    +0.011 C 
BRANCH  37  38
ATOM     38  C   UNL     1       0.718  -0.497  -1.257  0.00  0.00    +0.001 C 
BRANCH  38  40
ATOM     39  C   UNL     1      -0.019   1.526   0.010  0.00  0.00    +0.004 C 
ATOM     40  C   UNL     1       0.002  -0.004   0.002  0.00  0.00    -0.003 C 
ENDBRANCH  38  40
ENDBRANCH  37  38
ENDBRANCH  36  37
ENDBRANCH  35  36
ENDBRANCH   1  35
TORSDOF 9
