REMARK  Name = ZINC08790657
REMARK  7 active torsions:
REMARK  status: ('A' for Active; 'I' for Inactive)
REMARK    1  A    between atoms: C_1  and  C_2
REMARK    2  A    between atoms: C_2  and  C_3
REMARK    3  A    between atoms: C_17  and  C_19
REMARK    4  A    between atoms: C_19  and  C_20
REMARK    5  A    between atoms: C_20  and  C_21
REMARK    6  A    between atoms: N_26  and  C_29
REMARK    7  A    between atoms: C_29  and  C_30
REMARK                            x       y       z     vdW  Elec       q    Type
REMARK                         _______ _______ _______ _____ _____    ______ ____
ROOT
ATOM      1  C   UNL     1       3.189   5.182   5.307  0.00  0.00    -0.026 A 
ATOM      2  C   UNL     1       2.952   5.252   3.950  0.00  0.00    +0.005 A 
ATOM      3  C   UNL     1       2.991   4.108   3.175  0.00  0.00    +0.001 A 
ATOM      4  C   UNL     1       3.268   2.886   3.763  0.00  0.00    +0.004 A 
ATOM      5  C   UNL     1       3.504   2.811   5.117  0.00  0.00    -0.027 A 
ATOM      6  C   UNL     1       3.469   3.957   5.907  0.00  0.00    +0.039 A 
ATOM      7  N   UNL     1       3.739   3.634   7.239  0.00  0.00    -0.286 N 
ATOM      8  C   UNL     1       3.959   2.316   7.407  0.00  0.00    +0.211 C 
ATOM      9  O   UNL     1       4.216   1.752   8.450  0.00  0.00    -0.277 OA
ATOM     10  C   UNL     1       3.824   1.679   6.051  0.00  0.00    +0.050 C 
ATOM     11  C   UNL     1       5.113   0.957   5.641  0.00  0.00    +0.088 C 
ATOM     12  C   UNL     1       4.854  -0.535   5.995  0.00  0.00    +0.073 C 
ATOM     13  C   UNL     1       3.431  -0.559   6.591  0.00  0.00    -0.057 C 
ATOM     14  C   UNL     1       4.841  -1.216   4.646  0.00  0.00    +0.224 C 
ATOM     15  O   UNL     1       4.662  -2.401   4.461  0.00  0.00    -0.275 OA
ATOM     16  N   UNL     1       5.059  -0.309   3.687  0.00  0.00    -0.237 N 
ATOM     17  C   UNL     1       5.234   0.940   4.133  0.00  0.00    +0.225 C 
ATOM     18  O   UNL     1       5.451   1.908   3.438  0.00  0.00    -0.275 OA
ATOM     19  H   UNL     1       3.766   4.283   7.959  0.00  0.00    +0.155 HD
ATOM     20  N   UNL     1       2.801   0.649   6.053  0.00  0.00    +0.394 N 
ATOM     21  H   UNL     1       2.466   0.479   5.098  0.00  0.00    -0.083 HD
ATOM     22  H   UNL     1       2.013   0.932   6.647  0.00  0.00    -0.083 HD
ENDROOT
BRANCH   1  24
ATOM     23  C   UNL     1       4.560   6.998   6.293  0.00  0.00    +0.009 C 
ATOM     24  C   UNL     1       3.145   6.435   6.143  0.00  0.00    +0.033 C 
ENDBRANCH   1  24
BRANCH  13  25
ATOM     25  C   UNL     1       2.689  -1.821   6.147  0.00  0.00    -0.006 C 
BRANCH  25  26
ATOM     26  C   UNL     1       1.331  -1.888   6.847  0.00  0.00    +0.094 C 
BRANCH  26  27
ATOM     27  C   UNL     1       0.600  -3.131   6.410  0.00  0.00    +0.210 C 
ATOM     28  O   UNL     1       1.115  -3.889   5.616  0.00  0.00    -0.276 OA
ATOM     29  N   UNL     1      -0.626  -3.400   6.900  0.00  0.00    -0.329 N 
ATOM     30  H   UNL     1      -1.038  -2.793   7.535  0.00  0.00    +0.145 HD
ATOM     31  H   UNL     1      -1.097  -4.200   6.619  0.00  0.00    +0.145 HD
ENDBRANCH  26  27
ENDBRANCH  25  26
ENDBRANCH  13  25
BRANCH  16  32
ATOM     32  C   UNL     1       5.107  -0.656   2.264  0.00  0.00    +0.151 C 
BRANCH  32  33
ATOM     33  C   UNL     1       3.725  -0.548   1.673  0.00  0.00    -0.026 A 
ATOM     34  C   UNL     1       2.886  -1.647   1.675  0.00  0.00    +0.009 A 
ATOM     35  C   UNL     1       1.617  -1.553   1.135  0.00  0.00    +0.050 A 
ATOM     36  C   UNL     1       1.183  -0.356   0.589  0.00  0.00    +0.166 A 
ATOM     37  C   UNL     1       2.028   0.751   0.586  0.00  0.00    +0.167 A 
ATOM     38  C   UNL     1       3.299   0.650   1.130  0.00  0.00    +0.054 A 
ATOM     39  O   UNL     1       1.376   1.797  -0.001  0.00  0.00    -0.453 OA
ATOM     40  C   UNL     1      -0.018   1.436   0.010  0.00  0.00    +0.466 C 
ATOM     41  O   UNL     1       0.002  -0.004   0.002  0.00  0.00    -0.453 OA
ENDBRANCH  32  33
ENDBRANCH  16  32
TORSDOF 6
