REMARK  Name = ZINC18102593
REMARK  15 active torsions:
REMARK  status: ('A' for Active; 'I' for Inactive)
REMARK    1  A    between atoms: C_1  and  C_2
REMARK    2  A    between atoms: C_2  and  N_3
REMARK    3  A    between atoms: N_3  and  C_4
REMARK    4  A    between atoms: N_3  and  S_6
REMARK    5  A    between atoms: C_4  and  C_5
REMARK    6  A    between atoms: S_6  and  C_9
REMARK    7  A    between atoms: C_12  and  C_33
REMARK    8  A    between atoms: C_13  and  C_15
REMARK    9  A    between atoms: N_17  and  N_18
REMARK   10  A    between atoms: C_19  and  C_21
REMARK   11  A    between atoms: C_21  and  C_23
REMARK   12  A    between atoms: C_21  and  O_24
REMARK   13  A    between atoms: O_24  and  C_25
REMARK   14  A    between atoms: C_29  and  C_32
REMARK   15  A    between atoms: C_30  and  C_31
REMARK                            x       y       z     vdW  Elec       q    Type
REMARK                         _______ _______ _______ _____ _____    ______ ____
ROOT
ATOM      1  C   UNL     1       2.613   4.159   0.027  0.00  0.00    +0.260 C 
ATOM      2  O   UNL     1       3.622   3.521  -0.200  0.00  0.00    -0.269 OA
ATOM      3  N   UNL     1       2.605   5.495  -0.154  0.00  0.00    -0.230 N 
ATOM      4  H   UNL     1       1.799   6.004   0.027  0.00  0.00    +0.173 HD
ENDROOT
BRANCH   1   9
ATOM      5  C   UNL     1      -0.937   3.527   1.077  0.00  0.00    +0.106 A 
ATOM      6  C   UNL     1      -0.891   2.178   1.383  0.00  0.00    +0.029 A 
ATOM      7  C   UNL     1       0.293   1.474   1.258  0.00  0.00    +0.006 A 
ATOM      8  C   UNL     1       1.434   2.111   0.816  0.00  0.00    -0.038 A 
ATOM      9  C   UNL     1       1.393   3.470   0.501  0.00  0.00    +0.043 A 
ATOM     10  C   UNL     1       0.197   4.176   0.635  0.00  0.00    +0.042 A 
ATOM     11  C   UNL     1       2.722   1.341   0.674  0.00  0.00    +0.044 C 
BRANCH   5  12
ATOM     12  S   UNL     1      -2.449   4.416   1.247  0.00  0.00    +0.061 S 
ATOM     13  O   UNL     1      -3.232   3.708   2.198  0.00  0.00    -0.153 OA
ATOM     14  O   UNL     1      -2.100   5.783   1.414  0.00  0.00    -0.153 OA
BRANCH  12  15
ATOM     15  N   UNL     1      -3.247   4.305  -0.200  0.00  0.00    -0.177 NA
BRANCH  15  17
ATOM     16  C   UNL     1      -5.601   3.647  -0.106  0.00  0.00    +0.022 C 
ATOM     17  C   UNL     1      -4.177   3.199  -0.441  0.00  0.00    +0.106 C 
ENDBRANCH  15  17
BRANCH  15  18
ATOM     18  C   UNL     1      -3.024   5.313  -1.239  0.00  0.00    +0.106 C 
ATOM     19  C   UNL     1      -1.950   4.816  -2.209  0.00  0.00    +0.022 C 
ENDBRANCH  15  18
ENDBRANCH  12  15
ENDBRANCH   5  12
ENDBRANCH   1   9
BRANCH   3  20
ATOM     20  N   UNL     1       3.760   6.148  -0.603  0.00  0.00    -0.231 N 
ATOM     21  C   UNL     1       3.752   7.483  -0.784  0.00  0.00    +0.270 C 
ATOM     22  O   UNL     1       2.745   8.120  -0.557  0.00  0.00    -0.270 OA
ATOM     23  H   UNL     1       4.566   5.639  -0.784  0.00  0.00    +0.173 HD
BRANCH  21  24
ATOM     24  C   UNL     1       4.995   8.186  -1.267  0.00  0.00    +0.257 C 
ATOM     25  C   UNL     1       6.132   7.955  -0.270  0.00  0.00    +0.062 C 
BRANCH  24  26
ATOM     26  O   UNL     1       4.737   9.587  -1.379  0.00  0.00    -0.480 OA
BRANCH  26  27
ATOM     27  C   UNL     1       5.500  10.286  -2.259  0.00  0.00    +0.125 A 
ATOM     28  C   UNL     1       6.554   9.664  -2.913  0.00  0.00    +0.046 A 
ATOM     29  C   UNL     1       7.324  10.375  -3.812  0.00  0.00    +0.004 A 
ATOM     30  C   UNL     1       7.054  11.710  -4.051  0.00  0.00    +0.004 A 
ATOM     31  C   UNL     1       6.009  12.334  -3.397  0.00  0.00    -0.044 A 
ATOM     32  C   UNL     1       5.231  11.625  -2.501  0.00  0.00    -0.006 A 
ATOM     33  C   UNL     1       4.091  12.306  -1.788  0.00  0.00    +0.048 C 
ATOM     34  C   UNL     1       5.716  13.789  -3.660  0.00  0.00    +0.044 C 
ENDBRANCH  26  27
ENDBRANCH  24  26
ENDBRANCH  21  24
ENDBRANCH   3  20
TORSDOF 9
