REMARK  Name = ZINC39006957
REMARK  7 active torsions:
REMARK  status: ('A' for Active; 'I' for Inactive)
REMARK    1  A    between atoms: C_6  and  C_7
REMARK    2  A    between atoms: C_9  and  C_13
REMARK    3  A    between atoms: C_17  and  S_21
REMARK    4  A    between atoms: N_19  and  N_20
REMARK    5  A    between atoms: S_21  and  C_22
REMARK    6  A    between atoms: C_22  and  C_23
REMARK    7  A    between atoms: N_25  and  C_26
REMARK                            x       y       z     vdW  Elec       q    Type
REMARK                         _______ _______ _______ _____ _____    ______ ____
ROOT
ATOM      1  C   UNL     1      -3.274  -3.151   1.254  0.00  0.00    +0.185 C 
ATOM      2  N   UNL     1      -3.103  -2.293   2.456  0.00  0.00    -0.234 NA
ATOM      3  N   UNL     1      -4.025  -2.898   3.430  0.00  0.00    -0.228 NA
ATOM      4  C   UNL     1      -5.200  -3.305   2.625  0.00  0.00    +0.214 C 
ATOM      5  N   UNL     1      -4.721  -3.471   1.234  0.00  0.00    -0.197 NA
ATOM      6  H   UNL     1      -3.362  -1.338   2.258  0.00  0.00    +0.143 HD
ATOM      7  H   UNL     1      -3.603  -3.696   3.881  0.00  0.00    +0.143 HD
ENDROOT
BRANCH   1  10
ATOM      8  C   UNL     1      -1.290  -0.781  -0.036  0.00  0.00    +0.091 C 
ATOM      9  C   UNL     1      -1.382  -2.125  -0.032  0.00  0.00    +0.034 C 
ATOM     10  C   UNL     1      -2.878  -2.387  -0.010  0.00  0.00    +0.187 C 
ATOM     11  N   UNL     1      -3.455  -1.033  -0.006  0.00  0.00    -0.176 NA
ATOM     12  N   UNL     1      -2.527  -0.221  -0.015  0.00  0.00    -0.154 NA
BRANCH   8  18
ATOM     13  C   UNL     1      -0.034   1.373  -0.054  0.00  0.00    +0.011 A 
ATOM     14  C   UNL     1       1.153   2.076  -0.072  0.00  0.00    +0.020 A 
ATOM     15  C   UNL     1       2.361   1.400  -0.092  0.00  0.00    +0.041 A 
ATOM     16  C   UNL     1       2.384   0.015  -0.095  0.00  0.00    +0.020 A 
ATOM     17  C   UNL     1       1.202  -0.697  -0.077  0.00  0.00    +0.011 A 
ATOM     18  C   UNL     1      -0.016  -0.020  -0.056  0.00  0.00    +0.002 A 
ATOM     19 CL   UNL     1       3.851   2.290  -0.114  0.00  0.00    -0.084 Cl
ENDBRANCH   8  18
ENDBRANCH   1  10
BRANCH   5  20
ATOM     20  N   UNL     1      -4.948  -4.826   0.760  0.00  0.00    -0.264 NA
ATOM     21  H   UNL     1      -5.934  -5.044   0.747  0.00  0.00    +0.137 HD
ATOM     22  H   UNL     1      -4.535  -4.965  -0.150  0.00  0.00    +0.137 HD
ENDBRANCH   5  20
BRANCH   4  23
ATOM     23  S   UNL     1      -5.864  -4.875   3.243  0.00  0.00    -0.115 S 
BRANCH  23  24
ATOM     24  C   UNL     1      -4.470  -6.027   3.102  0.00  0.00    +0.168 C 
BRANCH  24  25
ATOM     25  C   UNL     1      -4.893  -7.389   3.590  0.00  0.00    +0.227 C 
ATOM     26  O   UNL     1      -6.023  -7.565   3.993  0.00  0.00    -0.275 OA
ATOM     27  N   UNL     1      -4.015  -8.412   3.578  0.00  0.00    -0.285 N 
ATOM     28  H   UNL     1      -3.132  -8.289   3.194  0.00  0.00    +0.155 HD
BRANCH  27  29
ATOM     29  C   UNL     1      -4.376  -9.651   4.120  0.00  0.00    +0.035 A 
ATOM     30  C   UNL     1      -3.430 -10.423   4.781  0.00  0.00    +0.025 A 
ATOM     31  C   UNL     1      -3.788 -11.645   5.316  0.00  0.00    +0.023 A 
ATOM     32  C   UNL     1      -5.089 -12.101   5.193  0.00  0.00    +0.059 A 
ATOM     33  C   UNL     1      -6.035 -11.333   4.535  0.00  0.00    +0.061 A 
ATOM     34  C   UNL     1      -5.682 -10.107   4.003  0.00  0.00    +0.044 A 
ATOM     35 CL   UNL     1      -7.665 -11.908   4.382  0.00  0.00    -0.082 Cl
ATOM     36 CL   UNL     1      -5.536 -13.637   5.867  0.00  0.00    -0.082 Cl
ENDBRANCH  27  29
ENDBRANCH  24  25
ENDBRANCH  23  24
ENDBRANCH   4  23
TORSDOF 7
