REMARK  Name = ZINC63472991
REMARK  8 active torsions:
REMARK  status: ('A' for Active; 'I' for Inactive)
REMARK    1  A    between atoms: C_1  and  O_2
REMARK    2  A    between atoms: O_2  and  C_3
REMARK    3  A    between atoms: C_6  and  N_9
REMARK    4  A    between atoms: C_14  and  C_35
REMARK    5  A    between atoms: C_17  and  C_22
REMARK    6  A    between atoms: C_17  and  C_32
REMARK    7  A    between atoms: C_22  and  C_23
REMARK    8  A    between atoms: C_40  and  O_41
REMARK                            x       y       z     vdW  Elec       q    Type
REMARK                         _______ _______ _______ _____ _____    ______ ____
ROOT
ATOM      1  N   UNL     1       2.561  -2.547  -4.311  0.00  0.00    -0.210 N 
ATOM      2  C   UNL     1       3.243  -1.875  -5.296  0.00  0.00    +0.229 C 
ATOM      3  O   UNL     1       3.599  -0.717  -5.293  0.00  0.00    -0.275 OA
ATOM      4  C   UNL     1       3.442  -2.857  -6.336  0.00  0.00    +0.077 C 
ATOM      5  C   UNL     1       4.282  -3.094  -7.518  0.00  0.00    -0.023 C 
ATOM      6  N   UNL     1       4.161  -4.568  -7.770  0.00  0.00    +0.396 N 
ATOM      7  C   UNL     1       3.354  -5.152  -6.650  0.00  0.00    +0.052 C 
ATOM      8  C   UNL     1       3.656  -4.177  -5.492  0.00  0.00    +0.086 C 
ATOM      9  C   UNL     1       2.567  -3.900  -4.493  0.00  0.00    +0.229 C 
ATOM     10  O   UNL     1       1.842  -4.713  -3.960  0.00  0.00    -0.275 OA
ATOM     11  H   UNL     1       3.693  -4.728  -8.650  0.00  0.00    -0.083 HD
ATOM     12  H   UNL     1       5.078  -4.989  -7.788  0.00  0.00    -0.083 HD
ENDROOT
BRANCH   1  16
ATOM     13  C   UNL     1       0.688  -0.656  -1.099  0.00  0.00    +0.120 A 
ATOM     14  C   UNL     1       1.352   0.098  -2.055  0.00  0.00    +0.047 A 
ATOM     15  C   UNL     1       1.972  -0.528  -3.119  0.00  0.00    +0.027 A 
ATOM     16  C   UNL     1       1.931  -1.911  -3.230  0.00  0.00    +0.044 A 
ATOM     17  C   UNL     1       1.267  -2.664  -2.273  0.00  0.00    +0.027 A 
ATOM     18  C   UNL     1       0.651  -2.038  -1.207  0.00  0.00    +0.047 A 
BRANCH  13  20
ATOM     19  C   UNL     1       0.155   1.386  -0.004  0.00  0.00    +0.277 C 
ATOM     20  O   UNL     1       0.077  -0.040  -0.052  0.00  0.00    -0.495 OA
ENDBRANCH  13  20
ENDBRANCH   1  16
BRANCH   5  21
ATOM     21  C   UNL     1       5.714  -2.721  -7.231  0.00  0.00    -0.019 A 
ATOM     22  C   UNL     1       6.595  -3.675  -6.759  0.00  0.00    +0.005 A 
ATOM     23  C   UNL     1       7.908  -3.334  -6.494  0.00  0.00    +0.000 A 
ATOM     24  C   UNL     1       8.343  -2.038  -6.701  0.00  0.00    +0.004 A 
ATOM     25  C   UNL     1       7.466  -1.081  -7.172  0.00  0.00    +0.045 A 
ATOM     26  C   UNL     1       6.149  -1.422  -7.444  0.00  0.00    +0.118 A 
BRANCH  26  27
ATOM     27  O   UNL     1       5.286  -0.483  -7.913  0.00  0.00    -0.507 OA
ATOM     28  H   UNL     1       4.814  -0.001  -7.220  0.00  0.00    +0.292 HD
ENDBRANCH  26  27
ENDBRANCH   5  21
BRANCH   7  29
ATOM     29  C   UNL     1       3.838  -6.538  -6.311  0.00  0.00    +0.347 C 
ATOM     30  O   UNL     1       4.752  -7.038  -6.944  0.00  0.00    -0.248 OA
ATOM     31  O   UNL     1       3.314  -7.161  -5.402  0.00  0.00    -0.248 OA
ENDBRANCH   7  29
BRANCH   7  32
ATOM     32  C   UNL     1       1.866  -5.167  -7.005  0.00  0.00    +0.033 C 
BRANCH  32  33
ATOM     33  C   UNL     1       1.638  -6.086  -8.177  0.00  0.00    -0.042 C 
ATOM     34  C   UNL     1       1.290  -7.393  -8.131  0.00  0.00    -0.001 A 
ATOM     35  C   UNL     1       1.032  -8.314  -7.018  0.00  0.00    +0.010 A 
ATOM     36  C   UNL     1       0.696  -9.595  -7.291  0.00  0.00    +0.001 A 
ATOM     37  C   UNL     1       0.589 -10.064  -8.607  0.00  0.00    +0.002 A 
ATOM     38  C   UNL     1       0.811  -9.278  -9.682  0.00  0.00    +0.026 A 
ATOM     39  C   UNL     1       1.171  -7.913  -9.511  0.00  0.00    +0.043 A 
ATOM     40  N   UNL     1       1.434  -6.965 -10.378  0.00  0.00    -0.380 N 
ATOM     41  C   UNL     1       1.745  -5.733  -9.644  0.00  0.00    +0.144 C 
ATOM     42  H   UNL     1       1.421  -7.060 -11.343  0.00  0.00    +0.160 HD
ENDBRANCH  32  33
ENDBRANCH   7  32
TORSDOF 7
