REMARK  Name = ZINC27538939
REMARK  6 active torsions:
REMARK  status: ('A' for Active; 'I' for Inactive)
REMARK    1  A    between atoms: C_1  and  C_2
REMARK    2  A    between atoms: C_2  and  C_4
REMARK    3  A    between atoms: C_2  and  N_19
REMARK    4  A    between atoms: N_6  and  C_7
REMARK    5  A    between atoms: C_8  and  C_17
REMARK    6  A    between atoms: C_25  and  C_27
REMARK                            x       y       z     vdW  Elec       q    Type
REMARK                         _______ _______ _______ _____ _____    ______ ____
ROOT
ATOM      1  N   UNL     1       3.565   1.890  -0.022  0.00  0.00    +0.389 N 
ATOM      2  C   UNL     1       3.506   2.748  -1.213  0.00  0.00    -0.058 C 
ATOM      3  C   UNL     1       4.558   3.856  -1.092  0.00  0.00    +0.089 C 
ATOM      4  N   UNL     1       5.866   3.233  -0.839  0.00  0.00    -0.302 N 
ATOM      5  C   UNL     1       5.971   2.255   0.255  0.00  0.00    +0.089 C 
ATOM      6  C   UNL     1       4.864   1.210   0.082  0.00  0.00    -0.058 C 
ATOM      7  C   UNL     1       6.940   3.549  -1.589  0.00  0.00    +0.260 C 
ATOM      8  O   UNL     1       8.011   3.026  -1.366  0.00  0.00    -0.271 OA
ATOM      9  H   UNL     1       3.454   2.535   0.862  0.00  0.00    -0.081 HD
ENDROOT
BRANCH   7  10
ATOM     10  C   UNL     1       6.810   4.554  -2.705  0.00  0.00    +0.296 C 
ATOM     11  C   UNL     1       6.501   5.939  -2.121  0.00  0.00    +0.283 C 
ATOM     12  O   UNL     1       6.397   6.869  -3.204  0.00  0.00    -0.484 OA
ATOM     13  C   UNL     1       7.372   6.814  -4.153  0.00  0.00    +0.162 A 
ATOM     14  C   UNL     1       7.544   7.886  -5.016  0.00  0.00    +0.049 A 
ATOM     15  C   UNL     1       8.526   7.843  -5.987  0.00  0.00    +0.004 A 
ATOM     16  C   UNL     1       9.341   6.732  -6.101  0.00  0.00    +0.004 A 
ATOM     17  C   UNL     1       9.176   5.660  -5.243  0.00  0.00    +0.049 A 
ATOM     18  C   UNL     1       8.192   5.698  -4.266  0.00  0.00    +0.163 A 
ATOM     19  O   UNL     1       8.044   4.636  -3.426  0.00  0.00    -0.473 OA
ENDBRANCH   7  10
BRANCH   1  21
ATOM     20  C   UNL     1       2.543   0.048  -1.271  0.00  0.00    -0.004 C 
ATOM     21  C   UNL     1       2.462   0.920  -0.017  0.00  0.00    +0.017 C 
BRANCH  21  22
ATOM     22  C   UNL     1       1.147   1.655   0.000  0.00  0.00    +0.204 C 
ATOM     23  O   UNL     1       1.130   2.868   0.007  0.00  0.00    -0.277 OA
ATOM     24  N   UNL     1      -0.011   0.966   0.007  0.00  0.00    -0.280 N 
ATOM     25  H   UNL     1       0.004  -0.134   0.006  0.00  0.00    +0.155 HD
BRANCH  24  26
ATOM     26  C   UNL     1      -1.222   1.643   0.017  0.00  0.00    +0.090 A 
ATOM     27  C   UNL     1      -2.503   1.117   0.020  0.00  0.00    +0.084 A 
ATOM     28  C   UNL     1      -3.621   2.051   0.033  0.00  0.00    -0.018 A 
ATOM     29  C   UNL     1      -3.272   3.355   0.033  0.00  0.00    -0.004 A 
ATOM     30  S   UNL     1      -1.500   3.353   0.035  0.00  0.00    -0.077 S 
ATOM     31  C   UNL     1      -4.178   4.547   0.028  0.00  0.00    +0.043 C 
ATOM     32  C   UNL     1      -5.247   4.373   1.115  0.00  0.00    +0.005 C 
ATOM     33  C   UNL     1      -6.441   3.643   0.508  0.00  0.00    +0.001 C 
ATOM     34  C   UNL     1      -5.968   2.658  -0.558  0.00  0.00    +0.005 C 
ATOM     35  C   UNL     1      -5.073   1.589   0.059  0.00  0.00    +0.037 C 
BRANCH  27  36
ATOM     36  C   UNL     1      -2.722  -0.298   0.011  0.00  0.00    +0.102 C 
ATOM     37  N   UNL     1      -2.895  -1.421   0.003  0.00  0.00    -0.191 NA
ENDBRANCH  27  36
ENDBRANCH  24  26
ENDBRANCH  21  22
ENDBRANCH   1  21
TORSDOF 5
