REMARK  Name = ZINC10131222
REMARK  12 active torsions:
REMARK  status: ('A' for Active; 'I' for Inactive)
REMARK    1  A    between atoms: C_1  and  C_2
REMARK    2  A    between atoms: C_2  and  C_36
REMARK    3  A    between atoms: C_4  and  O_35
REMARK    4  A    between atoms: C_5  and  C_9
REMARK    5  A    between atoms: C_9  and  C_10
REMARK    6  A    between atoms: C_9  and  C_25
REMARK    7  A    between atoms: C_15  and  O_16
REMARK    8  A    between atoms: O_16  and  C_17
REMARK    9  A    between atoms: C_17  and  C_18
REMARK   10  A    between atoms: C_26  and  O_34
REMARK   11  A    between atoms: C_28  and  C_32
REMARK   12  A    between atoms: C_28  and  C_33
REMARK                            x       y       z     vdW  Elec       q    Type
REMARK                         _______ _______ _______ _____ _____    ______ ____
ROOT
ATOM      1  C   UNL     1       1.274  -3.573  -4.053  0.00  0.00    +0.096 C 
ENDROOT
BRANCH   1   6
ATOM      2  C   UNL     1       4.086  -1.741  -6.820  0.00  0.00    +0.012 C 
ATOM      3  C   UNL     1       4.491  -3.216  -6.859  0.00  0.00    -0.021 C 
ATOM      4  C   UNL     1       4.878  -3.679  -5.452  0.00  0.00    +0.080 C 
ATOM      5  C   UNL     1       3.686  -3.561  -4.539  0.00  0.00    +0.102 C 
ATOM      6  C   UNL     1       2.432  -3.693  -5.009  0.00  0.00    +0.044 C 
ATOM      7  C   UNL     1       2.176  -3.943  -6.365  0.00  0.00    +0.164 C 
ATOM      8  O   UNL     1       1.030  -4.064  -6.749  0.00  0.00    -0.292 OA
ATOM      9  C   UNL     1       3.310  -4.059  -7.350  0.00  0.00    +0.086 C 
ATOM     10  C   UNL     1       5.681  -3.396  -7.803  0.00  0.00    +0.012 C 
BRANCH   5  11
ATOM     11  O   UNL     1       3.878  -3.320  -3.228  0.00  0.00    -0.511 OA
ATOM     12  H   UNL     1       2.994  -3.271  -2.765  0.00  0.00    +0.292 HD
ENDBRANCH   5  11
ENDBRANCH   1   6
BRANCH   1  13
ATOM     13  C   UNL     1       0.170  -2.775  -4.698  0.00  0.00    +0.044 C 
ATOM     14  C   UNL     1       0.332  -1.450  -4.867  0.00  0.00    +0.102 C 
ATOM     15  C   UNL     1      -0.738  -0.610  -5.511  0.00  0.00    +0.080 C 
ATOM     16  C   UNL     1      -2.111  -1.226  -5.230  0.00  0.00    -0.021 C 
ATOM     17  C   UNL     1      -2.124  -2.666  -5.753  0.00  0.00    +0.086 C 
ATOM     18  C   UNL     1      -0.996  -3.434  -5.113  0.00  0.00    +0.164 C 
ATOM     19  O   UNL     1      -1.101  -4.633  -4.951  0.00  0.00    -0.292 OA
ATOM     20  C   UNL     1      -2.374  -1.225  -3.723  0.00  0.00    +0.012 C 
ATOM     21  C   UNL     1      -3.194  -0.410  -5.939  0.00  0.00    +0.012 C 
BRANCH  14  22
ATOM     22  O   UNL     1       1.471  -0.865  -4.450  0.00  0.00    -0.511 OA
ATOM     23  H   UNL     1       1.433   0.114  -4.647  0.00  0.00    +0.292 HD
ENDBRANCH  14  22
ENDBRANCH   1  13
BRANCH   1  24
ATOM     24  C   UNL     1       0.764  -4.948  -3.707  0.00  0.00    +0.006 A 
ATOM     25  C   UNL     1       0.803  -5.957  -4.650  0.00  0.00    +0.008 A 
ATOM     26  C   UNL     1       0.336  -7.219  -4.334  0.00  0.00    +0.001 A 
ATOM     27  C   UNL     1      -0.172  -7.475  -3.073  0.00  0.00    +0.004 A 
ATOM     28  C   UNL     1      -0.209  -6.471  -2.126  0.00  0.00    +0.046 A 
ATOM     29  C   UNL     1       0.254  -5.202  -2.442  0.00  0.00    +0.125 A 
BRANCH  29  30
ATOM     30  O   UNL     1       0.214  -4.211  -1.513  0.00  0.00    -0.487 OA
BRANCH  30  31
ATOM     31  C   UNL     1      -0.324  -4.544  -0.232  0.00  0.00    +0.264 C 
BRANCH  31  32
ATOM     32  C   UNL     1      -0.288  -3.330   0.659  0.00  0.00    -0.010 A 
ATOM     33  C   UNL     1      -1.364  -2.463   0.690  0.00  0.00    +0.008 A 
ATOM     34  C   UNL     1      -1.331  -1.349   1.508  0.00  0.00    +0.020 A 
ATOM     35  C   UNL     1      -0.221  -1.102   2.295  0.00  0.00    +0.041 A 
ATOM     36  C   UNL     1       0.856  -1.970   2.264  0.00  0.00    +0.020 A 
ATOM     37  C   UNL     1       0.822  -3.083   1.446  0.00  0.00    +0.008 A 
ATOM     38 CL   UNL     1      -0.180   0.297   3.322  0.00  0.00    -0.084 Cl
ENDBRANCH  31  32
ENDBRANCH  30  31
ENDBRANCH  29  30
ENDBRANCH   1  24
TORSDOF 8
