REMARK  Name = ZINC21540227
REMARK  7 active torsions:
REMARK  status: ('A' for Active; 'I' for Inactive)
REMARK    1  A    between atoms: N_7  and  C_17
REMARK    2  A    between atoms: C_17  and  C_18
REMARK    3  A    between atoms: N_20  and  C_21
REMARK    4  A    between atoms: C_21  and  C_22
REMARK    5  A    between atoms: C_22  and  C_23
REMARK    6  A    between atoms: C_23  and  N_24
REMARK    7  A    between atoms: N_27  and  C_30
REMARK                            x       y       z     vdW  Elec       q    Type
REMARK                         _______ _______ _______ _____ _____    ______ ____
ROOT
ATOM      1  C   UNL     1       1.932  -4.823  -1.569  0.00  0.00    +0.231 C 
ATOM      2  O   UNL     1       2.412  -4.020  -2.341  0.00  0.00    -0.274 OA
ATOM      3  N   UNL     1       2.360  -6.101  -1.574  0.00  0.00    -0.314 N 
ATOM      4  H   UNL     1       1.924  -6.830  -0.874  0.00  0.00    +0.149 HD
ENDROOT
BRANCH   1   5
ATOM      5  C   UNL     1       0.857  -4.392  -0.605  0.00  0.00    +0.209 C 
BRANCH   5  12
ATOM      6  C   UNL     1      -1.347  -3.107  -3.908  0.00  0.00    +0.002 A 
ATOM      7  C   UNL     1      -2.341  -2.175  -3.674  0.00  0.00    +0.001 A 
ATOM      8  C   UNL     1      -2.381  -1.501  -2.469  0.00  0.00    +0.017 A 
ATOM      9  C   UNL     1      -1.427  -1.755  -1.490  0.00  0.00    +0.036 A 
ATOM     10  C   UNL     1      -0.422  -2.683  -1.724  0.00  0.00    +0.051 A 
ATOM     11  C   UNL     1      -0.395  -3.361  -2.942  0.00  0.00    +0.024 A 
ATOM     12  N   UNL     1       0.572  -2.968  -0.797  0.00  0.00    -0.258 N 
ATOM     13  C   UNL     1       1.291  -2.151  -0.071  0.00  0.00    +0.254 C 
ATOM     14  O   UNL     1       2.118  -2.668   0.653  0.00  0.00    -0.270 OA
ATOM     15  C   UNL     1       1.220  -0.692  -0.026  0.00  0.00    +0.069 A 
ATOM     16  C   UNL     1       2.412   0.049  -0.022  0.00  0.00    +0.017 A 
ATOM     17  C   UNL     1       2.333   1.430  -0.008  0.00  0.00    +0.020 A 
ATOM     18  C   UNL     1       1.091   2.039   0.003  0.00  0.00    +0.112 A 
ATOM     19  N   UNL     1      -0.016   1.325   0.009  0.00  0.00    -0.248 NA
ATOM     20  C   UNL     1       0.002  -0.004   0.002  0.00  0.00    +0.114 A 
ATOM     21  S   UNL     1      -1.522  -0.883   0.035  0.00  0.00    -0.067 S 
ENDBRANCH   5  12
ENDBRANCH   1   5
BRANCH   3  22
ATOM     22  C   UNL     1       3.404  -6.521  -2.511  0.00  0.00    +0.105 C 
BRANCH  22  23
ATOM     23  C   UNL     1       3.703  -8.008  -2.310  0.00  0.00    +0.034 C 
BRANCH  23  24
ATOM     24  C   UNL     1       4.794  -8.446  -3.289  0.00  0.00    +0.086 C 
BRANCH  24  25
ATOM     25  N   UNL     1       5.080  -9.874  -3.096  0.00  0.00    -0.306 NA
ATOM     26  C   UNL     1       5.681 -10.117  -1.777  0.00  0.00    +0.066 C 
ATOM     27  C   UNL     1       5.890 -11.621  -1.584  0.00  0.00    -0.063 C 
ATOM     28  N   UNL     1       6.755 -12.134  -2.656  0.00  0.00    +0.383 N 
ATOM     29  C   UNL     1       6.155 -11.891  -3.975  0.00  0.00    -0.063 C 
ATOM     30  C   UNL     1       5.945 -10.387  -4.168  0.00  0.00    +0.066 C 
ATOM     31  H   UNL     1       7.710 -11.589  -2.612  0.00  0.00    -0.081 HD
BRANCH  28  32
ATOM     32  C   UNL     1       7.042 -13.562  -2.463  0.00  0.00    -0.068 C 
ATOM     33  C   UNL     1       5.729 -14.347  -2.440  0.00  0.00    -0.015 C 
ATOM     34  C   UNL     1       6.027 -15.834  -2.239  0.00  0.00    -0.002 C 
ATOM     35  C   UNL     1       6.762 -16.032  -0.912  0.00  0.00    -0.000 C 
ATOM     36  C   UNL     1       8.075 -15.246  -0.935  0.00  0.00    -0.002 C 
ATOM     37  C   UNL     1       7.777 -13.759  -1.136  0.00  0.00    -0.015 C 
ENDBRANCH  28  32
ENDBRANCH  24  25
ENDBRANCH  23  24
ENDBRANCH  22  23
ENDBRANCH   3  22
TORSDOF 7
