REMARK  Name = ZINC09692607
REMARK  8 active torsions:
REMARK  status: ('A' for Active; 'I' for Inactive)
REMARK    1  A    between atoms: C_4  and  C_7
REMARK    2  A    between atoms: C_7  and  C_8
REMARK    3  A    between atoms: C_8  and  C_10
REMARK    4  A    between atoms: C_8  and  N_25
REMARK    5  A    between atoms: N_12  and  C_13
REMARK    6  A    between atoms: C_13  and  C_14
REMARK    7  A    between atoms: N_25  and  S_26
REMARK    8  A    between atoms: S_26  and  C_29
REMARK                            x       y       z     vdW  Elec       q    Type
REMARK                         _______ _______ _______ _____ _____    ______ ____
ROOT
ATOM      1  C   UNL     1       2.975   1.054  -1.280  0.00  0.00    +0.166 C 
ENDROOT
BRANCH   1   2
ATOM      2  C   UNL     1       4.203   0.180  -1.261  0.00  0.00    +0.232 C 
ATOM      3  O   UNL     1       5.172   0.481  -1.925  0.00  0.00    -0.274 OA
ATOM      4  N   UNL     1       4.223  -0.936  -0.506  0.00  0.00    -0.310 N 
ATOM      5  H   UNL     1       3.448  -1.177   0.025  0.00  0.00    +0.149 HD
BRANCH   4   6
ATOM      6  C   UNL     1       5.417  -1.786  -0.488  0.00  0.00    +0.152 C 
BRANCH   6   7
ATOM      7  C   UNL     1       5.179  -2.979   0.441  0.00  0.00    +0.228 C 
ATOM      8  C   UNL     1       6.437  -3.857   0.488  0.00  0.00    +0.275 C 
ATOM      9  O   UNL     1       6.185  -4.953   1.374  0.00  0.00    -0.485 OA
ATOM     10  C   UNL     1       5.609  -4.653   2.570  0.00  0.00    +0.162 A 
ATOM     11  C   UNL     1       5.664  -5.577   3.603  0.00  0.00    +0.049 A 
ATOM     12  C   UNL     1       5.080  -5.288   4.822  0.00  0.00    +0.004 A 
ATOM     13  C   UNL     1       4.442  -4.077   5.016  0.00  0.00    +0.004 A 
ATOM     14  C   UNL     1       4.386  -3.151   3.991  0.00  0.00    +0.049 A 
ATOM     15  C   UNL     1       4.970  -3.434   2.765  0.00  0.00    +0.163 A 
ATOM     16  O   UNL     1       4.909  -2.511   1.767  0.00  0.00    -0.480 OA
ENDBRANCH   6   7
ENDBRANCH   4   6
ENDBRANCH   1   2
BRANCH   1  17
ATOM     17  N   UNL     1       3.203   2.196  -2.170  0.00  0.00    -0.178 NA
ATOM     18  H   UNL     1       3.637   2.995  -1.832  0.00  0.00    +0.149 HD
BRANCH  17  19
ATOM     19  S   UNL     1       2.719   2.123  -3.751  0.00  0.00    +0.061 S 
ATOM     20  O   UNL     1       3.086   3.360  -4.346  0.00  0.00    -0.153 OA
ATOM     21  O   UNL     1       3.166   0.872  -4.256  0.00  0.00    -0.153 OA
BRANCH  19  22
ATOM     22  C   UNL     1       0.957   2.066  -3.755  0.00  0.00    +0.133 A 
ATOM     23  C   UNL     1       0.246   3.132  -4.191  0.00  0.00    +0.031 A 
ATOM     24  C   UNL     1      -1.148   3.121  -4.212  0.00  0.00    +0.004 A 
ATOM     25  C   UNL     1      -1.854   2.046  -3.788  0.00  0.00    +0.031 A 
ATOM     26  C   UNL     1      -1.176   0.893  -3.312  0.00  0.00    +0.102 A 
ATOM     27  C   UNL     1       0.284   0.904  -3.295  0.00  0.00    +0.126 A 
ATOM     28  N   UNL     1       0.787  -0.237  -2.827  0.00  0.00    -0.189 NA
ATOM     29  S   UNL     1      -0.441  -1.146  -2.477  0.00  0.00    +0.117 S 
ATOM     30  N   UNL     1      -1.673  -0.254  -2.856  0.00  0.00    -0.191 NA
ENDBRANCH  19  22
ENDBRANCH  17  19
ENDBRANCH   1  17
BRANCH   1  31
ATOM     31  C   UNL     1       2.687   1.560   0.135  0.00  0.00    +0.065 C 
BRANCH  31  35
ATOM     32  C   UNL     1      -0.888   3.897   0.111  0.00  0.00    +0.000 A 
ATOM     33  C   UNL     1      -0.962   2.523   0.242  0.00  0.00    +0.000 A 
ATOM     34  C   UNL     1       0.196   1.767   0.255  0.00  0.00    +0.004 A 
ATOM     35  C   UNL     1       1.426   2.384   0.127  0.00  0.00    -0.045 A 
ATOM     36  C   UNL     1       1.499   3.758  -0.008  0.00  0.00    +0.004 A 
ATOM     37  C   UNL     1       0.342   4.514  -0.016  0.00  0.00    +0.000 A 
ENDBRANCH  31  35
ENDBRANCH   1  31
TORSDOF 8
