REMARK  Name = ZINC44019675
REMARK  5 active torsions:
REMARK  status: ('A' for Active; 'I' for Inactive)
REMARK    1  A    between atoms: C_1  and  C_2
REMARK    2  A    between atoms: C_20  and  C_24
REMARK    3  A    between atoms: C_20  and  O_25
REMARK    4  A    between atoms: C_21  and  C_22
REMARK    5  A    between atoms: C_21  and  O_23
REMARK                            x       y       z     vdW  Elec       q    Type
REMARK                         _______ _______ _______ _____ _____    ______ ____
ROOT
ATOM      1  C   UNL     1      -0.019   1.520   0.010  0.00  0.00    +0.022 C 
ATOM      2  C   UNL     1       0.002  -0.004   0.002  0.00  0.00    +0.129 C 
ATOM      3  C   UNL     1       0.558  -0.488  -1.316  0.00  0.00    +0.313 C 
ATOM      4  O   UNL     1       0.139  -1.509  -1.814  0.00  0.00    -0.250 OA
ATOM      5  O   UNL     1       1.474   0.243  -1.959  0.00  0.00    -0.455 OA
ATOM      6  C   UNL     1       2.575  -0.407  -2.591  0.00  0.00    +0.225 C 
ATOM      7  C   UNL     1       2.295  -0.592  -4.083  0.00  0.00    +0.072 C 
ATOM      8  C   UNL     1       3.319   0.320  -4.755  0.00  0.00    +0.125 C 
ATOM      9  N   UNL     1       4.213   0.853  -3.723  0.00  0.00    -0.347 N 
ATOM     10  C   UNL     1       3.787   0.488  -2.488  0.00  0.00    +0.066 A 
ATOM     11  C   UNL     1       4.582   1.081  -1.566  0.00  0.00    +0.014 A 
ATOM     12  C   UNL     1       5.582   1.778  -2.264  0.00  0.00    +0.026 A 
ATOM     13  C   UNL     1       5.345   1.610  -3.579  0.00  0.00    +0.086 A 
ATOM     14  C   UNL     1       4.390   1.006  -0.070  0.00  0.00    +0.269 C 
ATOM     15  O   UNL     1       3.017   0.720   0.188  0.00  0.00    -0.458 OA
ATOM     16  C   UNL     1       2.470   1.118   1.338  0.00  0.00    +0.342 C 
ATOM     17  O   UNL     1       2.714   2.218   1.785  0.00  0.00    -0.247 OA
ATOM     18  C   UNL     1       1.535   0.208   2.088  0.00  0.00    +0.189 C 
ATOM     19  C   UNL     1       0.669  -0.657   1.186  0.00  0.00    +0.115 C 
ATOM     20  C   UNL     1       1.520  -1.854   0.717  0.00  0.00    +0.046 C 
ATOM     21  C   UNL     1       0.681   0.999   3.080  0.00  0.00    +0.056 C 
ENDROOT
BRANCH  19  22
ATOM     22  O   UNL     1      -0.380  -1.218   2.016  0.00  0.00    -0.385 OA
ATOM     23  H   UNL     1      -0.923  -1.881   1.569  0.00  0.00    +0.210 HD
ENDBRANCH  19  22
BRANCH  18  24
ATOM     24  O   UNL     1       2.364  -0.688   2.869  0.00  0.00    -0.375 OA
ATOM     25  H   UNL     1       2.937  -0.238   3.506  0.00  0.00    +0.211 HD
ENDBRANCH  18  24
TORSDOF 2
