REMARK  Name = ZINC19332789
REMARK  4 active torsions:
REMARK  status: ('A' for Active; 'I' for Inactive)
REMARK    1  A    between atoms: C_6  and  C_7
REMARK    2  A    between atoms: C_7  and  C_10
REMARK    3  A    between atoms: C_10  and  N_11
REMARK    4  A    between atoms: C_18  and  C_20
REMARK                            x       y       z     vdW  Elec       q    Type
REMARK                         _______ _______ _______ _____ _____    ______ ____
ROOT
ATOM      1  N   UNL     1      -1.177   3.548   0.771  0.00  0.00    +0.383 N 
ATOM      2  C   UNL     1      -2.327   4.361   1.200  0.00  0.00    -0.072 C 
ATOM      3  C   UNL     1      -3.614   3.623   0.828  0.00  0.00    +0.037 C 
ATOM      4  C   UNL     1      -3.547   2.200   1.319  0.00  0.00    +0.048 A 
ATOM      5  C   UNL     1      -2.355   1.616   1.684  0.00  0.00    +0.022 A 
ATOM      6  C   UNL     1      -2.367   0.291   2.125  0.00  0.00    +0.253 A 
ATOM      7  N   UNL     1      -3.522  -0.359   2.184  0.00  0.00    -0.307 N 
ATOM      8  C   UNL     1      -4.650   0.239   1.828  0.00  0.00    +0.141 A 
ATOM      9  N   UNL     1      -4.667   1.493   1.403  0.00  0.00    -0.234 NA
ATOM     10  O   UNL     1      -1.215  -0.322   2.490  0.00  0.00    -0.268 OA
ATOM     11  C   UNL     1      -1.049   2.358   1.621  0.00  0.00    -0.036 C 
ATOM     12  H   UNL     1      -3.538  -1.402   2.533  0.00  0.00    +0.170 HD
ATOM     13  H   UNL     1      -1.352   3.215  -0.263  0.00  0.00    -0.081 HD
ENDROOT
BRANCH   8  14
ATOM     14  C   UNL     1      -5.925  -0.516   1.906  0.00  0.00    +0.020 A 
ATOM     15  C   UNL     1      -7.136   0.080   1.545  0.00  0.00    +0.031 A 
ATOM     16  C   UNL     1      -8.298  -0.660   1.627  0.00  0.00    +0.111 A 
ATOM     17  N   UNL     1      -8.277  -1.909   2.051  0.00  0.00    -0.263 NA
ATOM     18  C   UNL     1      -7.157  -2.507   2.407  0.00  0.00    +0.111 A 
ATOM     19  C   UNL     1      -5.949  -1.841   2.349  0.00  0.00    +0.031 A 
ENDBRANCH   8  14
BRANCH   1  20
ATOM     20  C   UNL     1       0.060   4.339   0.782  0.00  0.00    -0.067 C 
BRANCH  20  21
ATOM     21  C   UNL     1       1.126   3.629  -0.055  0.00  0.00    -0.019 C 
ATOM     22  C   UNL     1       2.588   4.003   0.199  0.00  0.00    +0.010 C 
ATOM     23  C   UNL     1       2.052   2.647   0.666  0.00  0.00    +0.010 C 
BRANCH  21  29
ATOM     24  C   UNL     1      -0.132   4.135  -2.158  0.00  0.00    +0.005 A 
ATOM     25  C   UNL     1      -0.497   3.833  -3.457  0.00  0.00    +0.020 A 
ATOM     26  C   UNL     1      -0.001   2.696  -4.069  0.00  0.00    +0.041 A 
ATOM     27  C   UNL     1       0.861   1.861  -3.380  0.00  0.00    +0.020 A 
ATOM     28  C   UNL     1       1.225   2.163  -2.081  0.00  0.00    +0.005 A 
ATOM     29  C   UNL     1       0.729   3.300  -1.471  0.00  0.00    -0.043 A 
ATOM     30 CL   UNL     1      -0.459   2.316  -5.699  0.00  0.00    -0.084 Cl
ENDBRANCH  21  29
ENDBRANCH  20  21
ENDBRANCH   1  20
TORSDOF 4
