REMARK  Name = ZINC06257809
REMARK  7 active torsions:
REMARK  status: ('A' for Active; 'I' for Inactive)
REMARK    1  A    between atoms: C_1  and  C_2
REMARK    2  A    between atoms: C_7  and  C_8
REMARK    3  A    between atoms: C_7  and  C_9
REMARK    4  A    between atoms: N_12  and  C_15
REMARK    5  A    between atoms: C_15  and  C_16
REMARK    6  A    between atoms: C_16  and  C_17
REMARK    7  A    between atoms: N_19  and  N_20
REMARK                            x       y       z     vdW  Elec       q    Type
REMARK                         _______ _______ _______ _____ _____    ______ ____
ROOT
ATOM      1  C   UNL     1       1.494  -3.699  -4.483  0.00  0.00    +0.234 C 
ATOM      2  O   UNL     1       2.698  -3.597  -4.582  0.00  0.00    -0.274 OA
ATOM      3  N   UNL     1       0.791  -4.330  -5.445  0.00  0.00    -0.206 N 
ATOM      4  H   UNL     1      -0.172  -4.412  -5.366  0.00  0.00    +0.177 HD
ENDROOT
BRANCH   3   5
ATOM      5  N   UNL     1       1.451  -4.866  -6.558  0.00  0.00    -0.175 NA
ATOM      6  C   UNL     1       0.767  -5.480  -7.493  0.00  0.00    +0.152 C 
ATOM      7  C   UNL     1       1.290  -6.109  -8.728  0.00  0.00    +0.028 A 
ATOM      8  C   UNL     1       2.567  -6.247  -9.259  0.00  0.00    +0.012 A 
ATOM      9  C   UNL     1       2.742  -6.902 -10.461  0.00  0.00    +0.001 A 
ATOM     10  C   UNL     1       1.649  -7.420 -11.135  0.00  0.00    +0.002 A 
ATOM     11  C   UNL     1       0.376  -7.288 -10.616  0.00  0.00    +0.024 A 
ATOM     12  C   UNL     1       0.181  -6.631  -9.406  0.00  0.00    +0.043 A 
ATOM     13  N   UNL     1      -0.972  -6.365  -8.675  0.00  0.00    -0.280 N 
ATOM     14  C   UNL     1      -0.693  -5.699  -7.542  0.00  0.00    +0.269 C 
ATOM     15  O   UNL     1      -1.500  -5.338  -6.706  0.00  0.00    -0.268 OA
ATOM     16  H   UNL     1      -1.865  -6.631  -8.947  0.00  0.00    +0.155 HD
ENDBRANCH   3   5
BRANCH   1  17
ATOM     17  C   UNL     1       0.784  -3.122  -3.286  0.00  0.00    +0.117 C 
BRANCH  17  18
ATOM     18  C   UNL     1       1.806  -2.467  -2.354  0.00  0.00    +0.125 C 
BRANCH  18  29
ATOM     19  C   UNL     1      -0.019   1.526   0.010  0.00  0.00    +0.021 C 
ATOM     20  C   UNL     1       0.002  -0.004   0.002  0.00  0.00    +0.051 C 
ATOM     21  C   UNL     1      -1.410  -0.632   0.090  0.00  0.00    +0.017 C 
ATOM     22  C   UNL     1      -1.232  -1.978   0.818  0.00  0.00    +0.014 C 
ATOM     23  C   UNL     1       0.279  -2.095   1.133  0.00  0.00    +0.082 C 
ATOM     24  C   UNL     1       0.737  -0.613   1.230  0.00  0.00    -0.010 C 
ATOM     25  C   UNL     1       0.259   0.029   2.534  0.00  0.00    +0.012 C 
ATOM     26  C   UNL     1       2.255  -0.492   1.081  0.00  0.00    +0.012 C 
ATOM     27  C   UNL     1       0.943  -2.678  -0.102  0.00  0.00    +0.225 C 
ATOM     28  O   UNL     1       1.316  -3.831  -0.107  0.00  0.00    -0.275 OA
ATOM     29  N   UNL     1       1.116  -1.905  -1.190  0.00  0.00    -0.241 N 
ATOM     30  C   UNL     1       0.688  -0.582  -1.223  0.00  0.00    +0.228 C 
ATOM     31  O   UNL     1       0.821   0.092  -2.222  0.00  0.00    -0.275 OA
ENDBRANCH  18  29
ENDBRANCH  17  18
ENDBRANCH   1  17
TORSDOF 4
