REMARK  Name = ZINC01203774
REMARK  7 active torsions:
REMARK  status: ('A' for Active; 'I' for Inactive)
REMARK    1  A    between atoms: C_1  and  O_2
REMARK    2  A    between atoms: O_2  and  C_3
REMARK    3  A    between atoms: C_5  and  O_29
REMARK    4  A    between atoms: C_6  and  N_26
REMARK    5  A    between atoms: C_8  and  C_9
REMARK    6  A    between atoms: N_16  and  C_19
REMARK    7  A    between atoms: O_29  and  C_30
REMARK                            x       y       z     vdW  Elec       q    Type
REMARK                         _______ _______ _______ _____ _____    ______ ____
ROOT
ATOM      1  C   UNL     1       1.737   0.564   6.056  0.00  0.00    +0.030 C 
ATOM      2  C   UNL     1       1.060   0.818   7.237  0.00  0.00    +0.102 C 
ATOM      3  C   UNL     1      -0.303   1.381   7.236  0.00  0.00    +0.276 C 
ATOM      4  O   UNL     1      -0.873   1.640   6.193  0.00  0.00    -0.268 OA
ATOM      5  N   UNL     1      -0.904   1.597   8.425  0.00  0.00    -0.123 NA
ATOM      6  C   UNL     1      -0.286   1.323   9.582  0.00  0.00    +0.340 C 
ATOM      7  O   UNL     1      -0.880   1.546  10.619  0.00  0.00    -0.250 OA
ATOM      8  N   UNL     1       0.953   0.816   9.658  0.00  0.00    -0.188 N 
ATOM      9  C   UNL     1       1.672   0.543   8.550  0.00  0.00    +0.264 C 
ATOM     10  O   UNL     1       2.795   0.083   8.632  0.00  0.00    -0.269 OA
ENDROOT
BRANCH   8  11
ATOM     11  C   UNL     1       1.513   0.563  10.918  0.00  0.00    +0.046 A 
ATOM     12  C   UNL     1       1.725  -0.744  11.335  0.00  0.00    +0.025 A 
ATOM     13  C   UNL     1       2.282  -0.989  12.575  0.00  0.00    +0.017 A 
ATOM     14  C   UNL     1       2.619   0.065  13.405  0.00  0.00    +0.018 A 
ATOM     15  C   UNL     1       2.404   1.369  12.993  0.00  0.00    +0.017 A 
ATOM     16  C   UNL     1       1.853   1.620  11.752  0.00  0.00    +0.025 A 
ATOM     17 BR   UNL     1       3.373  -0.275  15.105  0.00  0.00    -0.050 Br
ENDBRANCH   8  11
BRANCH   1  23
ATOM     18  C   UNL     1       1.608   1.391   3.754  0.00  0.00    +0.131 A 
ATOM     19  C   UNL     1       0.932   1.464   2.549  0.00  0.00    +0.094 A 
ATOM     20  C   UNL     1      -0.280   0.807   2.394  0.00  0.00    +0.154 A 
ATOM     21  C   UNL     1      -0.827   0.077   3.448  0.00  0.00    +0.168 A 
ATOM     22  C   UNL     1      -0.172  -0.010   4.641  0.00  0.00    +0.048 A 
ATOM     23  C   UNL     1       1.057   0.648   4.817  0.00  0.00    +0.020 A 
BRANCH  21  24
ATOM     24  N   UNL     1      -2.125  -0.612   3.270  0.00  0.00    +0.060 N 
ATOM     25  O   UNL     1      -2.606  -1.251   4.188  0.00  0.00    -0.126 OA
ATOM     26  O   UNL     1      -2.711  -0.541   2.205  0.00  0.00    -0.126 OA
ENDBRANCH  21  24
BRANCH  18  28
ATOM     27  C   UNL     1       3.288   2.765   2.790  0.00  0.00    +0.277 C 
ATOM     28  O   UNL     1       2.793   2.031   3.912  0.00  0.00    -0.494 OA
ENDBRANCH  18  28
BRANCH  20  29
ATOM     29  O   UNL     1      -0.940   0.881   1.211  0.00  0.00    -0.493 OA
ATOM     30  C   UNL     1      -0.329   1.650   0.174  0.00  0.00    +0.277 C 
ENDBRANCH  20  29
ENDBRANCH   1  23
TORSDOF 5
