REMARK  Name = ZINC48738775
REMARK  8 active torsions:
REMARK  status: ('A' for Active; 'I' for Inactive)
REMARK    1  A    between atoms: C_1  and  C_2
REMARK    2  A    between atoms: C_5  and  C_7
REMARK    3  A    between atoms: C_7  and  C_9
REMARK    4  A    between atoms: C_7  and  N_10
REMARK    5  A    between atoms: N_10  and  C_11
REMARK    6  A    between atoms: C_12  and  N_18
REMARK    7  A    between atoms: C_13  and  C_17
REMARK    8  A    between atoms: N_15  and  C_16
REMARK                            x       y       z     vdW  Elec       q    Type
REMARK                         _______ _______ _______ _____ _____    ______ ____
ROOT
ATOM      1  N   UNL     1       2.205  -4.143   0.866  0.00  0.00    -0.320 N 
ATOM      2  H   UNL     1       2.674  -3.330   1.112  0.00  0.00    +0.148 HD
ENDROOT
BRANCH   1   3
ATOM      3  C   UNL     1       2.502  -5.340   1.511  0.00  0.00    +0.148 A 
ATOM      4  C   UNL     1       1.667  -6.407   1.650  0.00  0.00    +0.188 A 
ATOM      5  C   UNL     1       2.354  -7.397   2.359  0.00  0.00    +0.092 A 
ATOM      6  N   UNL     1       3.551  -6.948   2.638  0.00  0.00    -0.173 NA
ATOM      7  N   UNL     1       3.673  -5.657   2.110  0.00  0.00    -0.251 N 
ATOM      8  C   UNL     1       4.857  -4.799   2.193  0.00  0.00    +0.174 C 
ATOM      9  C   UNL     1       1.808  -8.749   2.739  0.00  0.00    +0.070 C 
BRANCH   4  10
ATOM     10  N   UNL     1       0.280  -6.501   1.142  0.00  0.00    +0.062 N 
ATOM     11  O   UNL     1       0.071  -6.937   0.033  0.00  0.00    -0.126 OA
ATOM     12  O   UNL     1      -0.643  -6.143   1.835  0.00  0.00    -0.126 OA
ENDBRANCH   4  10
ENDBRANCH   1   3
BRANCH   1  13
ATOM     13  C   UNL     1       1.186  -4.110  -0.186  0.00  0.00    +0.106 C 
ATOM     14  C   UNL     1       1.779  -4.654  -1.488  0.00  0.00    +0.033 C 
BRANCH  13  19
ATOM     15  C   UNL     1       0.417   1.461  -0.869  0.00  0.00    +0.051 C 
ATOM     16  C   UNL     1       0.361  -0.038  -0.722  0.00  0.00    -0.013 A 
ATOM     17  C   UNL     1      -0.712  -0.864  -0.792  0.00  0.00    +0.011 A 
ATOM     18  C   UNL     1      -0.524  -2.223  -0.626  0.00  0.00    +0.013 A 
ATOM     19  C   UNL     1       0.728  -2.690  -0.398  0.00  0.00    +0.010 A 
ATOM     20  S   UNL     1       1.693  -1.189  -0.419  0.00  0.00    -0.097 S 
ENDBRANCH  13  19
ENDBRANCH   1  13
TORSDOF 4
