REMARK  Name = ZINC09052807
REMARK  13 active torsions:
REMARK  status: ('A' for Active; 'I' for Inactive)
REMARK    1  A    between atoms: C_1  and  C_2
REMARK    2  A    between atoms: C_2  and  C_4
REMARK    3  A    between atoms: C_2  and  C_5
REMARK    4  A    between atoms: C_5  and  C_7
REMARK    5  A    between atoms: C_5  and  N_18
REMARK    6  A    between atoms: N_9  and  C_10
REMARK    7  A    between atoms: N_9  and  C_11
REMARK    8  A    between atoms: C_11  and  C_12
REMARK    9  A    between atoms: C_19  and  C_21
REMARK   10  A    between atoms: C_25  and  C_29
REMARK   11  A    between atoms: C_29  and  N_30
REMARK   12  A    between atoms: N_30  and  S_31
REMARK   13  A    between atoms: S_31  and  C_34
REMARK                            x       y       z     vdW  Elec       q    Type
REMARK                         _______ _______ _______ _____ _____    ______ ____
ROOT
ATOM      1  N   UNL     1      -0.869   0.596  -4.179  0.00  0.00    -0.304 N 
ATOM      2  C   UNL     1      -0.587   0.009  -2.999  0.00  0.00    +0.217 C 
ATOM      3  O   UNL     1       0.511  -0.468  -2.807  0.00  0.00    -0.275 OA
ATOM      4  H   UNL     1      -1.748   0.978  -4.332  0.00  0.00    +0.149 HD
ENDROOT
BRANCH   2   5
ATOM      5  C   UNL     1      -1.635  -0.054  -1.918  0.00  0.00    +0.075 C 
ATOM      6  C   UNL     1      -1.061  -0.766  -0.692  0.00  0.00    +0.013 C 
ATOM      7  C   UNL     1      -2.126  -0.830   0.406  0.00  0.00    +0.005 C 
ATOM      8  C   UNL     1      -2.548   0.590   0.790  0.00  0.00    +0.005 C 
ATOM      9  C   UNL     1      -3.122   1.302  -0.436  0.00  0.00    +0.005 C 
ATOM     10  C   UNL     1      -2.057   1.365  -1.533  0.00  0.00    +0.013 C 
BRANCH   8  11
ATOM     11  C   UNL     1      -3.612   0.526   1.887  0.00  0.00    +0.109 C 
BRANCH  11  12
ATOM     12  N   UNL     1      -3.028  -0.048   3.102  0.00  0.00    -0.190 NA
ATOM     13  H   UNL     1      -2.178  -0.513   3.059  0.00  0.00    +0.148 HD
BRANCH  12  14
ATOM     14  S   UNL     1      -3.818   0.098   4.550  0.00  0.00    +0.058 S 
ATOM     15  O   UNL     1      -3.023  -0.574   5.517  0.00  0.00    -0.153 OA
ATOM     16  O   UNL     1      -4.180   1.466   4.679  0.00  0.00    -0.153 OA
BRANCH  14  17
ATOM     17  C   UNL     1      -5.322  -0.810   4.416  0.00  0.00    +0.105 A 
ATOM     18  C   UNL     1      -6.470  -0.184   3.966  0.00  0.00    +0.028 A 
ATOM     19  C   UNL     1      -7.649  -0.898   3.857  0.00  0.00    +0.002 A 
ATOM     20  C   UNL     1      -7.682  -2.235   4.207  0.00  0.00    +0.000 A 
ATOM     21  C   UNL     1      -6.536  -2.859   4.662  0.00  0.00    +0.002 A 
ATOM     22  C   UNL     1      -5.356  -2.147   4.766  0.00  0.00    +0.028 A 
ENDBRANCH  14  17
ENDBRANCH  12  14
ENDBRANCH  11  12
ENDBRANCH   8  11
ENDBRANCH   2   5
BRANCH   1  23
ATOM     23  C   UNL     1       0.150   0.657  -5.229  0.00  0.00    +0.162 C 
BRANCH  23  24
ATOM     24  C   UNL     1      -0.139   1.821  -6.142  0.00  0.00    +0.236 C 
ATOM     25  O   UNL     1      -1.286   2.137  -6.378  0.00  0.00    -0.274 OA
ATOM     26  N   UNL     1       0.878   2.511  -6.696  0.00  0.00    -0.299 N 
ATOM     27  C   UNL     1       2.260   2.219  -6.306  0.00  0.00    +0.132 C 
BRANCH  26  28
ATOM     28  C   UNL     1       0.601   3.554  -7.687  0.00  0.00    +0.142 C 
BRANCH  28  29
ATOM     29  C   UNL     1       0.418   4.876  -6.987  0.00  0.00    -0.030 A 
ATOM     30  C   UNL     1      -0.841   5.269  -6.571  0.00  0.00    +0.005 A 
ATOM     31  C   UNL     1      -1.008   6.480  -5.926  0.00  0.00    +0.000 A 
ATOM     32  C   UNL     1       0.081   7.302  -5.705  0.00  0.00    +0.000 A 
ATOM     33  C   UNL     1       1.338   6.912  -6.126  0.00  0.00    +0.000 A 
ATOM     34  C   UNL     1       1.507   5.699  -6.767  0.00  0.00    +0.005 A 
ENDBRANCH  28  29
ENDBRANCH  26  28
ENDBRANCH  23  24
BRANCH  23  36
ATOM     35  C   UNL     1       1.125  -0.540  -7.193  0.00  0.00    +0.009 C 
ATOM     36  C   UNL     1       0.129  -0.642  -6.037  0.00  0.00    +0.012 C 
ATOM     37  C   UNL     1       0.516  -1.812  -5.131  0.00  0.00    +0.009 C 
ENDBRANCH  23  36
ENDBRANCH   1  23
TORSDOF 10
