REMARK  Name = ZINC64640463
REMARK  8 active torsions:
REMARK  status: ('A' for Active; 'I' for Inactive)
REMARK    1  A    between atoms: C_1  and  C_2
REMARK    2  A    between atoms: C_6  and  C_12
REMARK    3  A    between atoms: C_10  and  C_11
REMARK    4  A    between atoms: C_12  and  N_13
REMARK    5  A    between atoms: N_13  and  C_14
REMARK    6  A    between atoms: C_15  and  C_17
REMARK    7  A    between atoms: N_19  and  C_22
REMARK    8  A    between atoms: C_22  and  C_23
REMARK                            x       y       z     vdW  Elec       q    Type
REMARK                         _______ _______ _______ _____ _____    ______ ____
ROOT
ATOM      1  N   UNL     1      -2.461  -4.360  -1.436  0.00  0.00    -0.295 N 
ATOM      2  C   UNL     1      -3.260  -3.309  -2.072  0.00  0.00    +0.132 C 
ATOM      3  C   UNL     1      -2.901  -4.950  -0.307  0.00  0.00    +0.268 C 
ATOM      4  O   UNL     1      -2.196  -5.754   0.273  0.00  0.00    -0.268 OA
ENDROOT
BRANCH   3   5
ATOM      5  C   UNL     1      -4.237  -4.622   0.225  0.00  0.00    +0.167 A 
ATOM      6  C   UNL     1      -4.751  -5.053   1.415  0.00  0.00    +0.143 A 
ATOM      7  N   UNL     1      -5.988  -4.529   1.519  0.00  0.00    -0.251 N 
ATOM      8  N   UNL     1      -6.206  -3.770   0.360  0.00  0.00    -0.065 NA
ATOM      9  N   UNL     1      -5.152  -3.843  -0.377  0.00  0.00    -0.125 NA
BRANCH   7  10
ATOM     10  C   UNL     1      -6.926  -4.715   2.629  0.00  0.00    +0.148 C 
BRANCH  10  11
ATOM     11  C   UNL     1      -7.356  -3.350   3.168  0.00  0.00    +0.010 C 
ATOM     12  C   UNL     1      -6.146  -2.637   3.776  0.00  0.00    +0.005 C 
ATOM     13  C   UNL     1      -6.577  -1.271   4.315  0.00  0.00    +0.000 C 
ATOM     14  C   UNL     1      -7.649  -1.462   5.390  0.00  0.00    +0.000 C 
ATOM     15  C   UNL     1      -8.858  -2.175   4.783  0.00  0.00    +0.000 C 
ATOM     16  C   UNL     1      -8.428  -3.541   4.243  0.00  0.00    +0.005 C 
ENDBRANCH  10  11
ENDBRANCH   7  10
ENDBRANCH   3   5
BRANCH   1  17
ATOM     17  C   UNL     1      -1.185  -4.769  -2.027  0.00  0.00    +0.154 C 
BRANCH  17  23
ATOM     18  C   UNL     1      -0.937   1.350   1.372  0.00  0.00    +0.044 C 
ATOM     19  C   UNL     1      -0.695  -0.100   1.038  0.00  0.00    -0.045 A 
ATOM     20  C   UNL     1      -0.633  -0.463  -0.259  0.00  0.00    +0.031 A 
ATOM     21  C   UNL     1      -0.398  -1.871  -0.606  0.00  0.00    +0.060 A 
ATOM     22  N   UNL     1      -0.293  -2.497  -1.743  0.00  0.00    -0.362 N 
ATOM     23  C   UNL     1      -0.056  -3.915  -1.446  0.00  0.00    +0.192 C 
ATOM     24  N   UNL     1      -0.037  -4.034   0.018  0.00  0.00    -0.362 N 
ATOM     25  C   UNL     1      -0.236  -2.844   0.508  0.00  0.00    +0.060 A 
ATOM     26  C   UNL     1      -0.322  -2.333   1.883  0.00  0.00    +0.031 A 
ATOM     27  C   UNL     1      -0.537  -1.018   2.091  0.00  0.00    -0.045 A 
ATOM     28  C   UNL     1      -0.617  -0.513   3.509  0.00  0.00    +0.044 C 
ATOM     29  H   UNL     1      -0.359  -2.099  -2.625  0.00  0.00    +0.162 HD
ATOM     30  H   UNL     1       0.098  -4.849   0.526  0.00  0.00    +0.162 HD
ENDBRANCH  17  23
ENDBRANCH   1  17
TORSDOF 5
