REMARK  Name = ZINC50037489
REMARK  4 active torsions:
REMARK  status: ('A' for Active; 'I' for Inactive)
REMARK    1  A    between atoms: C_1  and  C_2
REMARK    2  A    between atoms: C_7  and  N_10
REMARK    3  A    between atoms: C_11  and  C_13
REMARK    4  A    between atoms: C_18  and  N_19
REMARK                            x       y       z     vdW  Elec       q    Type
REMARK                         _______ _______ _______ _____ _____    ______ ____
ROOT
ATOM      1  N   UNL     1      -0.383  -2.840   2.022  0.00  0.00    -0.308 N 
ATOM      2  C   UNL     1      -0.791  -4.122   2.102  0.00  0.00    +0.247 C 
ATOM      3  O   UNL     1       0.016  -5.004   2.322  0.00  0.00    -0.270 OA
ATOM      4  H   UNL     1      -1.027  -2.136   1.847  0.00  0.00    +0.149 HD
ENDROOT
BRANCH   2   5
ATOM      5  C   UNL     1      -2.219  -4.455   1.923  0.00  0.00    +0.070 A 
ATOM      6  C   UNL     1      -3.189  -3.832   2.711  0.00  0.00    +0.056 A 
ATOM      7  C   UNL     1      -4.521  -4.147   2.539  0.00  0.00    +0.159 A 
ATOM      8  C   UNL     1      -4.897  -5.082   1.583  0.00  0.00    +0.161 A 
ATOM      9  C   UNL     1      -3.938  -5.703   0.799  0.00  0.00    +0.074 A 
ATOM     10  C   UNL     1      -2.604  -5.390   0.960  0.00  0.00    +0.141 A 
ATOM     11  F   UNL     1      -6.203  -5.388   1.418  0.00  0.00    -0.202 F 
ATOM     12  F   UNL     1      -5.461  -3.546   3.301  0.00  0.00    -0.202 F 
BRANCH  10  13
ATOM     13  N   UNL     1      -1.582  -6.050   0.117  0.00  0.00    +0.057 N 
ATOM     14  O   UNL     1      -1.901  -6.946  -0.629  0.00  0.00    -0.126 OA
ATOM     15  O   UNL     1      -0.429  -5.692   0.174  0.00  0.00    -0.126 OA
ENDBRANCH  10  13
ENDBRANCH   2   5
BRANCH   1  21
ATOM     16  C   UNL     1       0.676   1.323   2.121  0.00  0.00    +0.007 C 
ATOM     17  C   UNL     1       0.546  -0.124   1.641  0.00  0.00    -0.012 C 
ATOM     18  C   UNL     1       1.280  -0.286   0.308  0.00  0.00    +0.003 C 
ATOM     19  C   UNL     1       1.150  -1.734  -0.171  0.00  0.00    +0.002 C 
ATOM     20  C   UNL     1       1.766  -2.672   0.868  0.00  0.00    +0.022 C 
ATOM     21  C   UNL     1       1.033  -2.510   2.201  0.00  0.00    +0.073 C 
ATOM     22  C   UNL     1       1.162  -1.063   2.680  0.00  0.00    +0.025 C 
ENDBRANCH   1  21
TORSDOF 3
