REMARK  Name = ZINC08654611
REMARK  8 active torsions:
REMARK  status: ('A' for Active; 'I' for Inactive)
REMARK    1  A    between atoms: C_1  and  C_2
REMARK    2  A    between atoms: C_2  and  O_3
REMARK    3  A    between atoms: O_3  and  C_4
REMARK    4  A    between atoms: C_6  and  C_11
REMARK    5  A    between atoms: C_9  and  O_10
REMARK    6  A    between atoms: C_19  and  C_30
REMARK    7  A    between atoms: C_24  and  C_29
REMARK    8  A    between atoms: C_26  and  C_28
REMARK                            x       y       z     vdW  Elec       q    Type
REMARK                         _______ _______ _______ _____ _____    ______ ____
ROOT
ATOM      1  C   UNL     1      -0.229  -4.969   0.477  0.00  0.00    +0.063 C 
ATOM      2  C   UNL     1       0.879  -5.854   1.056  0.00  0.00    +0.109 C 
ATOM      3  C   UNL     1       1.270  -6.937   0.089  0.00  0.00    +0.219 C 
ATOM      4  O   UNL     1       2.439  -7.245  -0.007  0.00  0.00    -0.275 OA
ATOM      5  N   UNL     1       0.360  -7.578  -0.674  0.00  0.00    -0.270 N 
ATOM      6  C   UNL     1      -0.942  -7.082  -0.699  0.00  0.00    +0.136 A 
ATOM      7  C   UNL     1      -1.261  -5.860  -0.165  0.00  0.00    +0.023 A 
ATOM      8  C   UNL     1      -2.623  -5.657  -0.340  0.00  0.00    +0.066 A 
ATOM      9  N   UNL     1      -3.119  -6.699  -0.965  0.00  0.00    -0.167 NA
ATOM     10  N   UNL     1      -2.075  -7.609  -1.212  0.00  0.00    -0.183 N 
ATOM     11  C   UNL     1      -2.188  -8.834  -1.868  0.00  0.00    +0.253 A 
ATOM     12  N   UNL     1      -1.111  -9.587  -2.020  0.00  0.00    -0.216 NA
ATOM     13  C   UNL     1      -1.183 -10.754  -2.638  0.00  0.00    +0.044 A 
ATOM     14  C   UNL     1      -2.407 -11.186  -3.126  0.00  0.00    +0.046 A 
ATOM     15  C   UNL     1      -3.514 -10.371  -2.948  0.00  0.00    +0.044 A 
ATOM     16  N   UNL     1      -3.372  -9.218  -2.317  0.00  0.00    -0.216 NA
ATOM     17  C   UNL     1      -4.865 -10.798  -3.463  0.00  0.00    +0.066 C 
ATOM     18  C   UNL     1       0.049 -11.605  -2.808  0.00  0.00    +0.066 C 
ATOM     19  C   UNL     1      -3.399  -4.447   0.112  0.00  0.00    +0.068 C 
ATOM     20  H   UNL     1       0.605  -8.361  -1.192  0.00  0.00    +0.156 HD
ENDROOT
BRANCH   1  23
ATOM     21  C   UNL     1       0.777  -1.811  -1.336  0.00  0.00    +0.162 A 
ATOM     22  C   UNL     1       0.243  -2.669  -0.388  0.00  0.00    +0.053 A 
ATOM     23  C   UNL     1       0.352  -4.037  -0.555  0.00  0.00    -0.036 A 
ATOM     24  C   UNL     1       0.992  -4.552  -1.667  0.00  0.00    +0.008 A 
ATOM     25  C   UNL     1       1.526  -3.702  -2.616  0.00  0.00    +0.049 A 
ATOM     26  C   UNL     1       1.416  -2.330  -2.458  0.00  0.00    +0.158 A 
BRANCH  26  27
ATOM     27  O   UNL     1       1.936  -1.492  -3.394  0.00  0.00    -0.503 OA
ATOM     28  H   UNL     1       2.856  -1.241  -3.231  0.00  0.00    +0.292 HD
ENDBRANCH  26  27
BRANCH  21  29
ATOM     29  O   UNL     1       0.671  -0.465  -1.174  0.00  0.00    -0.489 OA
BRANCH  29  31
ATOM     30  C   UNL     1      -0.019   1.526   0.010  0.00  0.00    +0.048 C 
ATOM     31  C   UNL     1       0.002  -0.004   0.002  0.00  0.00    +0.226 C 
ENDBRANCH  29  31
ENDBRANCH  21  29
ENDBRANCH   1  23
TORSDOF 4
