REMARK  Name = ZINC37419852
REMARK  14 active torsions:
REMARK  status: ('A' for Active; 'I' for Inactive)
REMARK    1  A    between atoms: C_1  and  C_2
REMARK    2  A    between atoms: C_2  and  C_3
REMARK    3  A    between atoms: C_2  and  C_4
REMARK    4  A    between atoms: C_4  and  N_5
REMARK    5  A    between atoms: C_6  and  C_8
REMARK    6  A    between atoms: C_8  and  O_32
REMARK    7  A    between atoms: C_14  and  O_17
REMARK    8  A    between atoms: O_17  and  C_18
REMARK    9  A    between atoms: C_18  and  C_19
REMARK   10  A    between atoms: C_28  and  C_30
REMARK   11  A    between atoms: C_28  and  C_31
REMARK   12  A    between atoms: O_32  and  C_33
REMARK   13  A    between atoms: C_33  and  C_34
REMARK   14  A    between atoms: C_39  and  C_40
REMARK                            x       y       z     vdW  Elec       q    Type
REMARK                         _______ _______ _______ _____ _____    ______ ____
ROOT
ATOM      1  C   UNL     1      -4.154  -0.112  -2.602  0.00  0.00    +0.150 C 
ATOM      2  C   UNL     1      -5.622  -0.044  -2.180  0.00  0.00    +0.079 C 
ATOM      3  C   UNL     1      -6.521   0.261  -3.353  0.00  0.00    +0.156 C 
ATOM      4  C   UNL     1      -6.297  -0.670  -4.558  0.00  0.00    +0.179 C 
ATOM      5  C   UNL     1      -4.806  -0.786  -4.886  0.00  0.00    +0.153 C 
ATOM      6  C   UNL     1      -4.010  -1.205  -3.666  0.00  0.00    +0.079 C 
ATOM      7  O   UNL     1      -6.906   0.094  -5.633  0.00  0.00    -0.341 OA
ATOM      8  C   UNL     1      -6.867   1.473  -5.237  0.00  0.00    +0.165 C 
ATOM      9  O   UNL     1      -6.279   1.556  -3.928  0.00  0.00    -0.343 OA
ATOM     10  C   UNL     1      -6.014   2.269  -6.227  0.00  0.00    +0.074 C 
ATOM     11  C   UNL     1      -8.287   2.042  -5.214  0.00  0.00    +0.074 C 
ENDROOT
BRANCH   1  13
ATOM     12  N   UNL     1      -2.857   0.533  -0.596  0.00  0.00    -0.313 N 
ATOM     13  C   UNL     1      -3.298  -0.448  -1.408  0.00  0.00    +0.245 C 
ATOM     14  O   UNL     1      -3.005  -1.603  -1.178  0.00  0.00    -0.273 OA
ATOM     15  H   UNL     1      -3.037   1.461  -0.815  0.00  0.00    +0.149 HD
BRANCH  12  16
ATOM     16  C   UNL     1      -2.108   0.199   0.617  0.00  0.00    +0.107 C 
BRANCH  16  18
ATOM     17  C   UNL     1      -2.998   2.186   1.842  0.00  0.00    +0.009 C 
ATOM     18  C   UNL     1      -1.729   1.485   1.353  0.00  0.00    -0.000 C 
ATOM     19  C   UNL     1      -0.841   1.145   2.552  0.00  0.00    +0.009 C 
ENDBRANCH  16  18
ENDBRANCH  12  16
ENDBRANCH   1  13
BRANCH   5  20
ATOM     20  O   UNL     1      -4.626  -1.760  -5.916  0.00  0.00    -0.369 OA
BRANCH  20  21
ATOM     21  C   UNL     1      -3.500  -1.512  -6.760  0.00  0.00    +0.198 C 
BRANCH  21  22
ATOM     22  C   UNL     1      -3.407  -2.595  -7.804  0.00  0.00    +0.016 A 
ATOM     23  C   UNL     1      -4.342  -3.613  -7.829  0.00  0.00    +0.009 A 
ATOM     24  C   UNL     1      -4.258  -4.607  -8.786  0.00  0.00    +0.003 A 
ATOM     25  C   UNL     1      -3.238  -4.585  -9.720  0.00  0.00    +0.041 A 
ATOM     26  C   UNL     1      -2.301  -3.568  -9.697  0.00  0.00    +0.159 A 
ATOM     27  C   UNL     1      -2.388  -2.567  -8.740  0.00  0.00    +0.164 A 
ATOM     28  F   UNL     1      -1.478  -1.570  -8.720  0.00  0.00    -0.202 F 
ATOM     29  F   UNL     1      -1.304  -3.546 -10.609  0.00  0.00    -0.202 F 
ENDBRANCH  21  22
ENDBRANCH  20  21
ENDBRANCH   5  20
BRANCH   1  30
ATOM     30  O   UNL     1      -3.750   1.147  -3.145  0.00  0.00    -0.359 OA
BRANCH  30  31
ATOM     31  C   UNL     1      -2.399   1.171  -3.611  0.00  0.00    +0.197 C 
BRANCH  31  32
ATOM     32  C   UNL     1      -2.095   2.526  -4.198  0.00  0.00    -0.005 A 
ATOM     33  C   UNL     1      -3.066   3.506  -4.215  0.00  0.00    +0.007 A 
ATOM     34  C   UNL     1      -2.788   4.750  -4.753  0.00  0.00    +0.000 A 
ATOM     35  C   UNL     1      -1.537   5.019  -5.280  0.00  0.00    +0.001 A 
ATOM     36  C   UNL     1      -0.557   4.048  -5.270  0.00  0.00    +0.019 A 
ATOM     37  C   UNL     1      -0.829   2.793  -4.722  0.00  0.00    +0.057 A 
BRANCH  37  38
ATOM     38  C   UNL     1       0.186   1.782  -4.703  0.00  0.00    +0.100 C 
ATOM     39  N   UNL     1       0.990   0.980  -4.688  0.00  0.00    -0.191 NA
ENDBRANCH  37  38
ENDBRANCH  31  32
ENDBRANCH  30  31
ENDBRANCH   1  30
TORSDOF 10
