REMARK  Name = ZINC13570619
REMARK  11 active torsions:
REMARK  status: ('A' for Active; 'I' for Inactive)
REMARK    1  A    between atoms: C_1  and  C_2
REMARK    2  A    between atoms: C_2  and  O_3
REMARK    3  A    between atoms: O_3  and  C_4
REMARK    4  A    between atoms: C_7  and  C_10
REMARK    5  A    between atoms: C_10  and  C_11
REMARK    6  A    between atoms: N_13  and  C_14
REMARK    7  A    between atoms: C_14  and  C_16
REMARK    8  A    between atoms: C_14  and  C_20
REMARK    9  A    between atoms: C_16  and  C_17
REMARK   10  A    between atoms: C_17  and  S_18
REMARK   11  A    between atoms: S_18  and  C_19
REMARK                            x       y       z     vdW  Elec       q    Type
REMARK                         _______ _______ _______ _____ _____    ______ ____
ROOT
ATOM      1  C   UNL     1      -1.393  -8.355  -3.699  0.00  0.00    +0.160 C 
ENDROOT
BRANCH   1   2
ATOM      2  C   UNL     1      -1.100  -9.635  -4.439  0.00  0.00    +0.236 C 
ATOM      3  O   UNL     1      -0.334 -10.447  -3.966  0.00  0.00    -0.274 OA
ATOM      4  N   UNL     1      -1.688  -9.876  -5.627  0.00  0.00    -0.300 N 
ATOM      5  C   UNL     1      -2.532  -8.857  -6.266  0.00  0.00    +0.110 C 
ATOM      6  C   UNL     1      -3.896  -9.477  -6.587  0.00  0.00    +0.047 C 
ATOM      7  C   UNL     1      -3.692 -10.741  -7.423  0.00  0.00    +0.064 C 
ATOM      8  C   UNL     1      -2.872 -11.759  -6.631  0.00  0.00    +0.047 C 
ATOM      9  C   UNL     1      -1.493 -11.162  -6.312  0.00  0.00    +0.110 C 
ATOM     10  C   UNL     1      -5.029 -11.333  -7.783  0.00  0.00    +0.057 A 
ATOM     11  C   UNL     1      -5.595 -11.217  -9.006  0.00  0.00    +0.039 A 
ATOM     12  N   UNL     1      -6.766 -11.854  -8.981  0.00  0.00    -0.349 N 
ATOM     13  C   UNL     1      -6.952 -12.361  -7.790  0.00  0.00    +0.171 A 
ATOM     14  N   UNL     1      -5.886 -12.055  -7.014  0.00  0.00    -0.348 N 
ATOM     15  H   UNL     1      -5.758 -12.303  -6.085  0.00  0.00    +0.166 HD
ATOM     16  C   UNL     1      -4.944 -10.473 -10.146  0.00  0.00    +0.070 C 
ATOM     17  C   UNL     1      -3.829  -9.596  -9.562  0.00  0.00    +0.088 C 
ATOM     18  N   UNL     1      -2.984 -10.399  -8.667  0.00  0.00    -0.305 NA
ATOM     19  H   UNL     1      -2.115  -9.927  -8.470  0.00  0.00    +0.123 HD
ATOM     20  H   UNL     1      -7.382 -11.929  -9.727  0.00  0.00    +0.166 HD
ENDBRANCH   1   2
BRANCH   1  23
ATOM     21  C   UNL     1      -0.055  -6.779  -2.411  0.00  0.00    +0.218 C 
ATOM     22  O   UNL     1      -0.765  -5.886  -2.821  0.00  0.00    -0.275 OA
ATOM     23  N   UNL     1      -0.285  -8.051  -2.790  0.00  0.00    -0.304 N 
ATOM     24  H   UNL     1       0.283  -8.766  -2.462  0.00  0.00    +0.149 HD
BRANCH  21  25
ATOM     25  C   UNL     1       1.085  -6.466  -1.476  0.00  0.00    +0.130 C 
BRANCH  25  29
ATOM     26  C   UNL     1       1.198  -2.261  -0.724  0.00  0.00    +0.121 A 
ATOM     27  C   UNL     1       0.450  -3.093   0.095  0.00  0.00    +0.046 A 
ATOM     28  C   UNL     1       0.414  -4.452  -0.150  0.00  0.00    +0.007 A 
ATOM     29  C   UNL     1       1.125  -4.983  -1.211  0.00  0.00    -0.038 A 
ATOM     30  C   UNL     1       1.873  -4.156  -2.028  0.00  0.00    +0.007 A 
ATOM     31  C   UNL     1       1.906  -2.795  -1.791  0.00  0.00    +0.046 A 
BRANCH  26  32
ATOM     32  O   UNL     1       1.234  -0.924  -0.485  0.00  0.00    -0.492 OA
BRANCH  32  34
ATOM     33  C   UNL     1       0.643   1.074   0.740  0.00  0.00    +0.048 C 
ATOM     34  C   UNL     1       0.481  -0.444   0.631  0.00  0.00    +0.225 C 
ENDBRANCH  32  34
ENDBRANCH  26  32
ENDBRANCH  25  29
ENDBRANCH  21  25
ENDBRANCH   1  23
BRANCH   1  35
ATOM     35  C   UNL     1      -2.684  -8.517  -2.893  0.00  0.00    +0.042 C 
BRANCH  35  36
ATOM     36  C   UNL     1      -3.063  -7.176  -2.263  0.00  0.00    +0.071 C 
BRANCH  36  37
ATOM     37  S   UNL     1      -4.593  -7.367  -1.307  0.00  0.00    -0.164 S 
ATOM     38  C   UNL     1      -4.901  -5.711  -0.635  0.00  0.00    +0.084 C 
ENDBRANCH  36  37
ENDBRANCH  35  36
ENDBRANCH   1  35
TORSDOF 9
