REMARK  Name = ZINC64887823
REMARK  8 active torsions:
REMARK  status: ('A' for Active; 'I' for Inactive)
REMARK    1  A    between atoms: C_1  and  C_2
REMARK    2  A    between atoms: N_5  and  C_8
REMARK    3  A    between atoms: C_8  and  C_9
REMARK    4  A    between atoms: C_9  and  N_10
REMARK    5  A    between atoms: N_10  and  C_11
REMARK    6  A    between atoms: C_21  and  C_23
REMARK    7  A    between atoms: C_23  and  O_25
REMARK    8  A    between atoms: O_25  and  C_26
REMARK                            x       y       z     vdW  Elec       q    Type
REMARK                         _______ _______ _______ _____ _____    ______ ____
ROOT
ATOM      1  C   UNL     1       3.735  -5.700   1.685  0.00  0.00    +0.036 C 
ATOM      2  C   UNL     1       3.643  -6.982   1.125  0.00  0.00    +0.016 A 
ATOM      3  C   UNL     1       3.188  -7.157  -0.196  0.00  0.00    +0.011 A 
ATOM      4  C   UNL     1       3.107  -8.411  -0.722  0.00  0.00    +0.002 A 
ATOM      5  C   UNL     1       3.466  -9.530   0.021  0.00  0.00    +0.022 A 
ATOM      6  C   UNL     1       3.917  -9.421   1.314  0.00  0.00    +0.063 A 
ATOM      7  C   UNL     1       4.023  -8.154   1.914  0.00  0.00    +0.061 A 
ATOM      8  N   UNL     1       4.464  -8.049   3.176  0.00  0.00    -0.283 N 
ATOM      9  C   UNL     1       4.593  -6.902   3.809  0.00  0.00    +0.237 C 
ATOM     10  O   UNL     1       5.000  -6.884   4.956  0.00  0.00    -0.274 OA
ATOM     11  C   UNL     1       4.242  -5.607   3.112  0.00  0.00    +0.228 C 
ATOM     12 CL   UNL     1       4.354 -10.845   2.206  0.00  0.00    -0.082 Cl
ATOM     13  H   UNL     1       4.701  -8.862   3.648  0.00  0.00    +0.155 HD
ENDROOT
BRANCH   1  14
ATOM     14  N   UNL     1       3.395  -4.606   0.991  0.00  0.00    -0.347 N 
ATOM     15  H   UNL     1       3.038  -4.693   0.093  0.00  0.00    +0.146 HD
BRANCH  14  16
ATOM     16  C   UNL     1       3.563  -3.278   1.587  0.00  0.00    +0.083 C 
BRANCH  16  17
ATOM     17  C   UNL     1       3.240  -2.206   0.544  0.00  0.00    -0.060 C 
BRANCH  17  22
ATOM     18  C   UNL     1       2.788   3.126   2.514  0.00  0.00    +0.007 C 
ATOM     19  C   UNL     1       2.488   1.776   1.860  0.00  0.00    -0.018 C 
ATOM     20  C   UNL     1       3.469   1.536   0.709  0.00  0.00    -0.016 C 
ATOM     21  C   UNL     1       3.215   0.151   0.110  0.00  0.00    -0.079 C 
ATOM     22  N   UNL     1       3.409  -0.875   1.142  0.00  0.00    +0.381 N 
ATOM     23  C   UNL     1       2.424  -0.694   2.215  0.00  0.00    -0.079 C 
ATOM     24  C   UNL     1       2.647   0.659   2.895  0.00  0.00    -0.016 C 
ATOM     25  H   UNL     1       4.339  -0.795   1.524  0.00  0.00    -0.082 HD
ENDBRANCH  17  22
ENDBRANCH  16  17
ENDBRANCH  14  16
ENDBRANCH   1  14
BRANCH  11  26
ATOM     26  C   UNL     1       3.186  -4.916   3.935  0.00  0.00    +0.325 C 
ATOM     27  O   UNL     1       2.016  -5.126   3.716  0.00  0.00    -0.250 OA
BRANCH  26  28
ATOM     28  O   UNL     1       3.544  -4.067   4.910  0.00  0.00    -0.467 OA
ATOM     29  C   UNL     1       2.490  -3.447   5.650  0.00  0.00    +0.280 C 
ENDBRANCH  26  28
ENDBRANCH  11  26
TORSDOF 6
