REMARK  Name = ZINC04670305
REMARK  4 active torsions:
REMARK  status: ('A' for Active; 'I' for Inactive)
REMARK    1  A    between atoms: C_1  and  C_2
REMARK    2  A    between atoms: C_8  and  N_10
REMARK    3  A    between atoms: C_11  and  C_13
REMARK    4  A    between atoms: N_23  and  C_24
REMARK                            x       y       z     vdW  Elec       q    Type
REMARK                         _______ _______ _______ _____ _____    ______ ____
ROOT
ATOM      1  C   UNL     1       0.873  -4.088  -2.457  0.00  0.00    +0.213 C 
ATOM      2  C   UNL     1       2.041  -4.578  -1.642  0.00  0.00    +0.049 A 
ATOM      3  C   UNL     1       2.182  -4.559  -0.307  0.00  0.00    +0.025 A 
ATOM      4  C   UNL     1       3.439  -5.125  -0.009  0.00  0.00    +0.019 A 
ATOM      5  C   UNL     1       4.018  -5.467  -1.179  0.00  0.00    +0.086 A 
ATOM      6  N   UNL     1       3.167  -5.135  -2.186  0.00  0.00    -0.340 N 
ATOM      7  C   UNL     1       3.367  -5.317  -3.625  0.00  0.00    +0.217 C 
ATOM      8  C   UNL     1       2.059  -5.156  -4.345  0.00  0.00    +0.241 C 
ATOM      9  O   UNL     1       1.994  -5.551  -5.490  0.00  0.00    -0.273 OA
ATOM     10  N   UNL     1       0.966  -4.612  -3.815  0.00  0.00    -0.252 N 
ENDROOT
BRANCH  10  11
ATOM     11  C   UNL     1      -0.177  -4.536  -4.620  0.00  0.00    +0.038 A 
ATOM     12  C   UNL     1      -1.296  -5.299  -4.313  0.00  0.00    +0.025 A 
ATOM     13  C   UNL     1      -2.423  -5.219  -5.106  0.00  0.00    +0.022 A 
ATOM     14  C   UNL     1      -2.436  -4.387  -6.212  0.00  0.00    +0.041 A 
ATOM     15  C   UNL     1      -1.320  -3.629  -6.523  0.00  0.00    +0.022 A 
ATOM     16  C   UNL     1      -0.192  -3.702  -5.730  0.00  0.00    +0.025 A 
ATOM     17 CL   UNL     1      -3.852  -4.295  -7.211  0.00  0.00    -0.084 Cl
ENDBRANCH  10  11
BRANCH   1  19
ATOM     18  N   UNL     1       0.806  -1.875  -1.353  0.00  0.00    -0.310 N 
ATOM     19  C   UNL     1       0.887  -2.582  -2.498  0.00  0.00    +0.240 C 
ATOM     20  O   UNL     1       0.972  -2.005  -3.562  0.00  0.00    -0.273 OA
ATOM     21  H   UNL     1       0.738  -2.336  -0.503  0.00  0.00    +0.149 HD
BRANCH  18  28
ATOM     22  C   UNL     1      -1.328  -0.355  -0.119  0.00  0.00    +0.009 C 
ATOM     23  C   UNL     1       0.119   0.140  -0.150  0.00  0.00    +0.006 C 
ATOM     24  C   UNL     1       0.134   1.670  -0.192  0.00  0.00    +0.005 C 
ATOM     25  C   UNL     1       1.581   2.165  -0.223  0.00  0.00    +0.000 C 
ATOM     26  C   UNL     1       2.282   1.614  -1.466  0.00  0.00    +0.002 C 
ATOM     27  C   UNL     1       2.268   0.085  -1.424  0.00  0.00    +0.022 C 
ATOM     28  C   UNL     1       0.820  -0.411  -1.393  0.00  0.00    +0.076 C 
ENDBRANCH  18  28
ENDBRANCH   1  19
TORSDOF 3
