REMARK  Name = ZINC36139304
REMARK  10 active torsions:
REMARK  status: ('A' for Active; 'I' for Inactive)
REMARK    1  A    between atoms: C_1  and  C_2
REMARK    2  A    between atoms: C_2  and  C_3
REMARK    3  A    between atoms: C_2  and  C_4
REMARK    4  A    between atoms: C_14  and  C_40
REMARK    5  A    between atoms: C_18  and  C_19
REMARK    6  A    between atoms: C_18  and  C_20
REMARK    7  A    between atoms: C_20  and  N_21
REMARK    8  A    between atoms: N_21  and  C_22
REMARK    9  A    between atoms: N_32  and  C_33
REMARK   10  A    between atoms: C_33  and  C_34
REMARK                            x       y       z     vdW  Elec       q    Type
REMARK                         _______ _______ _______ _____ _____    ______ ____
ROOT
ATOM      1  C   UNL     1      -7.553  -2.324  -2.971  0.00  0.00    -0.073 C 
ENDROOT
BRANCH   1  15
ATOM      2  C   UNL     1      -1.150  -0.088  -0.453  0.00  0.00    -0.045 A 
ATOM      3  C   UNL     1      -1.924   0.208   0.653  0.00  0.00    +0.004 A 
ATOM      4  C   UNL     1      -3.190  -0.332   0.765  0.00  0.00    +0.005 A 
ATOM      5  C   UNL     1      -3.686  -1.165  -0.223  0.00  0.00    -0.038 A 
ATOM      6  C   UNL     1      -2.920  -1.468  -1.327  0.00  0.00    -0.043 A 
ATOM      7  C   UNL     1      -1.645  -0.920  -1.435  0.00  0.00    +0.007 A 
ATOM      8  C   UNL     1      -3.379  -2.365  -2.444  0.00  0.00    +0.036 C 
ATOM      9  C   UNL     1      -4.699  -3.067  -2.120  0.00  0.00    +0.009 C 
ATOM     10  C   UNL     1      -5.621  -2.056  -1.440  0.00  0.00    +0.004 C 
ATOM     11  C   UNL     1      -5.080  -1.734  -0.059  0.00  0.00    -0.004 C 
ATOM     12  C   UNL     1      -5.978  -0.727   0.651  0.00  0.00    +0.011 C 
ATOM     13  C   UNL     1      -7.405  -1.274   0.721  0.00  0.00    +0.001 C 
ATOM     14  C   UNL     1      -7.952  -1.486  -0.684  0.00  0.00    +0.005 C 
ATOM     15  C   UNL     1      -7.081  -2.441  -1.502  0.00  0.00    -0.044 C 
ATOM     16  C   UNL     1      -7.328  -3.884  -1.060  0.00  0.00    +0.009 C 
ATOM     17  C   UNL     1      -4.945  -2.979   0.817  0.00  0.00    +0.016 C 
BRANCH   2  19
ATOM     18  C   UNL     1       0.141   2.024  -0.598  0.00  0.00    +0.012 C 
ATOM     19  C   UNL     1       0.233   0.497  -0.585  0.00  0.00    +0.013 C 
ATOM     20  C   UNL     1       1.092   0.047   0.598  0.00  0.00    +0.012 C 
ENDBRANCH   2  19
ENDBRANCH   1  15
BRANCH   1  21
ATOM     21  N   UNL     1      -8.997  -2.583  -3.045  0.00  0.00    +0.394 N 
ATOM     22  H   UNL     1      -9.188  -3.518  -2.719  0.00  0.00    -0.083 HD
ATOM     23  H   UNL     1      -9.487  -1.918  -2.465  0.00  0.00    -0.083 HD
BRANCH  21  24
ATOM     24  C   UNL     1      -9.449  -2.446  -4.436  0.00  0.00    +0.046 C 
ATOM     25  C   UNL     1      -9.422  -1.000  -4.851  0.00  0.00    -0.059 C 
ATOM     26  C   UNL     1     -10.670  -0.653  -5.169  0.00  0.00    +0.014 C 
ATOM     27  C   UNL     1     -11.066   0.729  -5.637  0.00  0.00    +0.040 C 
ATOM     28  C   UNL     1      -9.940   1.705  -5.278  0.00  0.00    +0.005 C 
ATOM     29  C   UNL     1      -8.601   1.141  -5.761  0.00  0.00    +0.005 C 
ATOM     30  C   UNL     1      -8.230  -0.081  -4.911  0.00  0.00    +0.031 C 
ATOM     31  C   UNL     1     -11.557  -1.805  -4.989  0.00  0.00    +0.241 C 
ATOM     32  O   UNL     1     -12.755  -1.802  -5.199  0.00  0.00    -0.270 OA
ATOM     33  N   UNL     1     -10.851  -2.871  -4.558  0.00  0.00    -0.305 N 
BRANCH  33  34
ATOM     34  C   UNL     1     -11.382  -4.204  -4.265  0.00  0.00    +0.138 C 
BRANCH  34  35
ATOM     35  C   UNL     1     -11.914  -4.238  -2.831  0.00  0.00    +0.136 C 
ATOM     36  C   UNL     1     -12.395  -5.663  -2.484  0.00  0.00    +0.035 C 
ATOM     37  C   UNL     1     -13.677  -5.385  -1.651  0.00  0.00    +0.031 C 
ATOM     38  C   UNL     1     -14.210  -4.109  -2.351  0.00  0.00    +0.160 C 
ATOM     39  O   UNL     1     -13.037  -3.357  -2.708  0.00  0.00    -0.375 OA
ENDBRANCH  34  35
ENDBRANCH  33  34
ENDBRANCH  21  24
ENDBRANCH   1  21
TORSDOF 6
