REMARK  Name = ZINC08622010
REMARK  11 active torsions:
REMARK  status: ('A' for Active; 'I' for Inactive)
REMARK    1  A    between atoms: C_1  and  C_2
REMARK    2  A    between atoms: C_5  and  N_8
REMARK    3  A    between atoms: C_9  and  C_35
REMARK    4  A    between atoms: C_11  and  C_14
REMARK    5  A    between atoms: C_12  and  C_13
REMARK    6  A    between atoms: C_14  and  C_16
REMARK    7  A    between atoms: C_16  and  O_17
REMARK    8  A    between atoms: O_17  and  C_18
REMARK    9  A    between atoms: C_18  and  C_20
REMARK   10  A    between atoms: C_20  and  N_21
REMARK   11  A    between atoms: C_28  and  N_32
REMARK                            x       y       z     vdW  Elec       q    Type
REMARK                         _______ _______ _______ _____ _____    ______ ____
ROOT
ATOM      1  O   UNL     1       2.124   5.084   1.675  0.00  0.00    -0.455 OA
ENDROOT
BRANCH   1   2
ATOM      2  C   UNL     1       1.778   3.812   1.427  0.00  0.00    +0.326 C 
ATOM      3  O   UNL     1       1.583   3.048   2.343  0.00  0.00    -0.249 OA
BRANCH   2   4
ATOM      4  C   UNL     1       1.633   3.334   0.004  0.00  0.00    +0.237 C 
BRANCH   4   5
ATOM      5  N   UNL     1       1.251   1.920   0.000  0.00  0.00    -0.223 N 
ATOM      6  C   UNL     1      -0.018   1.474   0.010  0.00  0.00    +0.254 C 
ATOM      7  O   UNL     1      -1.014   2.169   0.019  0.00  0.00    -0.270 OA
ATOM      8  C   UNL     1       0.002  -0.004   0.002  0.00  0.00    +0.052 A 
ATOM      9  C   UNL     1      -0.976  -0.985   0.006  0.00  0.00    +0.014 A 
ATOM     10  C   UNL     1      -0.609  -2.322  -0.005  0.00  0.00    +0.003 A 
ATOM     11  C   UNL     1       0.725  -2.682  -0.019  0.00  0.00    +0.033 A 
ATOM     12  C   UNL     1       1.715  -1.711  -0.023  0.00  0.00    +0.139 A 
ATOM     13  C   UNL     1       1.363  -0.371  -0.013  0.00  0.00    +0.080 A 
ATOM     14  C   UNL     1       2.124   0.896  -0.013  0.00  0.00    +0.257 C 
ATOM     15  O   UNL     1       3.334   0.996  -0.024  0.00  0.00    -0.269 OA
BRANCH  12  16
ATOM     16  N   UNL     1       3.142  -2.105  -0.037  0.00  0.00    +0.057 N 
ATOM     17  O   UNL     1       3.448  -3.284  -0.045  0.00  0.00    -0.126 OA
ATOM     18  O   UNL     1       4.009  -1.250  -0.040  0.00  0.00    -0.126 OA
ENDBRANCH  12  16
ENDBRANCH   4   5
ENDBRANCH   2   4
ENDBRANCH   1   2
BRANCH   1  19
ATOM     19  C   UNL     1       2.245   5.474   3.069  0.00  0.00    +0.311 C 
BRANCH  19  20
ATOM     20  C   UNL     1       2.638   6.927   3.152  0.00  0.00    +0.202 C 
ATOM     21  O   UNL     1       2.800   7.570   2.136  0.00  0.00    -0.288 OA
BRANCH  20  25
ATOM     22  N   UNL     1       3.245   9.050   6.037  0.00  0.00    -0.317 N 
ATOM     23  C   UNL     1       2.938   7.886   6.685  0.00  0.00    +0.022 A 
ATOM     24  C   UNL     1       2.670   6.933   5.777  0.00  0.00    +0.034 A 
ATOM     25  C   UNL     1       2.824   7.561   4.458  0.00  0.00    +0.042 A 
ATOM     26  C   UNL     1       3.187   8.873   4.702  0.00  0.00    +0.032 A 
ATOM     27  C   UNL     1       3.466   9.922   3.658  0.00  0.00    +0.064 C 
ATOM     28  C   UNL     1       2.906   7.702   8.181  0.00  0.00    +0.064 C 
BRANCH  22  33
ATOM     29  C   UNL     1       4.592  13.931   8.600  0.00  0.00    +0.044 C 
ATOM     30  C   UNL     1       4.234  12.635   7.920  0.00  0.00    -0.050 A 
ATOM     31  C   UNL     1       5.065  11.536   8.047  0.00  0.00    +0.005 A 
ATOM     32  C   UNL     1       4.739  10.347   7.425  0.00  0.00    +0.026 A 
ATOM     33  C   UNL     1       3.577  10.255   6.670  0.00  0.00    +0.047 A 
ATOM     34  C   UNL     1       2.748  11.361   6.540  0.00  0.00    +0.026 A 
ATOM     35  C   UNL     1       3.077  12.546   7.168  0.00  0.00    +0.005 A 
ENDBRANCH  22  33
ENDBRANCH  20  25
ENDBRANCH  19  20
ENDBRANCH   1  19
TORSDOF 8
