REMARK  Name = ZINC09453543
REMARK  8 active torsions:
REMARK  status: ('A' for Active; 'I' for Inactive)
REMARK    1  A    between atoms: C_1  and  C_2
REMARK    2  A    between atoms: C_5  and  S_8
REMARK    3  A    between atoms: S_8  and  C_9
REMARK    4  A    between atoms: C_9  and  C_10
REMARK    5  A    between atoms: N_12  and  N_13
REMARK    6  A    between atoms: C_14  and  C_16
REMARK    7  A    between atoms: C_19  and  S_22
REMARK    8  A    between atoms: S_22  and  N_25
REMARK                            x       y       z     vdW  Elec       q    Type
REMARK                         _______ _______ _______ _____ _____    ______ ____
ROOT
ATOM      1  C   UNL     1      -1.305   1.932   0.019  0.00  0.00    +0.038 A 
ATOM      2  C   UNL     1      -1.327   3.327   0.032  0.00  0.00    +0.015 A 
ATOM      3  C   UNL     1      -2.535   3.995   0.035  0.00  0.00    +0.029 A 
ATOM      4  C   UNL     1      -3.722   3.284   0.037  0.00  0.00    +0.109 A 
ATOM      5  C   UNL     1      -3.707   1.901   0.030  0.00  0.00    +0.029 A 
ATOM      6  C   UNL     1      -2.507   1.221   0.021  0.00  0.00    +0.015 A 
ENDROOT
BRANCH   1   8
ATOM      7  N   UNL     1       1.143   1.899   0.002  0.00  0.00    -0.230 N 
ATOM      8  C   UNL     1      -0.015   1.210   0.009  0.00  0.00    +0.260 C 
ATOM      9  O   UNL     1       0.001  -0.006   0.002  0.00  0.00    -0.269 OA
ATOM     10  H   UNL     1       1.130   2.869   0.007  0.00  0.00    +0.173 HD
BRANCH   7  13
ATOM     11  C   UNL     1       3.523   1.904  -0.021  0.00  0.00    +0.239 C 
ATOM     12  O   UNL     1       3.507   3.117  -0.014  0.00  0.00    -0.273 OA
ATOM     13  N   UNL     1       2.365   1.215  -0.014  0.00  0.00    -0.233 N 
ATOM     14  H   UNL     1       2.378   0.245  -0.019  0.00  0.00    +0.173 HD
BRANCH  11  15
ATOM     15  C   UNL     1       4.838   1.168  -0.038  0.00  0.00    +0.171 C 
BRANCH  15  16
ATOM     16  S   UNL     1       6.201   2.365  -0.044  0.00  0.00    -0.116 S 
BRANCH  16  21
ATOM     17  C   UNL     1      11.163  -1.072  -0.109  0.00  0.00    +0.044 C 
ATOM     18  C   UNL     1       9.924  -0.214  -0.093  0.00  0.00    -0.050 A 
ATOM     19  C   UNL     1      10.040   1.164  -0.087  0.00  0.00    +0.004 A 
ATOM     20  C   UNL     1       8.907   1.954  -0.072  0.00  0.00    +0.015 A 
ATOM     21  C   UNL     1       7.650   1.362  -0.063  0.00  0.00    +0.008 A 
ATOM     22  C   UNL     1       7.537  -0.024  -0.064  0.00  0.00    +0.015 A 
ATOM     23  C   UNL     1       8.675  -0.806  -0.085  0.00  0.00    +0.004 A 
ENDBRANCH  16  21
ENDBRANCH  15  16
ENDBRANCH  11  15
ENDBRANCH   7  13
ENDBRANCH   1   8
BRANCH   4  24
ATOM     24  S   UNL     1      -5.259   4.145   0.049  0.00  0.00    +0.075 S 
ATOM     25  O   UNL     1      -5.008   5.433  -0.496  0.00  0.00    -0.150 OA
ATOM     26  O   UNL     1      -6.224   3.260  -0.502  0.00  0.00    -0.150 OA
BRANCH  24  27
ATOM     27  N   UNL     1      -5.679   4.376   1.635  0.00  0.00    -0.203 N 
ATOM     28  C   UNL     1      -6.581   3.434   2.313  0.00  0.00    +0.132 C 
ATOM     29  C   UNL     1      -7.604   4.248   3.108  0.00  0.00    +0.025 C 
ATOM     30  C   UNL     1      -6.872   5.055   4.180  0.00  0.00    +0.038 C 
ATOM     31  C   UNL     1      -5.734   5.831   3.570  0.00  0.00    -0.025 A 
ATOM     32  C   UNL     1      -5.185   5.473   2.349  0.00  0.00    +0.054 A 
ATOM     33  C   UNL     1      -4.132   6.208   1.817  0.00  0.00    +0.025 A 
ATOM     34  C   UNL     1      -3.633   7.297   2.504  0.00  0.00    +0.002 A 
ATOM     35  C   UNL     1      -4.182   7.654   3.722  0.00  0.00    +0.000 A 
ATOM     36  C   UNL     1      -5.228   6.925   4.252  0.00  0.00    +0.005 A 
ENDBRANCH  24  27
ENDBRANCH   4  24
TORSDOF 7
