REMARK  Name = ZINC12041766
REMARK  12 active torsions:
REMARK  status: ('A' for Active; 'I' for Inactive)
REMARK    1  A    between atoms: C_1  and  C_2
REMARK    2  A    between atoms: C_2  and  C_3
REMARK    3  A    between atoms: C_3  and  C_20
REMARK    4  A    between atoms: N_6  and  C_10
REMARK    5  A    between atoms: C_10  and  C_11
REMARK    6  A    between atoms: C_11  and  C_12
REMARK    7  A    between atoms: C_15  and  O_18
REMARK    8  A    between atoms: O_18  and  C_19
REMARK    9  A    between atoms: C_25  and  C_26
REMARK   10  A    between atoms: C_25  and  N_69
REMARK   11  A    between atoms: C_29  and  O_32
REMARK   12  A    between atoms: O_32  and  C_33
REMARK                            x       y       z     vdW  Elec       q    Type
REMARK                         _______ _______ _______ _____ _____    ______ ____
ROOT
ATOM      1  C   UNL     1      -7.261  -2.860   5.272  0.00  0.00    +0.115 C 
ATOM      2  C   UNL     1      -6.421  -4.050   5.693  0.00  0.00    +0.247 C 
ATOM      3  O   UNL     1      -5.211  -4.112   5.742  0.00  0.00    -0.273 OA
ATOM      4  N   UNL     1      -7.299  -5.024   6.003  0.00  0.00    -0.224 N 
ATOM      5  C   UNL     1      -8.564  -4.619   5.838  0.00  0.00    +0.309 C 
ATOM      6  O   UNL     1      -9.532  -5.322   6.055  0.00  0.00    -0.252 OA
ATOM      7  N   UNL     1      -8.644  -3.348   5.407  0.00  0.00    -0.285 N 
ATOM      8  H   UNL     1      -9.455  -2.849   5.220  0.00  0.00    +0.151 HD
ENDROOT
BRANCH   1   9
ATOM      9  C   UNL     1      -6.963  -2.478   3.821  0.00  0.00    +0.018 C 
ATOM     10  C   UNL     1      -7.149  -3.703   2.921  0.00  0.00    -0.013 C 
ATOM     11  C   UNL     1      -6.793  -3.329   1.480  0.00  0.00    -0.078 C 
ATOM     12  C   UNL     1      -5.209  -1.661   2.243  0.00  0.00    -0.078 C 
ATOM     13  C   UNL     1      -5.518  -1.985   3.706  0.00  0.00    -0.013 C 
ATOM     14  N   UNL     1      -5.383  -2.886   1.434  0.00  0.00    +0.382 N 
ATOM     15  H   UNL     1      -4.788  -3.628   1.821  0.00  0.00    -0.081 HD
BRANCH  14  16
ATOM     16  C   UNL     1      -4.981  -2.629   0.035  0.00  0.00    -0.043 C 
BRANCH  16  17
ATOM     17  C   UNL     1      -3.648  -1.927   0.026  0.00  0.00    -0.064 A 
ATOM     18  C   UNL     1      -2.479  -2.665   0.011  0.00  0.00    +0.005 A 
ATOM     19  C   UNL     1      -1.255  -2.024   0.003  0.00  0.00    +0.046 A 
ATOM     20  C   UNL     1      -1.200  -0.637   0.010  0.00  0.00    +0.120 A 
ATOM     21  C   UNL     1      -2.374   0.101   0.031  0.00  0.00    +0.046 A 
ATOM     22  C   UNL     1      -3.595  -0.545   0.034  0.00  0.00    +0.005 A 
BRANCH  20  23
ATOM     23  O   UNL     1       0.002  -0.004   0.002  0.00  0.00    -0.495 OA
ATOM     24  C   UNL     1      -0.017   1.425   0.010  0.00  0.00    +0.277 C 
ENDBRANCH  20  23
ENDBRANCH  16  17
ENDBRANCH  14  16
ENDBRANCH   1   9
BRANCH   1  26
ATOM     25  C   UNL     1      -7.317  -2.079   7.645  0.00  0.00    +0.006 C 
ATOM     26  C   UNL     1      -7.013  -1.671   6.202  0.00  0.00    +0.032 C 
ENDBRANCH   1  26
BRANCH   4  27
ATOM     27  C   UNL     1      -6.917  -6.361   6.465  0.00  0.00    +0.122 C 
BRANCH  27  28
ATOM     28  C   UNL     1      -6.814  -6.364   7.991  0.00  0.00    +0.054 C 
BRANCH  28  29
ATOM     29  C   UNL     1      -6.421  -7.739   8.466  0.00  0.00    -0.046 A 
ATOM     30  C   UNL     1      -7.397  -8.671   8.766  0.00  0.00    +0.007 A 
ATOM     31  C   UNL     1      -7.039  -9.934   9.195  0.00  0.00    +0.046 A 
ATOM     32  C   UNL     1      -5.698 -10.263   9.337  0.00  0.00    +0.120 A 
ATOM     33  C   UNL     1      -4.721  -9.324   9.041  0.00  0.00    +0.046 A 
ATOM     34  C   UNL     1      -5.085  -8.064   8.606  0.00  0.00    +0.007 A 
BRANCH  32  35
ATOM     35  O   UNL     1      -5.343 -11.503   9.765  0.00  0.00    -0.495 OA
ATOM     36  C   UNL     1      -6.403 -12.419  10.051  0.00  0.00    +0.277 C 
ENDBRANCH  32  35
ENDBRANCH  28  29
ENDBRANCH  27  28
ENDBRANCH   4  27
TORSDOF 9
