REMARK  Name = ZINC36595339
REMARK  15 active torsions:
REMARK  status: ('A' for Active; 'I' for Inactive)
REMARK    1  A    between atoms: C_1  and  C_2
REMARK    2  A    between atoms: C_2  and  C_3
REMARK    3  A    between atoms: C_3  and  C_4
REMARK    4  A    between atoms: C_5  and  C_6
REMARK    5  A    between atoms: C_6  and  C_8
REMARK    6  A    between atoms: C_6  and  N_22
REMARK    7  A    between atoms: N_10  and  C_11
REMARK    8  A    between atoms: C_11  and  S_12
REMARK    9  A    between atoms: S_12  and  C_15
REMARK   10  A    between atoms: C_18  and  C_21
REMARK   11  A    between atoms: N_22  and  C_23
REMARK   12  A    between atoms: C_23  and  C_24
REMARK   13  A    between atoms: C_27  and  C_29
REMARK   14  A    between atoms: C_30  and  C_32
REMARK   15  A    between atoms: C_37  and  O_38
REMARK                            x       y       z     vdW  Elec       q    Type
REMARK                         _______ _______ _______ _____ _____    ______ ____
ROOT
ATOM      1  C   UNL     1       0.196  -4.282  -2.205  0.00  0.00    +0.186 C 
ENDROOT
BRANCH   1   2
ATOM      2  C   UNL     1       1.179  -4.641  -3.290  0.00  0.00    +0.239 C 
ATOM      3  O   UNL     1       2.301  -4.996  -2.998  0.00  0.00    -0.273 OA
ATOM      4  N   UNL     1       0.810  -4.567  -4.584  0.00  0.00    -0.294 N 
ATOM      5  H   UNL     1      -0.088  -4.283  -4.817  0.00  0.00    +0.150 HD
BRANCH   4   6
ATOM      6  C   UNL     1       1.765  -4.916  -5.638  0.00  0.00    +0.278 C 
BRANCH   6   7
ATOM      7  S   UNL     1       1.528  -6.649  -6.119  0.00  0.00    +0.013 S 
ATOM      8  O   UNL     1       2.405  -6.986  -7.186  0.00  0.00    -0.168 OA
ATOM      9  O   UNL     1       1.446  -7.471  -4.963  0.00  0.00    -0.168 OA
BRANCH   7  10
ATOM     10  C   UNL     1      -0.085  -6.707  -6.827  0.00  0.00    +0.090 A 
ATOM     11  C   UNL     1      -1.183  -6.959  -6.026  0.00  0.00    +0.027 A 
ATOM     12  C   UNL     1      -2.447  -7.004  -6.582  0.00  0.00    +0.005 A 
ATOM     13  C   UNL     1      -2.615  -6.796  -7.938  0.00  0.00    -0.050 A 
ATOM     14  C   UNL     1      -1.517  -6.543  -8.739  0.00  0.00    +0.005 A 
ATOM     15  C   UNL     1      -0.252  -6.494  -8.183  0.00  0.00    +0.027 A 
ATOM     16  C   UNL     1      -3.994  -6.846  -8.544  0.00  0.00    +0.044 C 
ENDBRANCH   7  10
ENDBRANCH   6   7
ENDBRANCH   4   6
ENDBRANCH   1   2
BRANCH   1  17
ATOM     17  N   UNL     1       0.834  -4.442  -0.896  0.00  0.00    -0.275 N 
ATOM     18  C   UNL     1       2.177  -4.398  -0.790  0.00  0.00    +0.251 C 
ATOM     19  O   UNL     1       2.744  -5.069   0.051  0.00  0.00    -0.270 OA
BRANCH  18  20
ATOM     20  C   UNL     1       2.959  -3.534  -1.695  0.00  0.00    +0.078 A 
ATOM     21  C   UNL     1       2.335  -2.892  -2.768  0.00  0.00    +0.017 A 
ATOM     22  C   UNL     1       3.072  -2.086  -3.609  0.00  0.00    +0.001 A 
ATOM     23  C   UNL     1       4.429  -1.910  -3.396  0.00  0.00    +0.004 A 
ATOM     24  C   UNL     1       5.059  -2.539  -2.340  0.00  0.00    +0.046 A 
ATOM     25  C   UNL     1       4.332  -3.349  -1.480  0.00  0.00    +0.129 A 
BRANCH  25  26
ATOM     26  O   UNL     1       4.948  -3.963  -0.440  0.00  0.00    -0.506 OA
ATOM     27  H   UNL     1       5.301  -4.838  -0.652  0.00  0.00    +0.292 HD
ENDBRANCH  25  26
ENDBRANCH  18  20
BRANCH  17  28
ATOM     28  C   UNL     1       0.012  -4.652   0.299  0.00  0.00    +0.183 C 
BRANCH  28  29
ATOM     29  C   UNL     1      -0.207  -6.129   0.505  0.00  0.00    +0.122 A 
ATOM     30  C   UNL     1       0.578  -6.947   1.230  0.00  0.00    +0.046 A 
ATOM     31  C   UNL     1       0.005  -8.237   1.153  0.00  0.00    +0.045 A 
ATOM     32  C   UNL     1      -1.095  -8.130   0.387  0.00  0.00    +0.102 A 
ATOM     33  O   UNL     1      -1.222  -6.850   0.002  0.00  0.00    -0.463 OA
ATOM     34  C   UNL     1      -2.030  -9.256   0.026  0.00  0.00    +0.086 C 
ENDBRANCH  28  29
ENDBRANCH  17  28
ENDBRANCH   1  17
BRANCH   1  36
ATOM     35  C   UNL     1      -0.025  -1.979  -1.423  0.00  0.00    -0.029 C 
ATOM     36  C   UNL     1      -0.242  -2.850  -2.377  0.00  0.00    +0.000 C 
BRANCH  35  37
ATOM     37  C   UNL     1      -0.463  -0.547  -1.596  0.00  0.00    +0.027 C 
BRANCH  37  39
ATOM     38  C   UNL     1      -1.807   1.309  -0.601  0.00  0.00    +0.004 C 
ATOM     39  C   UNL     1      -1.363  -0.144  -0.426  0.00  0.00    +0.001 C 
ENDBRANCH  37  39
ENDBRANCH  35  37
ENDBRANCH   1  36
TORSDOF 12
