REMARK  Name = ZINC01875328
REMARK  12 active torsions:
REMARK  status: ('A' for Active; 'I' for Inactive)
REMARK    1  A    between atoms: C_1  and  C_2
REMARK    2  A    between atoms: C_2  and  C_3
REMARK    3  A    between atoms: C_3  and  C_4
REMARK    4  A    between atoms: C_4  and  O_5
REMARK    5  A    between atoms: O_5  and  C_6
REMARK    6  A    between atoms: C_6  and  C_8
REMARK    7  A    between atoms: C_12  and  N_13
REMARK    8  A    between atoms: C_14  and  C_16
REMARK    9  A    between atoms: C_16  and  C_33
REMARK   10  A    between atoms: C_17  and  C_18
REMARK   11  A    between atoms: C_21  and  C_23
REMARK   12  A    between atoms: C_26  and  N_30
REMARK                            x       y       z     vdW  Elec       q    Type
REMARK                         _______ _______ _______ _____ _____    ______ ____
ROOT
ATOM      1  N   UNL     1      -4.449  -4.583   2.500  0.00  0.00    -0.275 N 
ATOM      2  C   UNL     1      -5.224  -4.927   3.547  0.00  0.00    +0.259 C 
ATOM      3  O   UNL     1      -6.330  -5.399   3.357  0.00  0.00    -0.269 OA
ATOM      4  H   UNL     1      -3.568  -4.207   2.651  0.00  0.00    +0.156 HD
ENDROOT
BRANCH   1   9
ATOM      5  C   UNL     1      -4.257  -4.476   0.019  0.00  0.00    +0.091 A 
ATOM      6  C   UNL     1      -4.962  -4.773  -1.216  0.00  0.00    -0.021 A 
ATOM      7  C   UNL     1      -6.192  -5.301  -1.037  0.00  0.00    -0.004 A 
ATOM      8  S   UNL     1      -6.389  -5.395   0.719  0.00  0.00    -0.077 S 
ATOM      9  C   UNL     1      -4.910  -4.768   1.208  0.00  0.00    +0.087 A 
ATOM     10  C   UNL     1      -7.160  -5.711  -2.104  0.00  0.00    +0.043 C 
ATOM     11  C   UNL     1      -6.702  -5.093  -3.433  0.00  0.00    +0.005 C 
ATOM     12  C   UNL     1      -5.205  -5.359  -3.614  0.00  0.00    +0.005 C 
ATOM     13  C   UNL     1      -4.403  -4.528  -2.610  0.00  0.00    +0.037 C 
BRANCH   5  14
ATOM     14  C   UNL     1      -2.912  -3.898   0.009  0.00  0.00    +0.342 C 
ATOM     15  O   UNL     1      -1.937  -4.625  -0.004  0.00  0.00    -0.245 OA
BRANCH  14  16
ATOM     16  O   UNL     1      -2.753  -2.558   0.015  0.00  0.00    -0.461 OA
BRANCH  16  17
ATOM     17  C   UNL     1      -1.413  -2.063   0.004  0.00  0.00    +0.232 C 
BRANCH  17  18
ATOM     18  C   UNL     1      -1.433  -0.534   0.013  0.00  0.00    +0.041 C 
BRANCH  18  20
ATOM     19  C   UNL     1      -0.019   1.526   0.010  0.00  0.00    +0.004 C 
ATOM     20  C   UNL     1       0.002  -0.004   0.002  0.00  0.00    -0.000 C 
ENDBRANCH  18  20
ENDBRANCH  17  18
ENDBRANCH  16  17
ENDBRANCH  14  16
ENDBRANCH   5  14
ENDBRANCH   1   9
BRANCH   2  21
ATOM     21  C   UNL     1      -4.736  -4.731   4.917  0.00  0.00    +0.117 C 
ATOM     22  C   UNL     1      -5.534  -5.085   5.996  0.00  0.00    +0.070 C 
BRANCH  22  23
ATOM     23  C   UNL     1      -5.067  -4.898   7.307  0.00  0.00    +0.130 A 
ATOM     24  C   UNL     1      -5.756  -5.211   8.470  0.00  0.00    +0.050 A 
ATOM     25  C   UNL     1      -4.927  -4.865   9.535  0.00  0.00    +0.050 A 
ATOM     26  C   UNL     1      -3.765  -4.354   8.994  0.00  0.00    +0.137 A 
ATOM     27  O   UNL     1      -3.866  -4.387   7.654  0.00  0.00    -0.455 OA
BRANCH  26  28
ATOM     28  C   UNL     1      -2.604  -3.860   9.758  0.00  0.00    +0.036 A 
ATOM     29  C   UNL     1      -2.787  -2.947  10.801  0.00  0.00    +0.015 A 
ATOM     30  C   UNL     1      -1.697  -2.490  11.511  0.00  0.00    +0.033 A 
ATOM     31  C   UNL     1      -0.424  -2.932  11.193  0.00  0.00    +0.128 A 
ATOM     32  C   UNL     1      -0.234  -3.835  10.163  0.00  0.00    +0.053 A 
ATOM     33  C   UNL     1      -1.316  -4.307   9.447  0.00  0.00    +0.054 A 
ATOM     34 CL   UNL     1      -1.078  -5.446   8.159  0.00  0.00    -0.083 Cl
BRANCH  31  35
ATOM     35  N   UNL     1       0.741  -2.434  11.960  0.00  0.00    +0.056 N 
ATOM     36  O   UNL     1       0.578  -1.645  12.861  0.00  0.00    -0.126 OA
ATOM     37  O   UNL     1       1.854  -2.818  11.686  0.00  0.00    -0.126 OA
ENDBRANCH  31  35
ENDBRANCH  26  28
ENDBRANCH  22  23
BRANCH  21  38
ATOM     38  C   UNL     1      -3.435  -4.175   5.140  0.00  0.00    +0.104 C 
ATOM     39  N   UNL     1      -2.403  -3.735   5.318  0.00  0.00    -0.191 NA
ENDBRANCH  21  38
ENDBRANCH   2  21
TORSDOF 11
