REMARK  Name = ZINC09831518
REMARK  8 active torsions:
REMARK  status: ('A' for Active; 'I' for Inactive)
REMARK    1  A    between atoms: C_5  and  C_7
REMARK    2  A    between atoms: C_7  and  N_8
REMARK    3  A    between atoms: C_21  and  C_22
REMARK    4  A    between atoms: C_22  and  C_23
REMARK    5  A    between atoms: C_23  and  C_24
REMARK    6  A    between atoms: N_26  and  C_27
REMARK    7  A    between atoms: C_27  and  C_28
REMARK    8  A    between atoms: C_28  and  C_29
REMARK                            x       y       z     vdW  Elec       q    Type
REMARK                         _______ _______ _______ _____ _____    ______ ____
ROOT
ATOM      1  N   UNL     1       1.979  -1.949  -0.339  0.00  0.00    -0.272 N 
ATOM      2  C   UNL     1       3.166  -2.418  -0.777  0.00  0.00    +0.263 A 
ATOM      3  O   UNL     1       3.296  -3.591  -1.074  0.00  0.00    -0.267 OA
ATOM      4  C   UNL     1       4.301  -1.485  -0.891  0.00  0.00    +0.064 A 
ATOM      5  C   UNL     1       5.550  -1.913  -1.338  0.00  0.00    +0.015 A 
ATOM      6  C   UNL     1       6.588  -1.010  -1.430  0.00  0.00    +0.001 A 
ATOM      7  C   UNL     1       6.393   0.318  -1.081  0.00  0.00    +0.002 A 
ATOM      8  C   UNL     1       5.161   0.754  -0.637  0.00  0.00    +0.027 A 
ATOM      9  C   UNL     1       4.106  -0.140  -0.537  0.00  0.00    +0.063 A 
ATOM     10  N   UNL     1       2.854   0.267  -0.094  0.00  0.00    -0.264 N 
ATOM     11  C   UNL     1       1.821  -0.619   0.001  0.00  0.00    +0.240 A 
ATOM     12  N   UNL     1       0.782   0.056   0.442  0.00  0.00    -0.110 NA
ATOM     13  N   UNL     1       1.105   1.286   0.624  0.00  0.00    -0.132 NA
ATOM     14  C   UNL     1       2.358   1.472   0.312  0.00  0.00    +0.140 A 
ENDROOT
BRANCH   1  15
ATOM     15  C   UNL     1       0.841  -2.864  -0.221  0.00  0.00    +0.165 C 
BRANCH  15  20
ATOM     16  C   UNL     1      -0.101  -4.223  -3.615  0.00  0.00    +0.000 A 
ATOM     17  C   UNL     1      -1.038  -3.297  -4.034  0.00  0.00    +0.001 A 
ATOM     18  C   UNL     1      -1.368  -2.230  -3.220  0.00  0.00    +0.020 A 
ATOM     19  C   UNL     1      -0.763  -2.092  -1.982  0.00  0.00    +0.046 A 
ATOM     20  C   UNL     1       0.178  -3.017  -1.566  0.00  0.00    -0.009 A 
ATOM     21  C   UNL     1       0.506  -4.083  -2.382  0.00  0.00    +0.007 A 
ATOM     22 CL   UNL     1      -1.182  -0.757  -0.956  0.00  0.00    -0.083 Cl
ENDBRANCH  15  20
ENDBRANCH   1  15
BRANCH  14  23
ATOM     23  C   UNL     1       3.115   2.773   0.387  0.00  0.00    +0.086 C 
BRANCH  23  24
ATOM     24  C   UNL     1       3.139   3.429  -0.995  0.00  0.00    +0.103 C 
BRANCH  24  25
ATOM     25  C   UNL     1       3.897   4.730  -0.920  0.00  0.00    +0.213 C 
ATOM     26  O   UNL     1       4.370   5.096   0.135  0.00  0.00    -0.276 OA
ATOM     27  N   UNL     1       4.048   5.487  -2.025  0.00  0.00    -0.315 N 
ATOM     28  H   UNL     1       3.669   5.194  -2.869  0.00  0.00    +0.149 HD
BRANCH  27  29
ATOM     29  C   UNL     1       4.784   6.751  -1.952  0.00  0.00    +0.109 C 
BRANCH  29  30
ATOM     30  C   UNL     1       4.808   7.407  -3.334  0.00  0.00    +0.056 C 
BRANCH  30  31
ATOM     31  C   UNL     1       5.566   8.708  -3.259  0.00  0.00    -0.021 A 
ATOM     32  C   UNL     1       5.038   9.930  -3.087  0.00  0.00    +0.087 A 
ATOM     33  N   UNL     1       6.033  10.869  -3.068  0.00  0.00    -0.360 N 
ATOM     34  H   UNL     1       5.896  11.823  -2.954  0.00  0.00    +0.165 HD
ATOM     35  C   UNL     1       7.255  10.260  -3.239  0.00  0.00    +0.047 A 
ATOM     36  C   UNL     1       7.016   8.879  -3.367  0.00  0.00    +0.003 A 
ATOM     37  C   UNL     1       8.086   8.001  -3.553  0.00  0.00    +0.010 A 
ATOM     38  C   UNL     1       9.361   8.489  -3.611  0.00  0.00    +0.001 A 
ATOM     39  C   UNL     1       9.602   9.850  -3.486  0.00  0.00    +0.002 A 
ATOM     40  C   UNL     1       8.562  10.734  -3.301  0.00  0.00    +0.026 A 
ENDBRANCH  30  31
ENDBRANCH  29  30
ENDBRANCH  27  29
ENDBRANCH  24  25
ENDBRANCH  23  24
ENDBRANCH  14  23
TORSDOF 8
