REMARK  Name = ZINC34676907
REMARK  6 active torsions:
REMARK  status: ('A' for Active; 'I' for Inactive)
REMARK    1  A    between atoms: C_1  and  C_2
REMARK    2  A    between atoms: C_2  and  N_3
REMARK    3  A    between atoms: C_11  and  N_27
REMARK    4  A    between atoms: N_18  and  C_21
REMARK    5  A    between atoms: N_27  and  C_28
REMARK    6  A    between atoms: N_27  and  C_29
REMARK                            x       y       z     vdW  Elec       q    Type
REMARK                         _______ _______ _______ _____ _____    ______ ____
ROOT
ATOM      1  N   UNL     1       0.381  -2.953   0.422  0.00  0.00    -0.299 N 
ATOM      2  C   UNL     1       0.895  -2.034   1.265  0.00  0.00    +0.302 C 
ATOM      3  O   UNL     1       0.859  -0.855   0.973  0.00  0.00    -0.253 OA
ATOM      4  N   UNL     1       1.449  -2.424   2.430  0.00  0.00    -0.281 N 
ATOM      5  C   UNL     1       1.917  -1.442   3.421  0.00  0.00    +0.116 C 
ATOM      6  C   UNL     1       1.071  -1.603   4.683  0.00  0.00    +0.072 C 
ATOM      7  C   UNL     1       0.960  -3.053   5.070  0.00  0.00    +0.028 A 
ATOM      8  C   UNL     1       1.192  -4.080   4.188  0.00  0.00    +0.029 A 
ATOM      9  C   UNL     1       1.048  -5.397   4.637  0.00  0.00    +0.131 A 
ATOM     10  N   UNL     1       0.700  -5.617   5.900  0.00  0.00    -0.201 NA
ATOM     11  C   UNL     1       0.493  -4.601   6.724  0.00  0.00    +0.197 A 
ATOM     12  N   UNL     1       0.618  -3.346   6.322  0.00  0.00    -0.331 N 
ATOM     13  N   UNL     1       0.138  -4.857   8.037  0.00  0.00    -0.305 N 
ATOM     14  C   UNL     1       0.000  -3.763   9.011  0.00  0.00    +0.089 C 
ATOM     15  C   UNL     1      -1.352  -3.908   9.716  0.00  0.00    -0.059 C 
ATOM     16  N   UNL     1      -1.459  -5.252  10.296  0.00  0.00    +0.384 N 
ATOM     17  C   UNL     1      -1.462  -6.259   9.227  0.00  0.00    -0.059 C 
ATOM     18  C   UNL     1      -0.120  -6.231   8.496  0.00  0.00    +0.089 C 
ATOM     19  C   UNL     1       1.604  -3.845   2.763  0.00  0.00    +0.149 C 
ATOM     20  H   UNL     1       0.476  -3.898   0.619  0.00  0.00    +0.150 HD
ATOM     21  H   UNL     1       0.458  -2.627   6.953  0.00  0.00    +0.168 HD
ATOM     22  H   UNL     1      -0.675  -5.416  10.909  0.00  0.00    -0.081 HD
ENDROOT
BRANCH  16  23
ATOM     23  C   UNL     1      -2.707  -5.354  11.065  0.00  0.00    -0.068 C 
ATOM     24  C   UNL     1      -2.701  -4.313  12.186  0.00  0.00    -0.015 C 
ATOM     25  C   UNL     1      -4.000  -4.419  12.987  0.00  0.00    -0.002 C 
ATOM     26  C   UNL     1      -4.114  -5.820  13.592  0.00  0.00    -0.000 C 
ATOM     27  C   UNL     1      -4.119  -6.861  12.471  0.00  0.00    -0.002 C 
ATOM     28  C   UNL     1      -2.820  -6.755  11.670  0.00  0.00    -0.015 C 
ENDBRANCH  16  23
BRANCH   9  29
ATOM     29  N   UNL     1       1.264  -6.460   3.775  0.00  0.00    -0.321 N 
ATOM     30  C   UNL     1       2.575  -7.112   3.730  0.00  0.00    +0.130 C 
ATOM     31  C   UNL     1       0.181  -6.932   2.908  0.00  0.00    +0.130 C 
ENDBRANCH   9  29
BRANCH   1  33
ATOM     32  C   UNL     1      -0.802  -3.752  -1.563  0.00  0.00    +0.024 C 
ATOM     33  C   UNL     1      -0.322  -2.523  -0.789  0.00  0.00    +0.102 C 
ENDBRANCH   1  33
TORSDOF 3
