REMARK  Name = ZINC40523546
REMARK  7 active torsions:
REMARK  status: ('A' for Active; 'I' for Inactive)
REMARK    1  A    between atoms: C_1  and  C_2
REMARK    2  A    between atoms: C_3  and  C_32
REMARK    3  A    between atoms: N_6  and  C_22
REMARK    4  A    between atoms: C_8  and  C_9
REMARK    5  A    between atoms: C_9  and  C_11
REMARK    6  A    between atoms: C_15  and  N_17
REMARK    7  A    between atoms: C_22  and  C_23
REMARK                            x       y       z     vdW  Elec       q    Type
REMARK                         _______ _______ _______ _____ _____    ______ ____
ROOT
ATOM      1  C   UNL     1      -0.802   1.722   0.390  0.00  0.00    +0.046 C 
ATOM      2  C   UNL     1      -0.521   0.265   0.126  0.00  0.00    -0.012 A 
ATOM      3  C   UNL     1      -0.752  -0.283  -1.131  0.00  0.00    +0.120 A 
ATOM      4  C   UNL     1      -0.465  -1.702  -1.346  0.00  0.00    +0.272 A 
ATOM      5  O   UNL     1      -0.659  -2.206  -2.438  0.00  0.00    -0.266 OA
ATOM      6  N   UNL     1       0.013  -2.449  -0.334  0.00  0.00    -0.270 N 
ATOM      7  C   UNL     1       0.236  -1.912   0.889  0.00  0.00    +0.266 A 
ATOM      8  C   UNL     1      -0.016  -0.561   1.144  0.00  0.00    +0.091 A 
ATOM      9  O   UNL     1       0.715  -2.692   1.876  0.00  0.00    -0.267 OA
ENDROOT
BRANCH   8  10
ATOM     10  C   UNL     1       0.242  -0.006   2.480  0.00  0.00    +0.199 C 
ATOM     11  O   UNL     1      -0.417  -0.379   3.432  0.00  0.00    -0.286 OA
BRANCH  10  12
ATOM     12  C   UNL     1       1.302   1.007   2.667  0.00  0.00    +0.025 A 
ATOM     13  C   UNL     1       2.128   1.363   1.599  0.00  0.00    +0.013 A 
ATOM     14  C   UNL     1       3.115   2.308   1.779  0.00  0.00    +0.023 A 
ATOM     15  C   UNL     1       3.289   2.904   3.018  0.00  0.00    +0.071 A 
ATOM     16  C   UNL     1       2.474   2.555   4.082  0.00  0.00    +0.145 A 
ATOM     17  C   UNL     1       1.479   1.615   3.912  0.00  0.00    +0.046 A 
ATOM     18 CL   UNL     1       4.535   4.093   3.238  0.00  0.00    -0.081 Cl
BRANCH  16  19
ATOM     19  N   UNL     1       2.667   3.196   5.402  0.00  0.00    +0.058 N 
ATOM     20  O   UNL     1       1.955   2.892   6.331  0.00  0.00    -0.126 OA
ATOM     21  O   UNL     1       3.535   4.023   5.551  0.00  0.00    -0.126 OA
ENDBRANCH  16  19
ENDBRANCH  10  12
ENDBRANCH   8  10
BRANCH   3  22
ATOM     22  C   UNL     1      -1.262   0.527  -2.197  0.00  0.00    +0.105 C 
ATOM     23  N   UNL     1      -1.666   1.169  -3.042  0.00  0.00    -0.191 NA
ENDBRANCH   3  22
BRANCH   6  24
ATOM     24  C   UNL     1       0.296  -3.869  -0.558  0.00  0.00    +0.163 C 
BRANCH  24  25
ATOM     25  C   UNL     1       1.721  -4.030  -1.022  0.00  0.00    -0.024 A 
ATOM     26  C   UNL     1       2.016  -3.989  -2.372  0.00  0.00    +0.009 A 
ATOM     27  C   UNL     1       3.322  -4.135  -2.802  0.00  0.00    +0.050 A 
ATOM     28  C   UNL     1       4.338  -4.324  -1.880  0.00  0.00    +0.166 A 
ATOM     29  C   UNL     1       4.041  -4.365  -0.520  0.00  0.00    +0.167 A 
ATOM     30  C   UNL     1       2.731  -4.212  -0.096  0.00  0.00    +0.055 A 
ATOM     31  O   UNL     1       5.200  -4.559   0.174  0.00  0.00    -0.453 OA
ATOM     32  C   UNL     1       6.151  -5.044  -0.793  0.00  0.00    +0.466 C 
ATOM     33  O   UNL     1       5.684  -4.492  -2.038  0.00  0.00    -0.453 OA
ENDBRANCH  24  25
ENDBRANCH   6  24
TORSDOF 6
