REMARK  Name = ZINC15999213
REMARK  5 active torsions:
REMARK  status: ('A' for Active; 'I' for Inactive)
REMARK    1  A    between atoms: C_1  and  C_2
REMARK    2  A    between atoms: C_4  and  C_36
REMARK    3  A    between atoms: N_20  and  C_23
REMARK    4  A    between atoms: C_27  and  N_30
REMARK    5  A    between atoms: C_28  and  C_29
REMARK                            x       y       z     vdW  Elec       q    Type
REMARK                         _______ _______ _______ _____ _____    ______ ____
ROOT
ATOM      1  C   UNL     1      -7.320   8.658   3.785  0.00  0.00    +0.044 C 
ATOM      2  C   UNL     1      -5.853   8.717   4.124  0.00  0.00    -0.050 A 
ATOM      3  C   UNL     1      -5.451   8.954   5.426  0.00  0.00    +0.008 A 
ATOM      4  C   UNL     1      -4.109   9.009   5.741  0.00  0.00    -0.029 A 
ATOM      5  C   UNL     1      -3.149   8.826   4.748  0.00  0.00    +0.039 A 
ATOM      6  C   UNL     1      -3.564   8.588   3.443  0.00  0.00    -0.027 A 
ATOM      7  C   UNL     1      -4.905   8.534   3.133  0.00  0.00    +0.008 A 
ATOM      8  C   UNL     1      -2.308   8.437   2.624  0.00  0.00    +0.053 C 
ATOM      9  C   UNL     1      -2.228   7.192   1.853  0.00  0.00    +0.089 C 
ATOM     10  C   UNL     1      -3.047   7.548   0.546  0.00  0.00    +0.074 C 
ATOM     11  C   UNL     1      -2.357   8.880   0.257  0.00  0.00    -0.054 C 
ATOM     12  C   UNL     1      -0.951  10.212   1.675  0.00  0.00    -0.076 C 
ATOM     13  C   UNL     1      -0.211   9.947   0.347  0.00  0.00    -0.020 C 
ATOM     14  C   UNL     1      -0.896   8.660  -0.185  0.00  0.00    -0.016 C 
ATOM     15  C   UNL     1      -2.630   6.321  -0.225  0.00  0.00    +0.228 C 
ATOM     16  O   UNL     1      -2.408   6.242  -1.414  0.00  0.00    -0.275 OA
ATOM     17  N   UNL     1      -2.558   5.315   0.697  0.00  0.00    -0.210 N 
ATOM     18  C   UNL     1      -2.504   5.780   1.988  0.00  0.00    +0.229 C 
ATOM     19  O   UNL     1      -2.655   5.148   3.011  0.00  0.00    -0.275 OA
ATOM     20  C   UNL     1      -1.186   8.620   3.618  0.00  0.00    +0.212 C 
ATOM     21  O   UNL     1       0.003   8.580   3.380  0.00  0.00    -0.277 OA
ATOM     22  N   UNL     1      -1.755   8.837   4.817  0.00  0.00    -0.286 N 
ATOM     23  C   UNL     1      -3.682   9.267   7.163  0.00  0.00    +0.045 C 
ATOM     24  H   UNL     1      -1.254   8.983   5.635  0.00  0.00    +0.155 HD
ATOM     25  N   UNL     1      -2.244   9.504   1.586  0.00  0.00    +0.395 N 
ATOM     26  H   UNL     1      -3.013  10.170   1.725  0.00  0.00    -0.079 HD
ENDROOT
BRANCH  17  27
ATOM     27  C   UNL     1      -2.537   3.954   0.360  0.00  0.00    +0.049 A 
ATOM     28  C   UNL     1      -3.725   3.244   0.256  0.00  0.00    +0.024 A 
ATOM     29  C   UNL     1      -3.700   1.904  -0.075  0.00  0.00    +0.004 A 
ATOM     30  C   UNL     1      -2.493   1.268  -0.303  0.00  0.00    +0.033 A 
ATOM     31  C   UNL     1      -1.308   1.973  -0.200  0.00  0.00    +0.131 A 
ATOM     32  C   UNL     1      -1.326   3.313   0.136  0.00  0.00    +0.002 A 
ATOM     33  C   UNL     1      -0.034   4.078   0.254  0.00  0.00    +0.048 C 
BRANCH  31  34
ATOM     34  N   UNL     1      -0.018   1.290  -0.445  0.00  0.00    +0.057 N 
ATOM     35  O   UNL     1       0.888   1.881  -1.004  0.00  0.00    -0.126 OA
ATOM     36  O   UNL     1       0.139   0.138  -0.082  0.00  0.00    -0.126 OA
ENDBRANCH  31  34
ENDBRANCH  17  27
TORSDOF 2
