REMARK  Name = ZINC33432386
REMARK  9 active torsions:
REMARK  status: ('A' for Active; 'I' for Inactive)
REMARK    1  A    between atoms: C_1  and  C_2
REMARK    2  A    between atoms: C_2  and  C_3
REMARK    3  A    between atoms: C_2  and  C_4
REMARK    4  A    between atoms: C_7  and  C_10
REMARK    5  A    between atoms: N_15  and  C_18
REMARK    6  A    between atoms: C_18  and  C_19
REMARK    7  A    between atoms: C_19  and  C_20
REMARK    8  A    between atoms: C_20  and  N_21
REMARK    9  A    between atoms: N_27  and  C_31
REMARK                            x       y       z     vdW  Elec       q    Type
REMARK                         _______ _______ _______ _____ _____    ______ ____
ROOT
ATOM      1  C   UNL     1       0.670  -1.252  -5.259  0.00  0.00    +0.142 C 
ATOM      2  C   UNL     1       0.539  -0.164  -4.212  0.00  0.00    +0.058 C 
ATOM      3  C   UNL     1       1.357   0.904  -4.313  0.00  0.00    +0.042 C 
ATOM      4  C   UNL     1       1.008   1.817  -3.159  0.00  0.00    +0.159 C 
ATOM      5  N   UNL     1      -0.067   1.120  -2.437  0.00  0.00    -0.292 N 
ATOM      6  C   UNL     1      -0.307  -0.030  -3.093  0.00  0.00    +0.247 C 
ATOM      7  O   UNL     1      -1.146  -0.848  -2.762  0.00  0.00    -0.270 OA
ATOM      8  N   UNL     1       2.271   1.003  -5.322  0.00  0.00    -0.260 N 
ATOM      9  C   UNL     1       2.430   0.072  -6.272  0.00  0.00    +0.307 C 
ATOM     10  O   UNL     1       3.271   0.246  -7.132  0.00  0.00    -0.252 OA
ATOM     11  N   UNL     1       1.686  -1.051  -6.306  0.00  0.00    -0.288 N 
ATOM     12  C   UNL     1       3.126   2.192  -5.368  0.00  0.00    +0.139 C 
ATOM     13  H   UNL     1       1.824  -1.810  -7.090  0.00  0.00    +0.151 HD
ENDROOT
BRANCH   1  17
ATOM     14  C   UNL     1      -3.123  -1.701  -7.172  0.00  0.00    -0.045 A 
ATOM     15  C   UNL     1      -2.739  -2.586  -6.182  0.00  0.00    +0.004 A 
ATOM     16  C   UNL     1      -1.511  -2.441  -5.563  0.00  0.00    +0.006 A 
ATOM     17  C   UNL     1      -0.668  -1.411  -5.934  0.00  0.00    -0.023 A 
ATOM     18  C   UNL     1      -1.054  -0.522  -6.920  0.00  0.00    +0.006 A 
ATOM     19  C   UNL     1      -2.279  -0.671  -7.543  0.00  0.00    +0.004 A 
BRANCH  14  21
ATOM     20  C   UNL     1      -5.297  -0.597  -7.623  0.00  0.00    +0.012 C 
ATOM     21  C   UNL     1      -4.461  -1.859  -7.846  0.00  0.00    +0.013 C 
ATOM     22  C   UNL     1      -4.253  -2.074  -9.347  0.00  0.00    +0.012 C 
ENDBRANCH  14  21
ENDBRANCH   1  17
BRANCH   5  23
ATOM     23  C   UNL     1      -0.753   1.593  -1.232  0.00  0.00    +0.110 C 
BRANCH  23  24
ATOM     24  C   UNL     1      -0.013   1.086   0.008  0.00  0.00    +0.034 C 
BRANCH  24  25
ATOM     25  C   UNL     1      -0.729   1.579   1.267  0.00  0.00    +0.086 C 
BRANCH  25  26
ATOM     26  N   UNL     1      -0.018   1.093   2.457  0.00  0.00    -0.298 NA
ATOM     27  C   UNL     1      -0.108  -0.371   2.562  0.00  0.00    +0.112 C 
ATOM     28  C   UNL     1       0.694  -0.840   3.780  0.00  0.00    +0.175 C 
ATOM     29  O   UNL     1       0.202  -0.181   4.950  0.00  0.00    -0.377 OA
ATOM     30  C   UNL     1       0.275   1.245   4.882  0.00  0.00    +0.175 C 
ATOM     31  C   UNL     1      -0.531   1.735   3.676  0.00  0.00    +0.112 C 
ENDBRANCH  25  26
ENDBRANCH  24  25
ENDBRANCH  23  24
ENDBRANCH   5  23
TORSDOF 6
