REMARK  Name = ZINC63836410
REMARK  12 active torsions:
REMARK  status: ('A' for Active; 'I' for Inactive)
REMARK    1  A    between atoms: C_1  and  C_2
REMARK    2  A    between atoms: C_3  and  S_8
REMARK    3  A    between atoms: C_4  and  C_7
REMARK    4  A    between atoms: S_8  and  N_11
REMARK    5  A    between atoms: N_11  and  C_12
REMARK    6  A    between atoms: C_12  and  C_14
REMARK    7  A    between atoms: C_12  and  C_15
REMARK    8  A    between atoms: N_17  and  C_18
REMARK    9  A    between atoms: C_18  and  C_19
REMARK   10  A    between atoms: N_22  and  C_24
REMARK   11  A    between atoms: C_24  and  C_25
REMARK   12  A    between atoms: C_24  and  C_26
REMARK                            x       y       z     vdW  Elec       q    Type
REMARK                         _______ _______ _______ _____ _____    ______ ____
ROOT
ATOM      1  C   UNL     1       2.444  -1.263  -3.371  0.00  0.00    +0.159 C 
ATOM      2  C   UNL     1       2.454  -1.786  -4.809  0.00  0.00    +0.035 C 
ENDROOT
BRANCH   1   3
ATOM      3  C   UNL     1       3.844  -0.877  -2.967  0.00  0.00    +0.231 C 
ATOM      4  O   UNL     1       4.087   0.265  -2.639  0.00  0.00    -0.274 OA
ATOM      5  N   UNL     1       4.825  -1.801  -2.971  0.00  0.00    -0.314 N 
ATOM      6  H   UNL     1       4.630  -2.714  -3.233  0.00  0.00    +0.149 HD
BRANCH   5   7
ATOM      7  C   UNL     1       6.186  -1.426  -2.578  0.00  0.00    +0.105 C 
BRANCH   7   8
ATOM      8  C   UNL     1       7.098  -2.650  -2.668  0.00  0.00    -0.012 C 
ATOM      9  C   UNL     1       7.359  -3.032  -4.149  0.00  0.00    -0.015 C 
ATOM     10  C   UNL     1       8.727  -3.752  -4.051  0.00  0.00    -0.078 C 
ATOM     11  N   UNL     1       9.477  -2.998  -3.024  0.00  0.00    +0.381 N 
ATOM     12  C   UNL     1       8.511  -2.318  -2.142  0.00  0.00    -0.074 C 
ATOM     13  H   UNL     1      10.070  -2.314  -3.469  0.00  0.00    -0.081 HD
BRANCH  11  14
ATOM     14  C   UNL     1      10.300  -3.924  -2.234  0.00  0.00    -0.075 C 
ATOM     15  C   UNL     1      11.309  -4.618  -3.151  0.00  0.00    -0.014 C 
ATOM     16  C   UNL     1      11.046  -3.145  -1.149  0.00  0.00    -0.014 C 
ENDBRANCH  11  14
ENDBRANCH   7   8
ENDBRANCH   5   7
ENDBRANCH   1   3
BRANCH   1  17
ATOM     17  N   UNL     1       1.570  -0.091  -3.285  0.00  0.00    -0.178 NA
ATOM     18  H   UNL     1       1.915   0.789  -3.504  0.00  0.00    +0.149 HD
BRANCH  17  19
ATOM     19  S   UNL     1      -0.008  -0.267  -2.813  0.00  0.00    +0.064 S 
ATOM     20  O   UNL     1      -0.547  -1.328  -3.589  0.00  0.00    -0.153 OA
ATOM     21  O   UNL     1      -0.577   1.035  -2.802  0.00  0.00    -0.153 OA
BRANCH  19  24
ATOM     22  C   UNL     1      -0.018   1.503   0.010  0.00  0.00    +0.071 C 
ATOM     23  C   UNL     1       0.002  -0.004   0.002  0.00  0.00    +0.107 A 
ATOM     24  C   UNL     1       0.008  -0.824  -1.141  0.00  0.00    +0.169 A 
ATOM     25  C   UNL     1       0.027  -2.108  -0.735  0.00  0.00    +0.161 A 
ATOM     26  O   UNL     1       0.034  -2.119   0.606  0.00  0.00    -0.358 OA
ATOM     27  N   UNL     1       0.023  -0.775   1.052  0.00  0.00    -0.081 NA
ATOM     28  C   UNL     1       0.039  -3.320  -1.631  0.00  0.00    +0.091 C 
ENDBRANCH  19  24
ENDBRANCH  17  19
ENDBRANCH   1  17
TORSDOF 7
