REMARK  Name = ZINC38605801
REMARK  8 active torsions:
REMARK  status: ('A' for Active; 'I' for Inactive)
REMARK    1  A    between atoms: C_1  and  C_2
REMARK    2  A    between atoms: C_2  and  O_3
REMARK    3  A    between atoms: O_3  and  C_4
REMARK    4  A    between atoms: C_4  and  C_6
REMARK    5  A    between atoms: C_8  and  N_17
REMARK    6  A    between atoms: C_18  and  C_20
REMARK    7  A    between atoms: C_20  and  C_22
REMARK    8  A    between atoms: C_20  and  N_23
REMARK                            x       y       z     vdW  Elec       q    Type
REMARK                         _______ _______ _______ _____ _____    ______ ____
ROOT
ATOM      1  N   UNL     1       4.015  -1.111  -2.499  0.00  0.00    -0.288 N 
ATOM      2  C   UNL     1       5.298  -1.409  -2.213  0.00  0.00    +0.203 C 
ATOM      3  O   UNL     1       5.748  -2.496  -2.507  0.00  0.00    -0.277 OA
ATOM      4  H   UNL     1       3.676  -0.218  -2.330  0.00  0.00    +0.155 HD
ENDROOT
BRANCH   1   6
ATOM      5  C   UNL     1       3.574  -3.469  -3.436  0.00  0.00    +0.234 C 
ATOM      6  C   UNL     1       3.195  -2.064  -3.025  0.00  0.00    +0.053 C 
ATOM      7  C   UNL     1       1.843  -1.946  -3.293  0.00  0.00    +0.020 A 
ATOM      8  C   UNL     1       0.925  -0.880  -3.125  0.00  0.00    +0.050 A 
ATOM      9  C   UNL     1      -0.374  -1.049  -3.482  0.00  0.00    +0.124 A 
ATOM     10  C   UNL     1      -0.836  -2.257  -4.015  0.00  0.00    +0.040 A 
ATOM     11  C   UNL     1      -0.014  -3.317  -4.203  0.00  0.00    +0.029 A 
ATOM     12  C   UNL     1       1.358  -3.218  -3.855  0.00  0.00    +0.045 A 
ATOM     13  N   UNL     1       2.344  -4.091  -3.937  0.00  0.00    -0.367 N 
ATOM     14  F   UNL     1      -1.241  -0.026  -3.317  0.00  0.00    -0.205 F 
ATOM     15  H   UNL     1       2.269  -4.997  -4.276  0.00  0.00    +0.161 HD
BRANCH   5  16
ATOM     16  C   UNL     1       4.616  -3.428  -4.524  0.00  0.00    +0.336 C 
ATOM     17  O   UNL     1       4.311  -3.078  -5.640  0.00  0.00    -0.248 OA
BRANCH  16  18
ATOM     18  O   UNL     1       5.883  -3.781  -4.255  0.00  0.00    -0.463 OA
BRANCH  18  20
ATOM     19  C   UNL     1       8.198  -4.154  -4.838  0.00  0.00    +0.048 C 
ATOM     20  C   UNL     1       6.817  -3.719  -5.334  0.00  0.00    +0.229 C 
ENDBRANCH  18  20
ENDBRANCH  16  18
ENDBRANCH   5  16
ENDBRANCH   1   6
BRANCH   2  21
ATOM     21  C   UNL     1       6.174  -0.392  -1.528  0.00  0.00    +0.016 C 
ATOM     22  C   UNL     1       5.628  -0.109  -0.128  0.00  0.00    -0.004 C 
BRANCH  21  23
ATOM     23  N   UNL     1       7.543  -0.915  -1.424  0.00  0.00    +0.387 N 
ATOM     24  C   UNL     1       8.430   0.138  -0.917  0.00  0.00    -0.073 C 
ATOM     25  C   UNL     1       9.872  -0.375  -0.887  0.00  0.00    +0.046 C 
ATOM     26  C   UNL     1       9.951  -1.602   0.025  0.00  0.00    +0.167 C 
ATOM     27  C   UNL     1       8.964  -2.665  -0.463  0.00  0.00    +0.046 C 
ATOM     28  C   UNL     1       7.557  -2.063  -0.509  0.00  0.00    -0.073 C 
ATOM     29  O   UNL     1      11.284  -2.136  -0.004  0.00  0.00    -0.346 OA
ATOM     30  C   UNL     1      11.939  -1.556   1.149  0.00  0.00    +0.191 C 
ATOM     31  C   UNL     1      10.785  -1.518   2.182  0.00  0.00    +0.191 C 
ATOM     32  O   UNL     1       9.630  -1.226   1.369  0.00  0.00    -0.346 OA
ATOM     33  H   UNL     1       7.860  -1.209  -2.335  0.00  0.00    -0.081 HD
ENDBRANCH  21  23
ENDBRANCH   2  21
TORSDOF 6
