REMARK  Name = ZINC21222824
REMARK  11 active torsions:
REMARK  status: ('A' for Active; 'I' for Inactive)
REMARK    1  A    between atoms: C_1  and  C_2
REMARK    2  A    between atoms: C_2  and  C_3
REMARK    3  A    between atoms: C_3  and  O_4
REMARK    4  A    between atoms: O_4  and  C_5
REMARK    5  A    between atoms: C_8  and  C_13
REMARK    6  A    between atoms: C_10  and  O_11
REMARK    7  A    between atoms: O_11  and  C_12
REMARK    8  A    between atoms: C_18  and  C_23
REMARK    9  A    between atoms: C_26  and  N_29
REMARK   10  A    between atoms: N_29  and  C_30
REMARK   11  A    between atoms: N_29  and  C_31
REMARK                            x       y       z     vdW  Elec       q    Type
REMARK                         _______ _______ _______ _____ _____    ______ ____
ROOT
ATOM      1  C   UNL     1      -0.157   0.112  -0.190  0.00  0.00    +0.136 C 
ATOM      2  C   UNL     1       0.476  -0.390   1.087  0.00  0.00    +0.036 C 
ATOM      3  C   UNL     1       1.163   0.352   1.970  0.00  0.00    +0.017 C 
ATOM      4  C   UNL     1       1.751  -0.284   3.220  0.00  0.00    +0.059 C 
ATOM      5  C   UNL     1       2.137  -1.734   2.937  0.00  0.00    +0.032 C 
ATOM      6  C   UNL     1       0.869  -2.478   2.502  0.00  0.00    +0.088 C 
ATOM      7  C   UNL     1       0.293  -1.776   1.308  0.00  0.00    +0.163 C 
ATOM      8  O   UNL     1      -0.352  -2.418   0.504  0.00  0.00    -0.292 OA
ATOM      9  N   UNL     1       1.382   1.689   1.863  0.00  0.00    -0.316 N 
ATOM     10  C   UNL     1       1.815   2.335   0.710  0.00  0.00    +0.052 A 
ATOM     11  C   UNL     1       3.028   2.995   0.639  0.00  0.00    +0.025 A 
ATOM     12  C   UNL     1       3.366   3.671  -0.521  0.00  0.00    +0.002 A 
ATOM     13  C   UNL     1       2.497   3.684  -1.597  0.00  0.00    +0.002 A 
ATOM     14  C   UNL     1       1.294   3.002  -1.536  0.00  0.00    +0.025 A 
ATOM     15  C   UNL     1       0.964   2.304  -0.384  0.00  0.00    +0.049 A 
ATOM     16  N   UNL     1      -0.206   1.554  -0.305  0.00  0.00    -0.331 N 
ATOM     17  H   UNL     1       1.217   2.344   2.731  0.00  0.00    +0.152 HD
ATOM     18  H   UNL     1      -1.176   2.071  -0.332  0.00  0.00    +0.147 HD
ENDROOT
BRANCH   1  22
ATOM     19  C   UNL     1       2.069  -1.439  -3.495  0.00  0.00    +0.162 A 
ATOM     20  C   UNL     1       2.658  -0.540  -2.620  0.00  0.00    +0.050 A 
ATOM     21  C   UNL     1       1.936  -0.041  -1.553  0.00  0.00    +0.009 A 
ATOM     22  C   UNL     1       0.625  -0.435  -1.355  0.00  0.00    -0.019 A 
ATOM     23  C   UNL     1       0.034  -1.335  -2.222  0.00  0.00    +0.055 A 
ATOM     24  C   UNL     1       0.750  -1.835  -3.297  0.00  0.00    +0.162 A 
BRANCH  24  25
ATOM     25  O   UNL     1       0.168  -2.717  -4.153  0.00  0.00    -0.491 OA
ATOM     26  C   UNL     1      -1.189  -3.079  -3.888  0.00  0.00    +0.277 C 
ENDBRANCH  24  25
BRANCH  19  27
ATOM     27  O   UNL     1       2.779  -1.932  -4.546  0.00  0.00    -0.488 OA
BRANCH  27  28
ATOM     28  C   UNL     1       4.127  -1.480  -4.687  0.00  0.00    +0.229 C 
BRANCH  28  30
ATOM     29  C   UNL     1       6.203  -1.655  -6.066  0.00  0.00    +0.007 C 
ATOM     30  C   UNL     1       4.759  -2.138  -5.915  0.00  0.00    +0.038 C 
ENDBRANCH  28  30
ENDBRANCH  27  28
ENDBRANCH  19  27
ENDBRANCH   1  22
BRANCH   5  31
ATOM     31  C   UNL     1       2.698  -2.366   4.185  0.00  0.00    -0.043 A 
ATOM     32  C   UNL     1       1.922  -2.443   5.327  0.00  0.00    +0.006 A 
ATOM     33  C   UNL     1       2.431  -3.027   6.471  0.00  0.00    +0.023 A 
ATOM     34  C   UNL     1       3.727  -3.527   6.476  0.00  0.00    +0.029 A 
ATOM     35  C   UNL     1       4.505  -3.443   5.329  0.00  0.00    +0.023 A 
ATOM     36  C   UNL     1       3.988  -2.863   4.187  0.00  0.00    +0.006 A 
BRANCH  34  37
ATOM     37  N   UNL     1       4.246  -4.113   7.633  0.00  0.00    -0.336 N 
ATOM     38  C   UNL     1       5.652  -4.522   7.679  0.00  0.00    +0.129 C 
ATOM     39  C   UNL     1       3.385  -4.319   8.799  0.00  0.00    +0.129 C 
ENDBRANCH  34  37
ENDBRANCH   5  31
TORSDOF 7
