REMARK  Name = ZINC39992770
REMARK  10 active torsions:
REMARK  status: ('A' for Active; 'I' for Inactive)
REMARK    1  A    between atoms: C_1  and  C_2
REMARK    2  A    between atoms: C_2  and  C_4
REMARK    3  A    between atoms: C_7  and  C_10
REMARK    4  A    between atoms: C_13  and  C_15
REMARK    5  A    between atoms: C_16  and  C_17
REMARK    6  A    between atoms: C_16  and  C_19
REMARK    7  A    between atoms: N_21  and  C_22
REMARK    8  A    between atoms: C_23  and  C_31
REMARK    9  A    between atoms: N_33  and  C_34
REMARK   10  A    between atoms: C_34  and  C_35
REMARK                            x       y       z     vdW  Elec       q    Type
REMARK                         _______ _______ _______ _____ _____    ______ ____
ROOT
ATOM      1  C   UNL     1     -10.449  -1.750   0.055  0.00  0.00    +0.259 C 
ATOM      2  O   UNL     1     -11.182  -2.721   0.062  0.00  0.00    -0.269 OA
ATOM      3  N   UNL     1     -10.976  -0.509   0.054  0.00  0.00    -0.275 N 
ATOM      4  H   UNL     1     -10.392   0.266   0.049  0.00  0.00    +0.156 HD
ENDROOT
BRANCH   3   5
ATOM      5  C   UNL     1     -12.350  -0.340   0.060  0.00  0.00    +0.085 A 
ATOM      6  C   UNL     1     -13.063   0.850   0.054  0.00  0.00    +0.069 A 
ATOM      7  C   UNL     1     -14.512   0.755   0.062  0.00  0.00    -0.023 A 
ATOM      8  C   UNL     1     -14.983  -0.510   0.076  0.00  0.00    -0.004 A 
ATOM      9  S   UNL     1     -13.537  -1.528   0.068  0.00  0.00    -0.077 S 
ATOM     10  C   UNL     1     -16.419  -0.935   0.089  0.00  0.00    +0.043 C 
ATOM     11  C   UNL     1     -17.279   0.281   0.465  0.00  0.00    +0.005 C 
ATOM     12  C   UNL     1     -16.842   1.478  -0.384  0.00  0.00    +0.005 C 
ATOM     13  C   UNL     1     -15.454   1.950   0.056  0.00  0.00    +0.037 C 
BRANCH   6  14
ATOM     14  C   UNL     1     -12.382   2.148   0.040  0.00  0.00    +0.247 C 
ATOM     15  O   UNL     1     -12.105   2.679  -1.020  0.00  0.00    -0.270 OA
ATOM     16  N   UNL     1     -12.062   2.754   1.201  0.00  0.00    -0.308 N 
ATOM     17  H   UNL     1     -12.283   2.331   2.046  0.00  0.00    +0.149 HD
BRANCH  16  18
ATOM     18  C   UNL     1     -11.382   4.051   1.187  0.00  0.00    +0.131 C 
BRANCH  18  19
ATOM     19  C   UNL     1     -11.141   4.507   2.603  0.00  0.00    -0.016 C 
ATOM     20  C   UNL     1      -9.929   4.815   2.995  0.00  0.00    +0.005 C 
ENDBRANCH  18  19
ENDBRANCH  16  18
ENDBRANCH   6  14
ENDBRANCH   3   5
BRANCH   1  22
ATOM     21  C   UNL     1      -8.451  -3.206   0.051  0.00  0.00    +0.070 C 
ATOM     22  C   UNL     1      -8.992  -1.929   0.049  0.00  0.00    +0.117 C 
BRANCH  21  26
ATOM     23  C   UNL     1      -4.903  -2.926   0.033  0.00  0.00    +0.136 A 
ATOM     24  C   UNL     1      -5.021  -4.300   0.038  0.00  0.00    +0.050 A 
ATOM     25  C   UNL     1      -6.385  -4.592   0.045  0.00  0.00    +0.050 A 
ATOM     26  C   UNL     1      -7.055  -3.378   0.045  0.00  0.00    +0.130 A 
ATOM     27  O   UNL     1      -6.136  -2.389   0.043  0.00  0.00    -0.455 OA
BRANCH  23  31
ATOM     28  C   UNL     1      -1.261  -0.756   0.010  0.00  0.00    +0.017 A 
ATOM     29  C   UNL     1      -2.483  -0.073   0.020  0.00  0.00    +0.012 A 
ATOM     30  C   UNL     1      -3.656  -0.772   0.027  0.00  0.00    +0.012 A 
ATOM     31  C   UNL     1      -3.637  -2.171   0.025  0.00  0.00    +0.017 A 
ATOM     32  C   UNL     1      -2.416  -2.855   0.016  0.00  0.00    +0.012 A 
ATOM     33  C   UNL     1      -1.242  -2.157   0.002  0.00  0.00    +0.012 A 
BRANCH  28  35
ATOM     34  C   UNL     1      -0.018   1.503   0.010  0.00  0.00    +0.091 C 
ATOM     35  C   UNL     1       0.002  -0.004   0.002  0.00  0.00    +0.160 C 
ATOM     36  O   UNL     1       1.060  -0.596  -0.011  0.00  0.00    -0.292 OA
ENDBRANCH  28  35
ENDBRANCH  23  31
ENDBRANCH  21  26
BRANCH  22  37
ATOM     37  C   UNL     1      -8.130  -0.786   0.042  0.00  0.00    +0.104 C 
ATOM     38  N   UNL     1      -7.446   0.121   0.036  0.00  0.00    -0.191 NA
ENDBRANCH  22  37
ENDBRANCH   1  22
TORSDOF 9
