REMARK  Name = ZINC13053417
REMARK  7 active torsions:
REMARK  status: ('A' for Active; 'I' for Inactive)
REMARK    1  A    between atoms: C_3  and  C_6
REMARK    2  A    between atoms: C_8  and  C_11
REMARK    3  A    between atoms: C_11  and  S_12
REMARK    4  A    between atoms: S_12  and  C_13
REMARK    5  A    between atoms: C_17  and  C_31
REMARK    6  A    between atoms: N_23  and  C_24
REMARK    7  A    between atoms: C_24  and  C_25
REMARK                            x       y       z     vdW  Elec       q    Type
REMARK                         _______ _______ _______ _____ _____    ______ ____
ROOT
ATOM      1  C   UNL     1      -1.716   0.816  -1.730  0.00  0.00    +0.173 A 
ATOM      2  N   UNL     1      -2.396   1.189  -2.786  0.00  0.00    -0.223 NA
ATOM      3  C   UNL     1      -2.142   2.361  -3.414  0.00  0.00    +0.080 A 
ATOM      4  C   UNL     1      -2.863   2.754  -4.545  0.00  0.00    +0.043 A 
ATOM      5  C   UNL     1      -2.567   3.965  -5.157  0.00  0.00    +0.065 A 
ATOM      6  C   UNL     1      -1.554   4.789  -4.649  0.00  0.00    +0.016 A 
ATOM      7  C   UNL     1      -0.842   4.415  -3.545  0.00  0.00    +0.016 A 
ATOM      8  C   UNL     1      -1.123   3.203  -2.915  0.00  0.00    +0.065 A 
ATOM      9  C   UNL     1      -0.381   2.762  -1.724  0.00  0.00    +0.262 A 
ATOM     10  O   UNL     1       0.507   3.443  -1.246  0.00  0.00    -0.267 OA
ATOM     11  N   UNL     1      -0.721   1.571  -1.179  0.00  0.00    -0.285 N 
ENDROOT
BRANCH   5  12
ATOM     12  C   UNL     1      -3.326   4.388  -6.354  0.00  0.00    +0.387 C 
ATOM     13  O   UNL     1      -4.205   3.678  -6.798  0.00  0.00    -0.241 OA
ATOM     14  O   UNL     1      -3.043   5.562  -6.951  0.00  0.00    -0.241 OA
ENDBRANCH   5  12
BRANCH   1  15
ATOM     15  S   UNL     1      -2.111  -0.730  -0.980  0.00  0.00    -0.078 S 
BRANCH  15  16
ATOM     16  C   UNL     1      -3.442  -1.280  -2.076  0.00  0.00    +0.176 C 
BRANCH  16  19
ATOM     17  C   UNL     1      -5.022  -4.179  -0.653  0.00  0.00    +0.209 A 
ATOM     18  N   UNL     1      -4.915  -2.833  -0.755  0.00  0.00    -0.190 NA
ATOM     19  C   UNL     1      -3.950  -2.621  -1.614  0.00  0.00    +0.238 A 
ATOM     20  O   UNL     1      -3.497  -3.817  -2.002  0.00  0.00    -0.337 OA
ATOM     21  N   UNL     1      -4.117  -4.699  -1.446  0.00  0.00    -0.056 NA
BRANCH  17  24
ATOM     22  C   UNL     1      -7.096  -6.744   1.202  0.00  0.00    +0.008 A 
ATOM     23  C   UNL     1      -6.128  -6.276   0.343  0.00  0.00    +0.019 A 
ATOM     24  C   UNL     1      -5.976  -4.922   0.196  0.00  0.00    +0.060 A 
ATOM     25  S   UNL     1      -7.226  -4.290   1.302  0.00  0.00    -0.093 S 
ATOM     26  C   UNL     1      -7.870  -5.853   1.875  0.00  0.00    +0.046 A 
ENDBRANCH  17  24
ENDBRANCH  16  19
ENDBRANCH  15  16
ENDBRANCH   1  15
BRANCH  11  27
ATOM     27  C   UNL     1      -0.013   1.086   0.008  0.00  0.00    +0.159 C 
BRANCH  27  28
ATOM     28  C   UNL     1      -0.729   1.579   1.267  0.00  0.00    +0.138 C 
ATOM     29  C   UNL     1       0.045   1.137   2.534  0.00  0.00    +0.035 C 
ATOM     30  C   UNL     1      -0.418   2.213   3.553  0.00  0.00    +0.031 C 
ATOM     31  C   UNL     1      -0.572   3.464   2.661  0.00  0.00    +0.160 C 
ATOM     32  O   UNL     1      -0.729   3.015   1.310  0.00  0.00    -0.375 OA
ENDBRANCH  27  28
ENDBRANCH  11  27
TORSDOF 7
