REMARK  Name = ZINC63845853
REMARK  4 active torsions:
REMARK  status: ('A' for Active; 'I' for Inactive)
REMARK    1  A    between atoms: C_1  and  C_2
REMARK    2  A    between atoms: C_3  and  C_8
REMARK    3  A    between atoms: N_5  and  C_7
REMARK    4  A    between atoms: C_17  and  C_20
REMARK                            x       y       z     vdW  Elec       q    Type
REMARK                         _______ _______ _______ _____ _____    ______ ____
ROOT
ATOM      1  C   UNL     1      -0.005  -0.366  -2.552  0.00  0.00    +0.079 A 
ATOM      2  C   UNL     1      -0.003  -1.291  -3.601  0.00  0.00    +0.048 A 
ATOM      3  C   UNL     1      -0.017  -0.815  -4.899  0.00  0.00    +0.116 A 
ATOM      4  N   UNL     1      -0.031   0.493  -5.109  0.00  0.00    -0.223 NA
ATOM      5  C   UNL     1      -0.032   1.347  -4.097  0.00  0.00    +0.218 A 
ATOM      6  N   UNL     1      -0.025   0.934  -2.839  0.00  0.00    -0.214 NA
ATOM      7  N   UNL     1      -0.047   2.705  -4.360  0.00  0.00    -0.300 N 
ATOM      8  C   UNL     1      -0.043   3.681  -3.262  0.00  0.00    +0.108 C 
ATOM      9  C   UNL     1      -1.221   4.642  -3.452  0.00  0.00    +0.026 C 
ATOM     10  C   UNL     1      -1.146   5.266  -4.847  0.00  0.00    +0.035 C 
ATOM     11  C   UNL     1      -1.245   4.165  -5.906  0.00  0.00    +0.026 C 
ATOM     12  C   UNL     1      -0.061   3.199  -5.744  0.00  0.00    +0.108 C 
ENDROOT
BRANCH  10  13
ATOM     13  C   UNL     1      -2.301   6.252  -5.028  0.00  0.00    +0.177 C 
ATOM     14  N   UNL     1      -2.212   6.898  -6.344  0.00  0.00    -0.363 N 
ATOM     15  C   UNL     1      -2.083   8.177  -6.144  0.00  0.00    +0.060 A 
ATOM     16  C   UNL     1      -1.948   9.322  -7.056  0.00  0.00    +0.030 A 
ATOM     17  C   UNL     1      -1.828  10.565  -6.551  0.00  0.00    +0.040 A 
ATOM     18  C   UNL     1      -1.825  10.824  -5.165  0.00  0.00    +0.125 A 
ATOM     19  C   UNL     1      -1.942   9.844  -4.243  0.00  0.00    +0.065 A 
ATOM     20  C   UNL     1      -2.079   8.450  -4.680  0.00  0.00    +0.063 A 
ATOM     21  N   UNL     1      -2.208   7.326  -4.031  0.00  0.00    -0.363 N 
ATOM     22  F   UNL     1      -1.699  12.101  -4.744  0.00  0.00    -0.205 F 
ATOM     23  H   UNL     1      -2.243   6.452  -7.205  0.00  0.00    +0.162 HD
ATOM     24  H   UNL     1      -2.236   7.219  -3.067  0.00  0.00    +0.162 HD
ENDBRANCH  10  13
BRANCH   1  27
ATOM     25  C   UNL     1      -0.018   1.503   0.010  0.00  0.00    +0.068 C 
ATOM     26  C   UNL     1       0.002  -0.004   0.002  0.00  0.00    +0.069 A 
ATOM     27  C   UNL     1       0.008  -0.826  -1.143  0.00  0.00    +0.041 A 
ATOM     28  C   UNL     1       0.028  -2.124  -0.717  0.00  0.00    +0.118 A 
ATOM     29  N   UNL     1       0.034  -2.110   0.629  0.00  0.00    -0.274 N 
ATOM     30  N   UNL     1       0.023  -0.777   1.055  0.00  0.00    -0.176 NA
ATOM     31  C   UNL     1       0.053  -3.289   1.498  0.00  0.00    +0.172 C 
ENDBRANCH   1  27
TORSDOF 2
