REMARK  Name = ZINC64817602
REMARK  10 active torsions:
REMARK  status: ('A' for Active; 'I' for Inactive)
REMARK    1  A    between atoms: C_1  and  C_2
REMARK    2  A    between atoms: C_2  and  N_3
REMARK    3  A    between atoms: C_6  and  C_8
REMARK    4  A    between atoms: N_9  and  C_23
REMARK    5  A    between atoms: N_12  and  C_15
REMARK    6  A    between atoms: C_15  and  C_16
REMARK    7  A    between atoms: C_16  and  C_17
REMARK    8  A    between atoms: C_23  and  C_24
REMARK    9  A    between atoms: N_26  and  C_27
REMARK   10  A    between atoms: C_32  and  C_33
REMARK                            x       y       z     vdW  Elec       q    Type
REMARK                         _______ _______ _______ _____ _____    ______ ____
ROOT
ATOM      1  N   UNL     1       0.700  -0.493  -1.186  0.00  0.00    -0.257 N 
ATOM      2  C   UNL     1       0.100  -0.742  -2.385  0.00  0.00    +0.150 A 
ATOM      3  C   UNL     1       1.111  -1.165  -3.247  0.00  0.00    +0.100 A 
ATOM      4  C   UNL     1       2.280  -1.141  -2.482  0.00  0.00    +0.084 A 
ATOM      5  N   UNL     1       1.962  -0.729  -1.280  0.00  0.00    -0.174 NA
ATOM      6  C   UNL     1       3.661  -1.514  -2.956  0.00  0.00    +0.070 C 
ATOM      7  N   UNL     1       0.790  -1.493  -4.554  0.00  0.00    -0.281 N 
ATOM      8  C   UNL     1      -0.481  -1.403  -4.988  0.00  0.00    +0.333 A 
ATOM      9  O   UNL     1      -0.729  -1.698  -6.141  0.00  0.00    -0.246 OA
ATOM     10  N   UNL     1      -1.485  -1.001  -4.193  0.00  0.00    -0.259 N 
ATOM     11  C   UNL     1      -1.264  -0.662  -2.904  0.00  0.00    +0.282 A 
ATOM     12  O   UNL     1      -2.180  -0.298  -2.190  0.00  0.00    -0.265 OA
ENDROOT
BRANCH   1  14
ATOM     13  C   UNL     1       0.002   1.506   0.038  0.00  0.00    +0.029 C 
ATOM     14  C   UNL     1       0.015  -0.024   0.021  0.00  0.00    +0.141 C 
ENDBRANCH   1  14
BRANCH  10  15
ATOM     15  C   UNL     1      -2.845  -0.927  -4.732  0.00  0.00    +0.134 C 
BRANCH  15  16
ATOM     16  C   UNL     1      -3.551  -2.268  -4.522  0.00  0.00    +0.057 C 
BRANCH  16  17
ATOM     17  C   UNL     1      -4.950  -2.192  -5.077  0.00  0.00    -0.046 A 
ATOM     18  C   UNL     1      -5.992  -1.774  -4.271  0.00  0.00    +0.004 A 
ATOM     19  C   UNL     1      -7.275  -1.704  -4.780  0.00  0.00    +0.000 A 
ATOM     20  C   UNL     1      -7.516  -2.053  -6.096  0.00  0.00    +0.000 A 
ATOM     21  C   UNL     1      -6.474  -2.470  -6.902  0.00  0.00    +0.000 A 
ATOM     22  C   UNL     1      -5.190  -2.535  -6.394  0.00  0.00    +0.004 A 
ENDBRANCH  16  17
ENDBRANCH  15  16
ENDBRANCH  10  15
BRANCH   7  23
ATOM     23  C   UNL     1       1.842  -1.939  -5.471  0.00  0.00    +0.223 C 
BRANCH  23  24
ATOM     24  C   UNL     1       1.974  -3.438  -5.392  0.00  0.00    +0.237 C 
ATOM     25  O   UNL     1       1.260  -4.071  -4.644  0.00  0.00    -0.274 OA
ATOM     26  N   UNL     1       2.886  -4.075  -6.153  0.00  0.00    -0.284 N 
ATOM     27  H   UNL     1       3.401  -3.580  -6.809  0.00  0.00    +0.155 HD
BRANCH  26  28
ATOM     28  C   UNL     1       3.089  -5.451  -5.997  0.00  0.00    +0.038 A 
ATOM     29  C   UNL     1       2.784  -6.067  -4.791  0.00  0.00    +0.043 A 
ATOM     30  C   UNL     1       2.986  -7.426  -4.640  0.00  0.00    +0.043 A 
ATOM     31  C   UNL     1       3.491  -8.172  -5.691  0.00  0.00    +0.020 A 
ATOM     32  C   UNL     1       3.796  -7.560  -6.892  0.00  0.00    +0.006 A 
ATOM     33  C   UNL     1       3.591  -6.203  -7.051  0.00  0.00    -0.029 A 
ATOM     34  C   UNL     1       3.918  -5.539  -8.364  0.00  0.00    +0.045 C 
ATOM     35 CL   UNL     1       2.605  -8.197  -3.132  0.00  0.00    -0.083 Cl
ENDBRANCH  26  28
ENDBRANCH  23  24
ENDBRANCH   7  23
TORSDOF 7
