REMARK  Name = ZINC32676127
REMARK  9 active torsions:
REMARK  status: ('A' for Active; 'I' for Inactive)
REMARK    1  A    between atoms: C_1  and  C_2
REMARK    2  A    between atoms: C_2  and  C_4
REMARK    3  A    between atoms: C_7  and  S_10
REMARK    4  A    between atoms: S_10  and  N_13
REMARK    5  A    between atoms: N_13  and  C_14
REMARK    6  A    between atoms: C_14  and  C_15
REMARK    7  A    between atoms: C_18  and  C_21
REMARK    8  A    between atoms: N_23  and  C_24
REMARK    9  A    between atoms: C_29  and  N_30
REMARK                            x       y       z     vdW  Elec       q    Type
REMARK                         _______ _______ _______ _____ _____    ______ ____
ROOT
ATOM      1  C   UNL     1       2.195   4.906   3.679  0.00  0.00    -0.032 A 
ATOM      2  C   UNL     1       2.776   6.161   3.705  0.00  0.00    +0.006 A 
ATOM      3  C   UNL     1       2.714   6.931   4.848  0.00  0.00    +0.013 A 
ATOM      4  C   UNL     1       2.072   6.436   5.984  0.00  0.00    +0.037 A 
ATOM      5  C   UNL     1       1.493   5.166   5.954  0.00  0.00    +0.013 A 
ATOM      6  C   UNL     1       1.557   4.409   4.802  0.00  0.00    +0.006 A 
ENDROOT
BRANCH   4   7
ATOM      7  C   UNL     1       2.006   7.252   7.215  0.00  0.00    +0.248 C 
ATOM      8  O   UNL     1       1.446   6.819   8.203  0.00  0.00    -0.270 OA
ATOM      9  N   UNL     1       2.567   8.478   7.241  0.00  0.00    -0.280 N 
ATOM     10  H   UNL     1       3.151   8.834   6.380  0.00  0.00    +0.155 HD
BRANCH   9  11
ATOM     11  C   UNL     1       2.405   9.298   8.365  0.00  0.00    +0.055 A 
ATOM     12  C   UNL     1       1.311   9.125   9.200  0.00  0.00    +0.025 A 
ATOM     13  C   UNL     1       1.154   9.935  10.309  0.00  0.00    +0.002 A 
ATOM     14  C   UNL     1       2.085  10.919  10.590  0.00  0.00    +0.002 A 
ATOM     15  C   UNL     1       3.178  11.098   9.763  0.00  0.00    +0.025 A 
ATOM     16  C   UNL     1       3.346  10.287   8.650  0.00  0.00    +0.051 A 
BRANCH  16  17
ATOM     17  N   UNL     1       4.454  10.463   7.815  0.00  0.00    -0.328 N 
ATOM     18  C   UNL     1       5.703  10.168   8.529  0.00  0.00    +0.105 C 
ATOM     19  C   UNL     1       6.878  10.229   7.550  0.00  0.00    +0.019 C 
ATOM     20  C   UNL     1       6.943  11.625   6.924  0.00  0.00    +0.003 C 
ATOM     21  C   UNL     1       5.613  11.926   6.229  0.00  0.00    +0.019 C 
ATOM     22  C   UNL     1       4.475  11.816   7.246  0.00  0.00    +0.105 C 
ENDBRANCH  16  17
ENDBRANCH   9  11
ENDBRANCH   4   7
BRANCH   1  23
ATOM     23  C   UNL     1       2.262   4.074   2.425  0.00  0.00    +0.141 C 
BRANCH  23  24
ATOM     24  N   UNL     1       1.093   4.357   1.588  0.00  0.00    -0.186 NA
ATOM     25  H   UNL     1       0.167   4.734   2.046  0.00  0.00    +0.148 HD
BRANCH  24  26
ATOM     26  S   UNL     1       1.076   3.882   0.001  0.00  0.00    +0.059 S 
ATOM     27  O   UNL     1       2.306   4.315  -0.565  0.00  0.00    -0.153 OA
ATOM     28  O   UNL     1      -0.184   4.272  -0.526  0.00  0.00    -0.153 OA
BRANCH  26  32
ATOM     29  C   UNL     1       1.154  -0.649  -0.043  0.00  0.00    +0.017 A 
ATOM     30  C   UNL     1      -0.067   0.033  -0.017  0.00  0.00    +0.013 A 
ATOM     31  C   UNL     1      -0.082   1.412  -0.003  0.00  0.00    +0.029 A 
ATOM     32  C   UNL     1       1.107   2.121  -0.016  0.00  0.00    +0.105 A 
ATOM     33  C   UNL     1       2.319   1.453  -0.042  0.00  0.00    +0.029 A 
ATOM     34  C   UNL     1       2.351   0.075  -0.056  0.00  0.00    +0.013 A 
BRANCH  29  36
ATOM     35  C   UNL     1       2.497  -2.851  -0.086  0.00  0.00    +0.091 C 
ATOM     36  C   UNL     1       1.179  -2.120  -0.057  0.00  0.00    +0.160 C 
ATOM     37  O   UNL     1       0.140  -2.744  -0.046  0.00  0.00    -0.292 OA
ENDBRANCH  29  36
ENDBRANCH  26  32
ENDBRANCH  24  26
ENDBRANCH  23  24
ENDBRANCH   1  23
TORSDOF 8
