REMARK  Name = ZINC36599376
REMARK  10 active torsions:
REMARK  status: ('A' for Active; 'I' for Inactive)
REMARK    1  A    between atoms: C_1  and  C_2
REMARK    2  A    between atoms: C_5  and  C_7
REMARK    3  A    between atoms: C_7  and  N_8
REMARK    4  A    between atoms: N_8  and  C_9
REMARK    5  A    between atoms: C_9  and  C_11
REMARK    6  A    between atoms: C_9  and  C_25
REMARK    7  A    between atoms: N_27  and  C_28
REMARK    8  A    between atoms: C_34  and  C_36
REMARK    9  A    between atoms: C_37  and  C_38
REMARK   10  A    between atoms: C_37  and  C_39
REMARK                            x       y       z     vdW  Elec       q    Type
REMARK                         _______ _______ _______ _____ _____    ______ ____
ROOT
ATOM      1  C   UNL     1       3.225  -2.451  -1.647  0.00  0.00    +0.193 C 
ENDROOT
BRANCH   1   2
ATOM      2  C   UNL     1       2.857  -0.991  -1.582  0.00  0.00    -0.010 A 
ATOM      3  C   UNL     1       1.980  -0.573  -0.646  0.00  0.00    +0.015 A 
ATOM      4  C   UNL     1       1.603   0.786  -0.544  0.00  0.00    -0.017 A 
ATOM      5  C   UNL     1       0.691   1.210   0.432  0.00  0.00    +0.008 A 
ATOM      6  C   UNL     1       0.344   2.528   0.508  0.00  0.00    +0.001 A 
ATOM      7  C   UNL     1       0.884   3.459  -0.371  0.00  0.00    +0.001 A 
ATOM      8  C   UNL     1       1.775   3.078  -1.333  0.00  0.00    +0.009 A 
ATOM      9  C   UNL     1       2.149   1.737  -1.436  0.00  0.00    -0.010 A 
ATOM     10  C   UNL     1       3.101   1.282  -2.453  0.00  0.00    -0.010 A 
ATOM     11  C   UNL     1       3.443  -0.088  -2.499  0.00  0.00    -0.012 A 
ATOM     12  C   UNL     1       4.358  -0.532  -3.465  0.00  0.00    +0.009 A 
ATOM     13  C   UNL     1       4.907   0.361  -4.337  0.00  0.00    +0.001 A 
ATOM     14  C   UNL     1       4.573   1.709  -4.284  0.00  0.00    +0.001 A 
ATOM     15  C   UNL     1       3.677   2.171  -3.363  0.00  0.00    +0.009 A 
ENDBRANCH   1   2
BRANCH   1  16
ATOM     16  C   UNL     1       4.475  -2.690  -0.840  0.00  0.00    +0.238 C 
ATOM     17  O   UNL     1       4.430  -2.660   0.371  0.00  0.00    -0.273 OA
ATOM     18  N   UNL     1       5.644  -2.938  -1.465  0.00  0.00    -0.311 N 
ATOM     19  H   UNL     1       5.680  -2.963  -2.434  0.00  0.00    +0.149 HD
BRANCH  18  20
ATOM     20  C   UNL     1       6.859  -3.171  -0.680  0.00  0.00    +0.073 C 
ATOM     21  C   UNL     1       7.502  -1.829  -0.326  0.00  0.00    +0.022 C 
ATOM     22  C   UNL     1       8.771  -2.072   0.494  0.00  0.00    +0.002 C 
ATOM     23  C   UNL     1       9.755  -2.908  -0.326  0.00  0.00    +0.000 C 
ATOM     24  C   UNL     1       9.112  -4.250  -0.681  0.00  0.00    +0.002 C 
ATOM     25  C   UNL     1       7.843  -4.007  -1.500  0.00  0.00    +0.022 C 
ENDBRANCH  18  20
ENDBRANCH   1  16
BRANCH   1  26
ATOM     26  N   UNL     1       2.130  -3.256  -1.101  0.00  0.00    -0.275 N 
ATOM     27  C   UNL     1       0.945  -3.304  -1.742  0.00  0.00    +0.241 C 
ATOM     28  O   UNL     1       0.014  -3.915  -1.252  0.00  0.00    -0.271 OA
BRANCH  27  29
ATOM     29  C   UNL     1       0.778  -2.619  -3.032  0.00  0.00    +0.066 C 
ATOM     30  C   UNL     1      -0.400  -2.639  -3.649  0.00  0.00    -0.071 C 
ATOM     31  C   UNL     1      -1.505  -3.525  -3.133  0.00  0.00    +0.039 C 
ATOM     32  C   UNL     1      -0.631  -1.777  -4.863  0.00  0.00    +0.039 C 
ENDBRANCH  27  29
BRANCH  26  33
ATOM     33  C   UNL     1       2.322  -4.008   0.141  0.00  0.00    +0.183 C 
BRANCH  33  38
ATOM     34  C   UNL     1       2.049  -0.691   3.931  0.00  0.00    +0.086 C 
ATOM     35  C   UNL     1       1.666  -1.767   2.949  0.00  0.00    +0.102 A 
ATOM     36  C   UNL     1       0.475  -2.390   2.889  0.00  0.00    +0.045 A 
ATOM     37  C   UNL     1       0.551  -3.320   1.827  0.00  0.00    +0.046 A 
ATOM     38  C   UNL     1       1.784  -3.209   1.301  0.00  0.00    +0.122 A 
ATOM     39  O   UNL     1       2.453  -2.264   1.980  0.00  0.00    -0.463 OA
ENDBRANCH  33  38
ENDBRANCH  26  33
ENDBRANCH   1  26
TORSDOF 7
