REMARK  Name = ZINC64656098
REMARK  8 active torsions:
REMARK  status: ('A' for Active; 'I' for Inactive)
REMARK    1  A    between atoms: C_1  and  C_2
REMARK    2  A    between atoms: C_2  and  C_3
REMARK    3  A    between atoms: C_6  and  C_9
REMARK    4  A    between atoms: N_15  and  C_18
REMARK    5  A    between atoms: C_18  and  C_19
REMARK    6  A    between atoms: N_21  and  C_22
REMARK    7  A    between atoms: C_22  and  C_23
REMARK    8  A    between atoms: C_29  and  C_33
REMARK                            x       y       z     vdW  Elec       q    Type
REMARK                         _______ _______ _______ _____ _____    ______ ____
ROOT
ATOM      1  C   UNL     1       3.807  -6.956  -3.347  0.00  0.00    +0.217 C 
ENDROOT
BRANCH   1   8
ATOM      2  C   UNL     1       2.916  -2.562  -2.606  0.00  0.00    +0.014 A 
ATOM      3  C   UNL     1       4.019  -1.840  -2.172  0.00  0.00    +0.010 A 
ATOM      4  C   UNL     1       5.228  -2.453  -2.004  0.00  0.00    +0.010 A 
ATOM      5  C   UNL     1       5.356  -3.818  -2.271  0.00  0.00    -0.000 A 
ATOM      6  C   UNL     1       6.467  -4.769  -2.201  0.00  0.00    +0.027 A 
ATOM      7  C   UNL     1       5.987  -5.963  -2.583  0.00  0.00    +0.087 A 
ATOM      8  N   UNL     1       4.658  -5.854  -2.892  0.00  0.00    -0.338 N 
ATOM      9  C   UNL     1       4.241  -4.554  -2.712  0.00  0.00    +0.050 A 
ATOM     10  C   UNL     1       3.018  -3.910  -2.871  0.00  0.00    +0.035 A 
BRANCH   2  14
ATOM     11  C   UNL     1       0.707  -0.490  -1.238  0.00  0.00    +0.207 C 
ATOM     12  N   UNL     1       1.206   0.290  -2.124  0.00  0.00    -0.150 NA
ATOM     13  N   UNL     1       1.796  -0.454  -3.157  0.00  0.00    -0.224 N 
ATOM     14  C   UNL     1       1.591  -1.865  -2.785  0.00  0.00    +0.309 C 
ATOM     15  O   UNL     1       0.889  -1.797  -1.535  0.00  0.00    -0.451 OA
ATOM     16  H   UNL     1       2.242  -0.113  -3.948  0.00  0.00    +0.172 HD
BRANCH  11  18
ATOM     17  C   UNL     1      -0.019   1.526   0.010  0.00  0.00    +0.013 C 
ATOM     18  C   UNL     1       0.002  -0.004   0.002  0.00  0.00    +0.093 C 
ENDBRANCH  11  18
ENDBRANCH   2  14
ENDBRANCH   1   8
BRANCH   1  19
ATOM     19  C   UNL     1       3.755  -6.962  -4.853  0.00  0.00    +0.233 C 
ATOM     20  O   UNL     1       4.369  -6.128  -5.484  0.00  0.00    -0.274 OA
ATOM     21  N   UNL     1       3.026  -7.894  -5.498  0.00  0.00    -0.310 N 
ATOM     22  H   UNL     1       2.535  -8.561  -4.993  0.00  0.00    +0.149 HD
BRANCH  21  23
ATOM     23  C   UNL     1       2.976  -7.900  -6.962  0.00  0.00    +0.151 C 
BRANCH  23  24
ATOM     24  C   UNL     1       2.086  -9.051  -7.437  0.00  0.00    +0.191 C 
ATOM     25  N   UNL     1       0.740  -8.916  -6.866  0.00  0.00    -0.362 N 
ATOM     26  C   UNL     1       0.515  -9.976  -6.144  0.00  0.00    +0.060 A 
ATOM     27  C   UNL     1      -0.635 -10.409  -5.338  0.00  0.00    +0.027 A 
ATOM     28  C   UNL     1      -0.582 -11.585  -4.682  0.00  0.00    +0.005 A 
ATOM     29  C   UNL     1       0.540 -12.431  -4.733  0.00  0.00    -0.048 A 
ATOM     30  C   UNL     1       1.646 -12.130  -5.441  0.00  0.00    +0.030 A 
ATOM     31  C   UNL     1       1.702 -10.871  -6.198  0.00  0.00    +0.060 A 
ATOM     32  N   UNL     1       2.617 -10.332  -6.952  0.00  0.00    -0.362 N 
ATOM     33  C   UNL     1       0.503 -13.727  -3.965  0.00  0.00    +0.044 C 
ATOM     34  H   UNL     1       0.131  -8.174  -7.002  0.00  0.00    +0.162 HD
ATOM     35  H   UNL     1       3.488 -10.706  -7.157  0.00  0.00    +0.162 HD
ENDBRANCH  23  24
ENDBRANCH  21  23
ENDBRANCH   1  19
TORSDOF 6
