REMARK  Name = ZINC04084940
REMARK  3 active torsions:
REMARK  status: ('A' for Active; 'I' for Inactive)
REMARK    1  A    between atoms: C_1  and  O_2
REMARK    2  A    between atoms: O_2  and  C_3
REMARK    3  A    between atoms: C_3  and  C_5
REMARK                            x       y       z     vdW  Elec       q    Type
REMARK                         _______ _______ _______ _____ _____    ______ ____
ROOT
ATOM      1  C   UNL     1       0.543  -2.812   0.338  0.00  0.00    +0.190 C 
ATOM      2  C   UNL     1       1.712  -1.896  -0.053  0.00  0.00    +0.071 C 
ATOM      3  C   UNL     1       1.277  -0.454  -0.023  0.00  0.00    -0.015 A 
ATOM      4  C   UNL     1       2.130   0.722  -0.020  0.00  0.00    +0.003 A 
ATOM      5  C   UNL     1       3.520   0.879  -0.034  0.00  0.00    +0.010 A 
ATOM      6  C   UNL     1       3.998   2.166  -0.028  0.00  0.00    +0.001 A 
ATOM      7  C   UNL     1       3.154   3.265  -0.008  0.00  0.00    +0.002 A 
ATOM      8  C   UNL     1       1.776   3.138   0.006  0.00  0.00    +0.026 A 
ATOM      9  C   UNL     1       1.262   1.842  -0.000  0.00  0.00    +0.047 A 
ATOM     10  N   UNL     1      -0.017   1.364   0.009  0.00  0.00    -0.356 N 
ATOM     11  H   UNL     1      -0.817   1.912   0.017  0.00  0.00    +0.166 HD
ATOM     12  C   UNL     1       0.002  -0.004   0.002  0.00  0.00    +0.046 A 
ATOM     13  C   UNL     1      -1.193  -0.925   0.036  0.00  0.00    +0.155 C 
ATOM     14  N   UNL     1      -0.673  -2.275  -0.283  0.00  0.00    -0.271 N 
ATOM     15  C   UNL     1      -1.463  -2.828  -1.212  0.00  0.00    +0.248 C 
ATOM     16  O   UNL     1      -1.442  -3.997  -1.544  0.00  0.00    -0.270 OA
ATOM     17  C   UNL     1      -2.358  -1.808  -1.768  0.00  0.00    +0.042 A 
ATOM     18  C   UNL     1      -2.184  -0.616  -1.035  0.00  0.00    -0.009 A 
ATOM     19  C   UNL     1      -2.865   0.535  -1.358  0.00  0.00    +0.006 A 
ATOM     20  C   UNL     1      -3.745   0.469  -2.435  0.00  0.00    +0.000 A 
ATOM     21  C   UNL     1      -3.933  -0.697  -3.150  0.00  0.00    +0.001 A 
ATOM     22  C   UNL     1      -3.249  -1.863  -2.841  0.00  0.00    +0.013 A 
ENDROOT
BRANCH   1  23
ATOM     23  C   UNL     1       0.386  -2.829   1.836  0.00  0.00    +0.328 C 
ATOM     24  O   UNL     1      -0.649  -2.461   2.340  0.00  0.00    -0.249 OA
BRANCH  23  26
ATOM     25  C   UNL     1       1.175  -3.241   4.047  0.00  0.00    +0.280 C 
ATOM     26  O   UNL     1       1.397  -3.252   2.612  0.00  0.00    -0.467 OA
ENDBRANCH  23  26
ENDBRANCH   1  23
TORSDOF 2
