REMARK  Name = ZINC04064031
REMARK  8 active torsions:
REMARK  status: ('A' for Active; 'I' for Inactive)
REMARK    1  A    between atoms: C_1  and  O_2
REMARK    2  A    between atoms: O_2  and  C_3
REMARK    3  A    between atoms: C_8  and  N_9
REMARK    4  A    between atoms: C_14  and  C_15
REMARK    5  A    between atoms: C_14  and  N_60
REMARK    6  A    between atoms: C_18  and  C_21
REMARK    7  A    between atoms: N_23  and  N_24
REMARK    8  A    between atoms: C_25  and  C_26
REMARK                            x       y       z     vdW  Elec       q    Type
REMARK                         _______ _______ _______ _____ _____    ______ ____
ROOT
ATOM      1  C   UNL     1      -1.063   1.275   1.332  0.00  0.00    -0.064 A 
ATOM      2  C   UNL     1      -0.934   2.462   2.031  0.00  0.00    +0.002 A 
ATOM      3  C   UNL     1      -1.707   2.695   3.150  0.00  0.00    +0.013 A 
ATOM      4  C   UNL     1      -2.613   1.724   3.582  0.00  0.00    +0.038 A 
ATOM      5  C   UNL     1      -2.734   0.526   2.875  0.00  0.00    +0.013 A 
ATOM      6  C   UNL     1      -1.958   0.309   1.755  0.00  0.00    +0.002 A 
ENDROOT
BRANCH   4   7
ATOM      7  C   UNL     1      -3.441   1.965   4.783  0.00  0.00    +0.263 C 
ATOM      8  O   UNL     1      -4.229   1.118   5.157  0.00  0.00    -0.268 OA
ATOM      9  N   UNL     1      -3.322   3.122   5.463  0.00  0.00    -0.203 N 
ATOM     10  H   UNL     1      -2.693   3.797   5.164  0.00  0.00    +0.178 HD
BRANCH   9  11
ATOM     11  N   UNL     1      -4.107   3.350   6.601  0.00  0.00    -0.187 NA
ATOM     12  C   UNL     1      -3.992   4.465   7.256  0.00  0.00    +0.138 C 
BRANCH  12  13
ATOM     13  C   UNL     1      -4.818   4.704   8.453  0.00  0.00    -0.005 A 
ATOM     14  C   UNL     1      -5.729   3.736   8.883  0.00  0.00    +0.010 A 
ATOM     15  C   UNL     1      -6.495   3.964  10.007  0.00  0.00    +0.016 A 
ATOM     16  C   UNL     1      -6.370   5.154  10.703  0.00  0.00    +0.018 A 
ATOM     17  C   UNL     1      -5.473   6.120  10.280  0.00  0.00    +0.016 A 
ATOM     18  C   UNL     1      -4.697   5.903   9.161  0.00  0.00    +0.010 A 
ATOM     19 BR   UNL     1      -7.430   5.462  12.239  0.00  0.00    -0.050 Br
ENDBRANCH  12  13
ENDBRANCH   9  11
ENDBRANCH   4   7
BRANCH   1  20
ATOM     20  C   UNL     1      -0.218   1.030   0.108  0.00  0.00    -0.043 C 
BRANCH  20  26
ATOM     21  N   UNL     1      -2.012   1.308  -3.707  0.00  0.00    -0.331 N 
ATOM     22  C   UNL     1      -0.800   2.100  -3.456  0.00  0.00    +0.086 C 
ATOM     23  C   UNL     1      -0.049   1.514  -2.259  0.00  0.00    -0.059 C 
ATOM     24  C   UNL     1      -2.141   0.724  -1.333  0.00  0.00    -0.059 C 
ATOM     25  C   UNL     1      -2.892   1.311  -2.530  0.00  0.00    +0.086 C 
ATOM     26  N   UNL     1      -0.937   1.543  -1.078  0.00  0.00    +0.384 N 
ATOM     27  H   UNL     1      -1.224   2.513  -0.900  0.00  0.00    -0.081 HD
BRANCH  21  33
ATOM     28  C   UNL     1      -2.107   1.648  -6.101  0.00  0.00    +0.141 A 
ATOM     29  C   UNL     1      -2.782   2.108  -7.219  0.00  0.00    +0.047 A 
ATOM     30  C   UNL     1      -4.030   2.689  -7.084  0.00  0.00    +0.004 A 
ATOM     31  C   UNL     1      -4.608   2.812  -5.835  0.00  0.00    +0.002 A 
ATOM     32  C   UNL     1      -3.943   2.350  -4.714  0.00  0.00    +0.027 A 
ATOM     33  C   UNL     1      -2.689   1.772  -4.841  0.00  0.00    +0.072 A 
BRANCH  28  35
ATOM     34  C   UNL     1      -0.346   0.982  -7.554  0.00  0.00    +0.277 C 
ATOM     35  O   UNL     1      -0.881   1.075  -6.232  0.00  0.00    -0.493 OA
ENDBRANCH  28  35
ENDBRANCH  21  33
ENDBRANCH  20  26
ENDBRANCH   1  20
TORSDOF 7
