REMARK  Name = ZINC65394265
REMARK  4 active torsions:
REMARK  status: ('A' for Active; 'I' for Inactive)
REMARK    1  A    between atoms: C_4  and  C_7
REMARK    2  A    between atoms: C_9  and  C_21
REMARK    3  A    between atoms: N_11  and  C_14
REMARK    4  A    between atoms: C_14  and  C_15
REMARK                            x       y       z     vdW  Elec       q    Type
REMARK                         _______ _______ _______ _____ _____    ______ ____
ROOT
ATOM      1  C   UNL     1       3.711  -0.707  -0.038  0.00  0.00    +0.073 C 
ATOM      2  C   UNL     1       4.024  -1.204  -1.462  0.00  0.00    -0.012 C 
ATOM      3  N   UNL     1       4.103  -2.681  -1.361  0.00  0.00    +0.398 N 
ATOM      4  C   UNL     1       4.428  -2.938   0.066  0.00  0.00    +0.007 C 
ATOM      5  N   UNL     1       3.628  -1.925   0.803  0.00  0.00    -0.327 NA
ATOM      6  H   UNL     1       4.012  -1.758   1.721  0.00  0.00    +0.120 HD
ATOM      7  H   UNL     1       3.216  -3.098  -1.601  0.00  0.00    -0.078 HD
ENDROOT
BRANCH   2   8
ATOM      8  C   UNL     1       2.922  -0.803  -2.408  0.00  0.00    -0.040 A 
ATOM      9  C   UNL     1       3.092   0.265  -3.242  0.00  0.00    +0.013 A 
ATOM     10  C   UNL     1       2.038   0.605  -4.110  0.00  0.00    +0.001 A 
ATOM     11  C   UNL     1       2.140   1.689  -4.997  0.00  0.00    +0.010 A 
ATOM     12  C   UNL     1       1.097   1.985  -5.820  0.00  0.00    +0.001 A 
ATOM     13  C   UNL     1      -0.072   1.227  -5.795  0.00  0.00    +0.002 A 
ATOM     14  C   UNL     1      -0.205   0.170  -4.948  0.00  0.00    +0.028 A 
ATOM     15  C   UNL     1       0.850  -0.168  -4.083  0.00  0.00    +0.071 A 
ATOM     16  N   UNL     1       0.748  -1.202  -3.242  0.00  0.00    -0.255 NA
ATOM     17  C   UNL     1       1.730  -1.524  -2.436  0.00  0.00    +0.113 A 
ENDBRANCH   2   8
BRANCH   1  21
ATOM     18  C   UNL     1      -0.017   1.378   0.010  0.00  0.00    +0.000 A 
ATOM     19  C   UNL     1       1.171   2.086   0.002  0.00  0.00    +0.000 A 
ATOM     20  C   UNL     1       2.377   1.411  -0.013  0.00  0.00    +0.005 A 
ATOM     21  C   UNL     1       2.396   0.029  -0.020  0.00  0.00    -0.032 A 
ATOM     22  C   UNL     1       1.208  -0.679  -0.012  0.00  0.00    +0.005 A 
ATOM     23  C   UNL     1       0.002  -0.004   0.002  0.00  0.00    +0.000 A 
ENDBRANCH   1  21
BRANCH   3  24
ATOM     24  C   UNL     1       5.167  -3.199  -2.231  0.00  0.00    +0.003 C 
BRANCH  24  25
ATOM     25  C   UNL     1       5.148  -4.705  -2.207  0.00  0.00    +0.135 A 
ATOM     26  H   UNL     1       5.847  -7.589  -1.262  0.00  0.00    +0.190 HD
ATOM     27  N   UNL     1       4.450  -5.484  -3.032  0.00  0.00    -0.222 NA
ATOM     28  C   UNL     1       4.659  -6.742  -2.738  0.00  0.00    +0.216 A 
ATOM     29  N   UNL     1       5.510  -6.792  -1.699  0.00  0.00    -0.265 N 
ATOM     30  N   UNL     1       5.817  -5.460  -1.375  0.00  0.00    -0.160 NA
ENDBRANCH  24  25
ENDBRANCH   3  24
TORSDOF 4
