REMARK  Name = ZINC24780605
REMARK  13 active torsions:
REMARK  status: ('A' for Active; 'I' for Inactive)
REMARK    1  A    between atoms: C_1  and  C_2
REMARK    2  A    between atoms: C_3  and  C_15
REMARK    3  A    between atoms: C_4  and  C_14
REMARK    4  A    between atoms: N_5  and  C_7
REMARK    5  A    between atoms: C_7  and  C_8
REMARK    6  A    between atoms: C_15  and  N_16
REMARK    7  A    between atoms: C_17  and  C_19
REMARK    8  A    between atoms: C_19  and  N_20
REMARK    9  A    between atoms: N_20  and  C_21
REMARK   10  A    between atoms: N_20  and  C_22
REMARK   11  A    between atoms: C_22  and  C_24
REMARK   12  A    between atoms: C_22  and  C_25
REMARK   13  A    between atoms: C_29  and  N_31
REMARK                            x       y       z     vdW  Elec       q    Type
REMARK                         _______ _______ _______ _____ _____    ______ ____
ROOT
ATOM      1  N   UNL     1      -1.714   8.984  -2.744  0.00  0.00    -0.313 N 
ATOM      2  C   UNL     1      -1.733   7.700  -2.335  0.00  0.00    +0.197 C 
ATOM      3  O   UNL     1      -2.450   6.896  -2.893  0.00  0.00    -0.278 OA
ATOM      4  H   UNL     1      -1.065   9.713  -2.238  0.00  0.00    +0.149 HD
ENDROOT
BRANCH   1   5
ATOM      5  C   UNL     1      -2.559   9.409  -3.863  0.00  0.00    +0.143 C 
BRANCH   5   8
ATOM      6  C   UNL     1      -0.411  10.677  -5.817  0.00  0.00    +0.068 C 
ATOM      7  C   UNL     1      -1.405  11.440  -4.981  0.00  0.00    +0.065 A 
ATOM      8  C   UNL     1      -2.353  10.880  -4.118  0.00  0.00    +0.013 A 
ATOM      9  C   UNL     1      -3.056  11.891  -3.558  0.00  0.00    +0.041 A 
ATOM     10  N   UNL     1      -2.564  13.051  -4.042  0.00  0.00    -0.264 N 
ATOM     11  N   UNL     1      -1.531  12.742  -4.936  0.00  0.00    -0.176 NA
ATOM     12  C   UNL     1      -4.183  11.748  -2.567  0.00  0.00    +0.065 C 
BRANCH  10  13
ATOM     13  C   UNL     1      -3.032  14.396  -3.697  0.00  0.00    +0.178 C 
BRANCH  13  14
ATOM     14  C   UNL     1      -4.130  14.804  -4.645  0.00  0.00    -0.026 A 
ATOM     15  C   UNL     1      -3.821  15.468  -5.817  0.00  0.00    +0.005 A 
ATOM     16  C   UNL     1      -4.827  15.838  -6.689  0.00  0.00    +0.000 A 
ATOM     17  C   UNL     1      -6.145  15.553  -6.383  0.00  0.00    +0.000 A 
ATOM     18  C   UNL     1      -6.455  14.892  -5.209  0.00  0.00    +0.000 A 
ATOM     19  C   UNL     1      -5.448  14.518  -4.340  0.00  0.00    +0.005 A 
ENDBRANCH  13  14
ENDBRANCH  10  13
ENDBRANCH   5   8
ENDBRANCH   1   5
BRANCH   2  20
ATOM     20  C   UNL     1      -0.864   7.263  -1.184  0.00  0.00    +0.019 C 
BRANCH  20  21
ATOM     21  N   UNL     1      -1.065   5.829  -0.936  0.00  0.00    +0.388 N 
ATOM     22  C   UNL     1      -2.431   5.563  -0.463  0.00  0.00    -0.095 C 
ATOM     23  H   UNL     1      -0.928   5.298  -1.889  0.00  0.00    -0.081 HD
BRANCH  21  24
ATOM     24  C   UNL     1      -0.070   5.315   0.014  0.00  0.00    -0.040 C 
ATOM     25  C   UNL     1      -0.384   5.841   1.416  0.00  0.00    -0.008 C 
BRANCH  24  26
ATOM     26  C   UNL     1      -0.114   3.808   0.022  0.00  0.00    -0.059 A 
ATOM     27  C   UNL     1      -0.468   3.121  -1.125  0.00  0.00    +0.002 A 
ATOM     28  C   UNL     1      -0.503   1.740  -1.119  0.00  0.00    +0.002 A 
ATOM     29  C   UNL     1      -0.196   1.045   0.036  0.00  0.00    +0.033 A 
ATOM     30  C   UNL     1       0.157   1.732   1.182  0.00  0.00    +0.126 A 
ATOM     31  C   UNL     1       0.198   3.113   1.175  0.00  0.00    +0.034 A 
BRANCH  30  32
ATOM     32  N   UNL     1       0.491   0.987   2.417  0.00  0.00    +0.056 N 
ATOM     33  O   UNL     1       0.455  -0.230   2.423  0.00  0.00    -0.126 OA
ATOM     34  O   UNL     1       0.803   1.593   3.427  0.00  0.00    -0.126 OA
ENDBRANCH  30  32
ENDBRANCH  24  26
ENDBRANCH  21  24
ENDBRANCH  20  21
ENDBRANCH   2  20
TORSDOF 9
