REMARK  Name = ZINC13038224
REMARK  7 active torsions:
REMARK  status: ('A' for Active; 'I' for Inactive)
REMARK    1  A    between atoms: C_1  and  C_2
REMARK    2  A    between atoms: C_5  and  C_9
REMARK    3  A    between atoms: C_10  and  C_11
REMARK    4  A    between atoms: C_11  and  O_13
REMARK    5  A    between atoms: O_13  and  C_14
REMARK    6  A    between atoms: C_14  and  C_15
REMARK    7  A    between atoms: N_17  and  C_18
REMARK                            x       y       z     vdW  Elec       q    Type
REMARK                         _______ _______ _______ _____ _____    ______ ____
ROOT
ATOM      1  C   UNL     1      -3.508  -6.371  -0.003  0.00  0.00    +0.255 C 
ATOM      2  O   UNL     1      -2.380  -6.816  -0.009  0.00  0.00    -0.272 OA
ATOM      3  N   UNL     1      -4.563  -7.210   0.005  0.00  0.00    -0.282 N 
ATOM      4  H   UNL     1      -5.463  -6.858   0.091  0.00  0.00    +0.155 HD
ENDROOT
BRANCH   3   5
ATOM      5  C   UNL     1      -4.360  -8.592  -0.110  0.00  0.00    +0.050 A 
ATOM      6  C   UNL     1      -3.216  -9.075  -0.729  0.00  0.00    +0.052 A 
ATOM      7  C   UNL     1      -3.018 -10.441  -0.841  0.00  0.00    +0.069 A 
ATOM      8  C   UNL     1      -3.970 -11.328  -0.332  0.00  0.00    +0.068 A 
ATOM      9  C   UNL     1      -5.111 -10.840   0.286  0.00  0.00    +0.045 A 
ATOM     10  C   UNL     1      -5.303  -9.477   0.402  0.00  0.00    +0.041 A 
ATOM     11 BR   UNL     1      -6.856  -8.812   1.252  0.00  0.00    -0.048 Br
ATOM     12  N   UNL     1      -3.500 -12.615  -0.590  0.00  0.00    -0.306 N 
ATOM     13  H   UNL     1      -3.947 -13.442  -0.352  0.00  0.00    +0.170 HD
ATOM     14  C   UNL     1      -2.318 -12.514  -1.228  0.00  0.00    +0.325 A 
ATOM     15  O   UNL     1      -1.639 -13.454  -1.597  0.00  0.00    -0.247 OA
ATOM     16  N   UNL     1      -2.001 -11.217  -1.393  0.00  0.00    -0.306 N 
ATOM     17  H   UNL     1      -1.200 -10.879  -1.824  0.00  0.00    +0.170 HD
ENDBRANCH   3   5
BRANCH   1  18
ATOM     18  C   UNL     1      -3.731  -4.881  -0.005  0.00  0.00    +0.328 C 
BRANCH  18  19
ATOM     19  O   UNL     1      -2.469  -4.211  -0.014  0.00  0.00    -0.452 OA
BRANCH  19  20
ATOM     20  C   UNL     1      -2.492  -2.862  -0.017  0.00  0.00    +0.332 C 
ATOM     21  O   UNL     1      -3.555  -2.272  -0.011  0.00  0.00    -0.246 OA
BRANCH  20  23
ATOM     22  C   UNL     1      -1.261  -0.760  -0.028  0.00  0.00    +0.016 C 
ATOM     23  C   UNL     1      -1.238  -2.110  -0.026  0.00  0.00    +0.092 C 
BRANCH  22  28
ATOM     24  C   UNL     1       3.669   2.197  -0.066  0.00  0.00    +0.044 C 
ATOM     25  C   UNL     1       2.376   1.423  -0.056  0.00  0.00    -0.049 A 
ATOM     26  C   UNL     1       2.403   0.038  -0.053  0.00  0.00    +0.004 A 
ATOM     27  C   UNL     1       1.226  -0.678  -0.044  0.00  0.00    +0.009 A 
ATOM     28  C   UNL     1       0.000  -0.003  -0.037  0.00  0.00    -0.011 A 
ATOM     29  C   UNL     1      -0.019   1.396  -0.040  0.00  0.00    +0.025 A 
ATOM     30  C   UNL     1       1.169   2.099  -0.049  0.00  0.00    +0.019 A 
ATOM     31 BR   UNL     1      -1.668   2.322  -0.040  0.00  0.00    -0.050 Br
ENDBRANCH  22  28
ENDBRANCH  20  23
ENDBRANCH  19  20
ENDBRANCH  18  19
ENDBRANCH   1  18
TORSDOF 6
