REMARK  Name = ZINC23990005
REMARK  14 active torsions:
REMARK  status: ('A' for Active; 'I' for Inactive)
REMARK    1  A    between atoms: C_1  and  C_2
REMARK    2  A    between atoms: C_2  and  O_3
REMARK    3  A    between atoms: O_3  and  C_4
REMARK    4  A    between atoms: C_4  and  C_6
REMARK    5  A    between atoms: C_7  and  C_18
REMARK    6  A    between atoms: C_12  and  C_13
REMARK    7  A    between atoms: C_18  and  N_19
REMARK    8  A    between atoms: N_19  and  C_20
REMARK    9  A    between atoms: N_19  and  C_24
REMARK   10  A    between atoms: C_20  and  C_21
REMARK   11  A    between atoms: C_21  and  O_22
REMARK   12  A    between atoms: O_22  and  C_23
REMARK   13  A    between atoms: C_24  and  C_25
REMARK   14  A    between atoms: C_28  and  C_30
REMARK                            x       y       z     vdW  Elec       q    Type
REMARK                         _______ _______ _______ _____ _____    ______ ____
ROOT
ATOM      1  C   UNL     1      -3.052  -2.664   0.641  0.00  0.00    +0.077 C 
ATOM      2  C   UNL     1      -2.952  -3.760  -0.142  0.00  0.00    +0.008 C 
ATOM      3  N   UNL     1      -3.996  -4.164  -0.924  0.00  0.00    -0.274 N 
ATOM      4  C   UNL     1      -5.172  -3.527  -0.980  0.00  0.00    +0.304 C 
ATOM      5  O   UNL     1      -6.043  -3.963  -1.708  0.00  0.00    -0.252 OA
ATOM      6  N   UNL     1      -5.422  -2.418  -0.256  0.00  0.00    -0.288 N 
ATOM      7  C   UNL     1      -4.362  -1.903   0.626  0.00  0.00    +0.150 C 
ATOM      8  H   UNL     1      -3.878  -4.957  -1.470  0.00  0.00    +0.156 HD
ATOM      9  H   UNL     1      -6.282  -1.972  -0.313  0.00  0.00    +0.151 HD
ENDROOT
BRANCH   7  10
ATOM     10  C   UNL     1      -4.070  -0.484   0.213  0.00  0.00    +0.015 A 
ATOM     11  C   UNL     1      -3.937   0.620   0.989  0.00  0.00    +0.013 A 
ATOM     12  C   UNL     1      -3.665   1.834   0.386  0.00  0.00    +0.008 A 
ATOM     13  C   UNL     1      -3.538   1.884  -0.963  0.00  0.00    +0.045 A 
ATOM     14  S   UNL     1      -3.801   0.179  -1.422  0.00  0.00    -0.099 S 
ENDBRANCH   7  10
BRANCH   1  15
ATOM     15  C   UNL     1      -1.972  -2.245   1.453  0.00  0.00    +0.339 C 
ATOM     16  O   UNL     1      -0.973  -2.934   1.540  0.00  0.00    -0.245 OA
BRANCH  15  17
ATOM     17  O   UNL     1      -2.049  -1.080   2.130  0.00  0.00    -0.462 OA
BRANCH  17  19
ATOM     18  C   UNL     1      -1.192   0.622   3.616  0.00  0.00    +0.048 C 
ATOM     19  C   UNL     1      -0.921  -0.719   2.930  0.00  0.00    +0.229 C 
ENDBRANCH  17  19
ENDBRANCH  15  17
ENDBRANCH   1  15
BRANCH   2  20
ATOM     20  C   UNL     1      -1.669  -4.549  -0.152  0.00  0.00    -0.026 C 
BRANCH  20  21
ATOM     21  N   UNL     1      -1.680  -5.519   0.951  0.00  0.00    +0.391 N 
ATOM     22  H   UNL     1      -1.827  -5.034   1.823  0.00  0.00    -0.081 HD
BRANCH  21  23
ATOM     23  C   UNL     1      -2.765  -6.487   0.740  0.00  0.00    -0.049 C 
BRANCH  23  24
ATOM     24  C   UNL     1      -2.625  -7.116  -0.648  0.00  0.00    +0.141 C 
BRANCH  24  25
ATOM     25  O   UNL     1      -1.469  -7.955  -0.676  0.00  0.00    -0.385 OA
ATOM     26  C   UNL     1      -1.245  -8.594  -1.935  0.00  0.00    +0.193 C 
ENDBRANCH  24  25
ENDBRANCH  23  24
ENDBRANCH  21  23
BRANCH  21  27
ATOM     27  C   UNL     1      -0.394  -6.226   0.995  0.00  0.00    +0.021 C 
BRANCH  27  28
ATOM     28  C   UNL     1      -0.385  -7.181   2.161  0.00  0.00    +0.202 A 
ATOM     29  N   UNL     1      -0.679  -8.450   2.119  0.00  0.00    -0.114 NA
ATOM     30  N   UNL     1      -0.567  -8.958   3.295  0.00  0.00    -0.107 NA
ATOM     31  C   UNL     1      -0.194  -8.021   4.139  0.00  0.00    +0.255 A 
ATOM     32  O   UNL     1      -0.067  -6.878   3.433  0.00  0.00    -0.422 OA
BRANCH  31  33
ATOM     33  C   UNL     1       0.045  -8.188   5.580  0.00  0.00    +0.076 A 
ATOM     34  C   UNL     1      -0.057  -9.328   6.354  0.00  0.00    +0.021 A 
ATOM     35  C   UNL     1       0.221  -9.235   7.698  0.00  0.00    +0.008 A 
ATOM     36  C   UNL     1       0.585  -8.034   8.220  0.00  0.00    +0.046 A 
ATOM     37  S   UNL     1       0.551  -6.971   6.786  0.00  0.00    -0.092 S 
ENDBRANCH  31  33
ENDBRANCH  27  28
ENDBRANCH  21  27
ENDBRANCH  20  21
ENDBRANCH   2  20
TORSDOF 12
