REMARK  Name = ZINC02973893
REMARK  8 active torsions:
REMARK  status: ('A' for Active; 'I' for Inactive)
REMARK    1  A    between atoms: C_6  and  C_7
REMARK    2  A    between atoms: C_7  and  N_8
REMARK    3  A    between atoms: C_9  and  C_11
REMARK    4  A    between atoms: C_11  and  C_12
REMARK    5  A    between atoms: C_12  and  C_13
REMARK    6  A    between atoms: C_13  and  C_14
REMARK    7  A    between atoms: C_14  and  C_15
REMARK    8  A    between atoms: C_15  and  N_16
REMARK                            x       y       z     vdW  Elec       q    Type
REMARK                         _______ _______ _______ _____ _____    ______ ____
ROOT
ATOM      1  C   UNL     1       2.134  -4.502  -0.043  0.00  0.00    +0.022 C 
ENDROOT
BRANCH   1   2
ATOM      2  C   UNL     1       2.393  -2.994  -0.037  0.00  0.00    +0.002 C 
BRANCH   2   3
ATOM      3  C   UNL     1       1.058  -2.248  -0.020  0.00  0.00    +0.009 C 
BRANCH   3   4
ATOM      4  C   UNL     1       1.317  -0.740  -0.015  0.00  0.00    +0.096 C 
BRANCH   4   6
ATOM      5  N   UNL     1      -0.016   1.344   0.009  0.00  0.00    -0.311 N 
ATOM      6  C   UNL     1       0.002  -0.004   0.002  0.00  0.00    +0.213 C 
ATOM      7  O   UNL     1      -1.040  -0.625   0.009  0.00  0.00    -0.276 OA
ATOM      8  H   UNL     1       0.817   1.840   0.004  0.00  0.00    +0.149 HD
BRANCH   5   9
ATOM      9  C   UNL     1      -1.295   2.059   0.019  0.00  0.00    +0.139 C 
BRANCH   9  15
ATOM     10  C   UNL     1      -0.922   4.219   1.227  0.00  0.00    +0.006 A 
ATOM     11  C   UNL     1      -0.683   5.580   1.234  0.00  0.00    +0.020 A 
ATOM     12  C   UNL     1      -0.571   6.269   0.039  0.00  0.00    +0.041 A 
ATOM     13  C   UNL     1      -0.694   5.593  -1.162  0.00  0.00    +0.020 A 
ATOM     14  C   UNL     1      -0.928   4.231  -1.168  0.00  0.00    +0.006 A 
ATOM     15  C   UNL     1      -1.040   3.544   0.026  0.00  0.00    -0.030 A 
ATOM     16 CL   UNL     1      -0.277   7.980   0.047  0.00  0.00    -0.084 Cl
ENDBRANCH   9  15
ENDBRANCH   5   9
ENDBRANCH   4   6
ENDBRANCH   3   4
ENDBRANCH   2   3
ENDBRANCH   1   2
BRANCH   1  17
ATOM     17  C   UNL     1       3.469  -5.249  -0.059  0.00  0.00    +0.127 C 
BRANCH  17  18
ATOM     18  N   UNL     1       3.221  -6.693  -0.065  0.00  0.00    -0.288 N 
ATOM     19  C   UNL     1       3.098  -7.340  -1.244  0.00  0.00    +0.262 A 
ATOM     20  O   UNL     1       3.189  -6.739  -2.297  0.00  0.00    -0.267 OA
ATOM     21  C   UNL     1       2.849  -8.792  -1.222  0.00  0.00    +0.064 A 
ATOM     22  C   UNL     1       2.710  -9.530  -2.395  0.00  0.00    +0.030 A 
ATOM     23  C   UNL     1       2.479 -10.888  -2.320  0.00  0.00    +0.019 A 
ATOM     24  C   UNL     1       2.384 -11.517  -1.087  0.00  0.00    +0.017 A 
ATOM     25  C   UNL     1       2.519 -10.797   0.083  0.00  0.00    +0.027 A 
ATOM     26  C   UNL     1       2.753  -9.431   0.027  0.00  0.00    +0.054 A 
ATOM     27  N   UNL     1       2.895  -8.671   1.179  0.00  0.00    -0.335 N 
ATOM     28  H   UNL     1       2.832  -9.098   2.047  0.00  0.00    +0.168 HD
ATOM     29  C   UNL     1       3.126  -7.349   1.103  0.00  0.00    +0.161 A 
ATOM     30  S   UNL     1       3.300  -6.463   2.557  0.00  0.00    -0.013 S 
ATOM     31 BR   UNL     1       2.289 -11.898  -3.908  0.00  0.00    -0.050 Br
ENDBRANCH  17  18
ENDBRANCH   1  17
TORSDOF 8
