REMARK  Name = ZINC36610367
REMARK  11 active torsions:
REMARK  status: ('A' for Active; 'I' for Inactive)
REMARK    1  A    between atoms: C_1  and  C_2
REMARK    2  A    between atoms: C_2  and  C_3
REMARK    3  A    between atoms: C_3  and  C_4
REMARK    4  A    between atoms: C_4  and  N_5
REMARK    5  A    between atoms: C_6  and  C_8
REMARK    6  A    between atoms: C_8  and  C_10
REMARK    7  A    between atoms: C_8  and  N_16
REMARK    8  A    between atoms: N_16  and  C_17
REMARK    9  A    between atoms: C_23  and  C_25
REMARK   10  A    between atoms: C_29  and  O_32
REMARK   11  A    between atoms: C_30  and  O_31
REMARK                            x       y       z     vdW  Elec       q    Type
REMARK                         _______ _______ _______ _____ _____    ______ ____
ROOT
ATOM      1  N   UNL     1      -5.822  -4.801  -1.594  0.00  0.00    -0.251 N 
ATOM      2  C   UNL     1      -5.038  -5.688  -2.238  0.00  0.00    +0.255 C 
ATOM      3  O   UNL     1      -5.473  -6.787  -2.525  0.00  0.00    -0.269 OA
ENDROOT
BRANCH   1   4
ATOM      4  C   UNL     1      -7.167  -5.099  -1.357  0.00  0.00    +0.038 A 
ATOM      5  C   UNL     1      -8.161  -4.463  -2.090  0.00  0.00    +0.023 A 
ATOM      6  C   UNL     1      -9.489  -4.761  -1.852  0.00  0.00    +0.002 A 
ATOM      7  C   UNL     1      -9.829  -5.690  -0.886  0.00  0.00    +0.000 A 
ATOM      8  C   UNL     1      -8.842  -6.324  -0.155  0.00  0.00    +0.002 A 
ATOM      9  C   UNL     1      -7.512  -6.036  -0.391  0.00  0.00    +0.023 A 
ENDBRANCH   1   4
BRANCH   2  10
ATOM     10  C   UNL     1      -3.653  -5.327  -2.595  0.00  0.00    +0.082 A 
ATOM     11  C   UNL     1      -2.794  -4.796  -1.627  0.00  0.00    +0.017 A 
ATOM     12  C   UNL     1      -1.502  -4.459  -1.964  0.00  0.00    +0.005 A 
ATOM     13  C   UNL     1      -1.045  -4.643  -3.259  0.00  0.00    +0.049 A 
ATOM     14  C   UNL     1      -1.883  -5.168  -4.228  0.00  0.00    +0.159 A 
ATOM     15  C   UNL     1      -3.190  -5.518  -3.902  0.00  0.00    +0.171 A 
BRANCH  15  16
ATOM     16  O   UNL     1      -4.014  -6.038  -4.848  0.00  0.00    -0.503 OA
ATOM     17  H   UNL     1      -4.520  -5.375  -5.336  0.00  0.00    +0.292 HD
ENDBRANCH  15  16
BRANCH  14  18
ATOM     18  O   UNL     1      -1.428  -5.345  -5.497  0.00  0.00    -0.503 OA
ATOM     19  H   UNL     1      -1.029  -6.212  -5.654  0.00  0.00    +0.292 HD
ENDBRANCH  14  18
ENDBRANCH   2  10
BRANCH   1  20
ATOM     20  C   UNL     1      -5.265  -3.523  -1.144  0.00  0.00    +0.197 C 
BRANCH  20  21
ATOM     21  C   UNL     1      -6.002  -2.390  -1.810  0.00  0.00    -0.018 A 
ATOM     22  C   UNL     1      -7.181  -1.918  -1.265  0.00  0.00    +0.006 A 
ATOM     23  C   UNL     1      -7.858  -0.879  -1.877  0.00  0.00    +0.000 A 
ATOM     24  C   UNL     1      -7.355  -0.312  -3.033  0.00  0.00    +0.000 A 
ATOM     25  C   UNL     1      -6.175  -0.784  -3.577  0.00  0.00    +0.000 A 
ATOM     26  C   UNL     1      -5.496  -1.820  -2.964  0.00  0.00    +0.006 A 
ENDBRANCH  20  21
BRANCH  20  28
ATOM     27  N   UNL     1      -4.969  -2.309   0.991  0.00  0.00    -0.313 N 
ATOM     28  C   UNL     1      -5.414  -3.409   0.351  0.00  0.00    +0.238 C 
ATOM     29  O   UNL     1      -5.935  -4.306   0.979  0.00  0.00    -0.273 OA
ATOM     30  H   UNL     1      -4.553  -1.591   0.489  0.00  0.00    +0.149 HD
BRANCH  27  31
ATOM     31  C   UNL     1      -5.115  -2.198   2.445  0.00  0.00    +0.104 C 
BRANCH  31  32
ATOM     32  C   UNL     1      -4.533  -0.864   2.915  0.00  0.00    +0.018 C 
BRANCH  32  34
ATOM     33  C   UNL     1      -4.102   0.586   4.904  0.00  0.00    +0.004 C 
ATOM     34  C   UNL     1      -4.684  -0.748   4.433  0.00  0.00    -0.002 C 
ENDBRANCH  32  34
ENDBRANCH  31  32
ENDBRANCH  27  31
ENDBRANCH  20  28
ENDBRANCH   1  20
TORSDOF 10
