REMARK  Name = ZINC06441969
REMARK  7 active torsions:
REMARK  status: ('A' for Active; 'I' for Inactive)
REMARK    1  A    between atoms: C_1  and  C_2
REMARK    2  A    between atoms: C_7  and  C_15
REMARK    3  A    between atoms: C_13  and  C_14
REMARK    4  A    between atoms: C_15  and  C_17
REMARK    5  A    between atoms: C_15  and  N_72
REMARK    6  A    between atoms: N_21  and  C_22
REMARK    7  A    between atoms: N_30  and  C_33
REMARK                            x       y       z     vdW  Elec       q    Type
REMARK                         _______ _______ _______ _____ _____    ______ ____
ROOT
ATOM      1  C   UNL     1      -0.800   1.987  -1.118  0.00  0.00    +0.039 C 
ENDROOT
BRANCH   1   8
ATOM      2  C   UNL     1      -0.438   9.925  -1.814  0.00  0.00    +0.044 C 
ATOM      3  C   UNL     1      -0.425   8.421  -1.902  0.00  0.00    -0.046 A 
ATOM      4  C   UNL     1       0.005   7.804  -3.069  0.00  0.00    +0.004 A 
ATOM      5  C   UNL     1       0.025   6.442  -3.169  0.00  0.00    +0.010 A 
ATOM      6  C   UNL     1      -0.393   5.661  -2.086  0.00  0.00    -0.001 A 
ATOM      7  C   UNL     1      -0.378   4.199  -2.157  0.00  0.00    +0.017 A 
ATOM      8  C   UNL     1      -0.798   3.494  -1.077  0.00  0.00    +0.011 A 
ATOM      9  C   UNL     1      -1.227   4.166   0.088  0.00  0.00    +0.251 A 
ATOM     10  O   UNL     1      -1.596   3.513   1.048  0.00  0.00    -0.268 OA
ATOM     11  N   UNL     1      -1.239   5.508   0.164  0.00  0.00    -0.322 N 
ATOM     12  H   UNL     1      -1.540   5.938   0.980  0.00  0.00    +0.169 HD
ATOM     13  C   UNL     1      -0.830   6.282  -0.901  0.00  0.00    +0.052 A 
ATOM     14  C   UNL     1      -0.842   7.671  -0.823  0.00  0.00    -0.024 A 
ATOM     15  C   UNL     1      -1.307   8.354   0.438  0.00  0.00    +0.046 C 
ENDBRANCH   1   8
BRANCH   1  21
ATOM     16  C   UNL     1       1.348   2.008   0.000  0.00  0.00    -0.058 C 
ATOM     17  C   UNL     1       2.103   1.504   1.232  0.00  0.00    +0.086 C 
ATOM     18  N   UNL     1       2.123   0.034   1.224  0.00  0.00    -0.333 N 
ATOM     19  C   UNL     1       0.757  -0.508   1.234  0.00  0.00    +0.086 C 
ATOM     20  C   UNL     1       0.002  -0.004   0.002  0.00  0.00    -0.058 C 
ATOM     21  N   UNL     1      -0.030   1.473   0.034  0.00  0.00    +0.391 N 
ATOM     22  H   UNL     1      -0.485   1.779   0.902  0.00  0.00    -0.080 HD
BRANCH  18  23
ATOM     23  C   UNL     1       2.867  -0.462   2.297  0.00  0.00    +0.030 A 
ATOM     24  C   UNL     1       2.285  -1.344   3.198  0.00  0.00    +0.023 A 
ATOM     25  C   UNL     1       3.025  -1.837   4.255  0.00  0.00    +0.002 A 
ATOM     26  C   UNL     1       4.340  -1.445   4.423  0.00  0.00    +0.000 A 
ATOM     27  C   UNL     1       4.921  -0.563   3.531  0.00  0.00    +0.002 A 
ATOM     28  C   UNL     1       4.189  -0.070   2.468  0.00  0.00    +0.023 A 
ENDBRANCH  18  23
ENDBRANCH   1  21
BRANCH   1  29
ATOM     29  C   UNL     1      -2.217   1.484  -1.023  0.00  0.00    +0.143 A 
ATOM     30  N   UNL     1      -2.963   1.446   0.054  0.00  0.00    -0.115 NA
ATOM     31  N   UNL     1      -4.108   0.954  -0.271  0.00  0.00    -0.023 NA
ATOM     32  N   UNL     1      -4.109   0.669  -1.527  0.00  0.00    -0.044 NA
ATOM     33  N   UNL     1      -2.961   0.982  -2.026  0.00  0.00    -0.227 N 
BRANCH  33  34
ATOM     34  C   UNL     1      -2.545   0.820  -3.421  0.00  0.00    +0.111 C 
ATOM     35  C   UNL     1      -3.472   1.634  -4.327  0.00  0.00    +0.027 C 
ATOM     36  C   UNL     1      -3.038   1.465  -5.784  0.00  0.00    +0.002 C 
ATOM     37  C   UNL     1      -3.115  -0.013  -6.171  0.00  0.00    +0.000 C 
ATOM     38  C   UNL     1      -2.188  -0.826  -5.266  0.00  0.00    +0.002 C 
ATOM     39  C   UNL     1      -2.622  -0.658  -3.808  0.00  0.00    +0.027 C 
ENDBRANCH  33  34
ENDBRANCH   1  29
TORSDOF 5
