REMARK  Name = ZINC04277336
REMARK  1 active torsions:
REMARK  status: ('A' for Active; 'I' for Inactive)
REMARK    1  A    between atoms: C_9  and  C_11
REMARK                            x       y       z     vdW  Elec       q    Type
REMARK                         _______ _______ _______ _____ _____    ______ ____
ROOT
ATOM      1  C   UNL     1       1.169   2.088   0.002  0.00  0.00    +0.019 A 
ATOM      2  C   UNL     1      -0.017   1.385   0.010  0.00  0.00    +0.048 A 
ATOM      3  C   UNL     1       0.002  -0.004   0.002  0.00  0.00    +0.136 A 
ATOM      4  C   UNL     1       1.239  -0.677  -0.013  0.00  0.00    +0.022 A 
ATOM      5  C   UNL     1       2.431   0.056  -0.021  0.00  0.00    +0.027 A 
ATOM      6  C   UNL     1       2.388   1.421  -0.013  0.00  0.00    +0.019 A 
ATOM      7 BR   UNL     1       3.999   2.412  -0.022  0.00  0.00    -0.050 Br
ATOM      8  C   UNL     1       0.939  -2.062  -0.018  0.00  0.00    +0.061 A 
ATOM      9  C   UNL     1      -0.418  -2.173  -0.006  0.00  0.00    +0.168 A 
ATOM     10  O   UNL     1      -0.969  -0.939   0.006  0.00  0.00    -0.452 OA
ENDROOT
BRANCH   9  11
ATOM     11  C   UNL     1      -1.140  -3.393  -0.006  0.00  0.00    +0.297 C 
ATOM     12  O   UNL     1      -2.354  -3.380   0.005  0.00  0.00    -0.292 OA
ENDBRANCH   9  11
TORSDOF 1
