REMARK  Name = ZINC45513821
REMARK  7 active torsions:
REMARK  status: ('A' for Active; 'I' for Inactive)
REMARK    1  A    between atoms: C_1  and  C_2
REMARK    2  A    between atoms: C_2  and  C_3
REMARK    3  A    between atoms: C_2  and  C_4
REMARK    4  A    between atoms: C_7  and  N_10
REMARK    5  A    between atoms: C_20  and  C_22
REMARK    6  A    between atoms: C_22  and  C_23
REMARK    7  A    between atoms: C_23  and  N_24
REMARK                            x       y       z     vdW  Elec       q    Type
REMARK                         _______ _______ _______ _____ _____    ______ ____
ROOT
ATOM      1  N   UNL     1      -5.321  -1.969   0.043  0.00  0.00    -0.219 N 
ATOM      2  C   UNL     1      -6.128  -1.718   1.143  0.00  0.00    +0.173 A 
ATOM      3  N   UNL     1      -5.871  -0.986   2.202  0.00  0.00    -0.224 NA
ATOM      4  C   UNL     1      -6.759  -0.827   3.207  0.00  0.00    +0.080 A 
ATOM      5  C   UNL     1      -6.608  -0.072   4.394  0.00  0.00    +0.029 A 
ATOM      6  C   UNL     1      -7.616  -0.016   5.320  0.00  0.00    +0.002 A 
ATOM      7  C   UNL     1      -8.813  -0.692   5.131  0.00  0.00    +0.001 A 
ATOM      8  C   UNL     1      -8.995  -1.439   3.982  0.00  0.00    +0.017 A 
ATOM      9  C   UNL     1      -7.991  -1.501   3.048  0.00  0.00    +0.041 A 
ATOM     10  S   UNL     1      -7.785  -2.300   1.475  0.00  0.00    -0.052 S 
ATOM     11  C   UNL     1      -5.807  -2.666  -1.004  0.00  0.00    +0.227 C 
ATOM     12  O   UNL     1      -5.079  -2.958  -1.928  0.00  0.00    -0.275 OA
ENDROOT
BRANCH   1  16
ATOM     13  C   UNL     1      -1.395  -0.572  -0.027  0.00  0.00    -0.045 A 
ATOM     14  C   UNL     1      -1.643  -1.932  -0.006  0.00  0.00    +0.006 A 
ATOM     15  C   UNL     1      -2.943  -2.398   0.017  0.00  0.00    +0.024 A 
ATOM     16  C   UNL     1      -4.002  -1.500   0.020  0.00  0.00    +0.043 A 
ATOM     17  C   UNL     1      -3.750  -0.134  -0.001  0.00  0.00    +0.024 A 
ATOM     18  C   UNL     1      -2.447   0.326  -0.019  0.00  0.00    +0.006 A 
BRANCH  13  20
ATOM     19  C   UNL     1       0.765  -0.564   1.190  0.00  0.00    +0.012 C 
ATOM     20  C   UNL     1       0.024  -0.066  -0.053  0.00  0.00    +0.013 C 
ATOM     21  C   UNL     1       0.727  -0.585  -1.308  0.00  0.00    +0.012 C 
ENDBRANCH  13  20
ENDBRANCH   1  16
BRANCH  11  22
ATOM     22  C   UNL     1      -7.255  -3.083  -1.024  0.00  0.00    +0.116 C 
BRANCH  22  23
ATOM     23  C   UNL     1      -7.545  -3.855  -2.313  0.00  0.00    +0.127 C 
BRANCH  23  24
ATOM     24  N   UNL     1      -8.953  -4.260  -2.334  0.00  0.00    -0.224 N 
ATOM     25  C   UNL     1      -9.415  -5.422  -1.828  0.00  0.00    +0.247 C 
ATOM     26  O   UNL     1      -8.770  -6.297  -1.291  0.00  0.00    -0.273 OA
ATOM     27  C   UNL     1     -10.906  -5.404  -2.072  0.00  0.00    +0.113 C 
ATOM     28  C   UNL     1     -11.662  -5.458  -0.749  0.00  0.00    +0.035 C 
ATOM     29  C   UNL     1     -13.168  -5.408  -1.016  0.00  0.00    +0.003 C 
ATOM     30  C   UNL     1     -13.568  -6.591  -1.900  0.00  0.00    +0.000 C 
ATOM     31  C   UNL     1     -12.820  -6.510  -3.232  0.00  0.00    +0.003 C 
ATOM     32  C   UNL     1     -11.312  -6.565  -2.973  0.00  0.00    +0.035 C 
ATOM     33  N   UNL     1     -11.142  -4.121  -2.747  0.00  0.00    -0.285 N 
ATOM     34  C   UNL     1      -9.941  -3.520  -2.852  0.00  0.00    +0.309 C 
ATOM     35  O   UNL     1      -9.773  -2.430  -3.362  0.00  0.00    -0.252 OA
ATOM     36  H   UNL     1     -11.994  -3.774  -3.054  0.00  0.00    +0.151 HD
ENDBRANCH  23  24
ENDBRANCH  22  23
ENDBRANCH  11  22
TORSDOF 5
