REMARK  Name = ZINC08723905
REMARK  6 active torsions:
REMARK  status: ('A' for Active; 'I' for Inactive)
REMARK    1  A    between atoms: C_4  and  N_7
REMARK    2  A    between atoms: C_8  and  C_26
REMARK    3  A    between atoms: C_11  and  S_12
REMARK    4  A    between atoms: S_12  and  C_13
REMARK    5  A    between atoms: C_13  and  C_14
REMARK    6  A    between atoms: C_26  and  N_58
REMARK                            x       y       z     vdW  Elec       q    Type
REMARK                         _______ _______ _______ _____ _____    ______ ____
ROOT
ATOM      1  N   UNL     1       5.543   7.006  -1.967  0.00  0.00    -0.276 N 
ATOM      2  C   UNL     1       4.785   8.129  -2.163  0.00  0.00    +0.122 A 
ATOM      3  N   UNL     1       3.553   7.821  -1.873  0.00  0.00    -0.135 NA
ATOM      4  N   UNL     1       3.477   6.589  -1.516  0.00  0.00    -0.122 NA
ATOM      5  C   UNL     1       4.670   6.040  -1.548  0.00  0.00    +0.197 A 
ENDROOT
BRANCH   1   9
ATOM      6  C   UNL     1       9.655   6.611  -2.531  0.00  0.00    +0.000 A 
ATOM      7  C   UNL     1       8.778   5.897  -3.326  0.00  0.00    +0.002 A 
ATOM      8  C   UNL     1       7.415   6.025  -3.142  0.00  0.00    +0.026 A 
ATOM      9  C   UNL     1       6.926   6.873  -2.157  0.00  0.00    +0.050 A 
ATOM     10  C   UNL     1       7.809   7.593  -1.363  0.00  0.00    +0.026 A 
ATOM     11  C   UNL     1       9.171   7.456  -1.549  0.00  0.00    +0.002 A 
ENDBRANCH   1   9
BRANCH   5  12
ATOM     12  S   UNL     1       5.068   4.373  -1.138  0.00  0.00    -0.076 S 
BRANCH  12  13
ATOM     13  C   UNL     1       3.425   3.758  -0.693  0.00  0.00    +0.173 C 
BRANCH  13  14
ATOM     14  C   UNL     1       3.522   2.308  -0.296  0.00  0.00    +0.230 C 
ATOM     15  O   UNL     1       4.607   1.773  -0.214  0.00  0.00    -0.274 OA
ATOM     16  N   UNL     1       2.403   1.605  -0.030  0.00  0.00    -0.270 N 
ATOM     17  C   UNL     1       1.093   2.271   0.005  0.00  0.00    +0.114 C 
ATOM     18  C   UNL     1       0.342   1.760   1.241  0.00  0.00    +0.024 C 
ATOM     19  C   UNL     1       0.100   0.259   1.087  0.00  0.00    +0.038 C 
ATOM     20  C   UNL     1       1.385  -0.451   0.754  0.00  0.00    -0.026 A 
ATOM     21  C   UNL     1       2.468   0.226   0.215  0.00  0.00    +0.039 A 
ATOM     22  C   UNL     1       3.639  -0.460  -0.086  0.00  0.00    +0.024 A 
ATOM     23  C   UNL     1       3.725  -1.817   0.154  0.00  0.00    +0.002 A 
ATOM     24  C   UNL     1       2.646  -2.492   0.694  0.00  0.00    +0.000 A 
ATOM     25  C   UNL     1       1.479  -1.813   0.988  0.00  0.00    +0.005 A 
ENDBRANCH  13  14
ENDBRANCH  12  13
ENDBRANCH   5  12
BRANCH   2  26
ATOM     26  C   UNL     1       5.283   9.473  -2.629  0.00  0.00    -0.001 C 
BRANCH  26  31
ATOM     27  C   UNL     1       3.878   9.171  -4.594  0.00  0.00    -0.078 C 
ATOM     28  C   UNL     1       3.849   9.782  -6.018  0.00  0.00    -0.020 C 
ATOM     29  C   UNL     1       4.620  11.110  -5.840  0.00  0.00    -0.020 C 
ATOM     30  C   UNL     1       5.481  10.909  -4.579  0.00  0.00    -0.078 C 
ATOM     31  N   UNL     1       5.220   9.544  -4.120  0.00  0.00    +0.384 N 
ATOM     32  H   UNL     1       5.918   8.905  -4.518  0.00  0.00    -0.081 HD
ENDBRANCH  26  31
ENDBRANCH   2  26
TORSDOF 6
