REMARK  Name = ZINC10471875
REMARK  10 active torsions:
REMARK  status: ('A' for Active; 'I' for Inactive)
REMARK    1  A    between atoms: C_1  and  C_2
REMARK    2  A    between atoms: C_5  and  C_9
REMARK    3  A    between atoms: N_11  and  N_12
REMARK    4  A    between atoms: N_12  and  C_13
REMARK    5  A    between atoms: C_13  and  N_15
REMARK    6  A    between atoms: C_16  and  C_18
REMARK    7  A    between atoms: C_22  and  O_24
REMARK    8  A    between atoms: O_24  and  C_25
REMARK    9  A    between atoms: C_25  and  C_26
REMARK   10  A    between atoms: C_25  and  C_27
REMARK                            x       y       z     vdW  Elec       q    Type
REMARK                         _______ _______ _______ _____ _____    ______ ____
ROOT
ATOM      1  C   UNL     1       1.116   7.304   0.699  0.00  0.00    +0.153 C 
ATOM      2  S   UNL     1      -0.342   8.168   0.456  0.00  0.00    -0.017 S 
ENDROOT
BRANCH   1   3
ATOM      3  N   UNL     1       1.111   5.956   0.685  0.00  0.00    -0.263 N 
ATOM      4  C   UNL     1      -0.041   5.289   0.480  0.00  0.00    +0.250 C 
ATOM      5  O   UNL     1      -1.076   5.902   0.307  0.00  0.00    -0.270 OA
ATOM      6  H   UNL     1       1.937   5.467   0.823  0.00  0.00    +0.157 HD
BRANCH   4   7
ATOM      7  C   UNL     1      -0.046   3.811   0.465  0.00  0.00    +0.041 A 
ATOM      8  C   UNL     1       1.141   3.104   0.663  0.00  0.00    +0.013 A 
ATOM      9  C   UNL     1       1.133   1.724   0.647  0.00  0.00    +0.004 A 
ATOM     10  C   UNL     1      -0.049   1.038   0.436  0.00  0.00    +0.046 A 
ATOM     11  C   UNL     1      -1.234   1.732   0.232  0.00  0.00    +0.122 A 
ATOM     12  C   UNL     1      -1.238   3.117   0.252  0.00  0.00    +0.058 A 
BRANCH  11  13
ATOM     13  O   UNL     1      -2.392   1.053   0.019  0.00  0.00    -0.489 OA
BRANCH  13  14
ATOM     14  C   UNL     1      -2.297  -0.368  -0.100  0.00  0.00    +0.167 C 
ATOM     15  C   UNL     1      -2.317  -0.999   1.294  0.00  0.00    +0.051 C 
ATOM     16  C   UNL     1      -3.482  -0.892  -0.914  0.00  0.00    +0.051 C 
ENDBRANCH  13  14
ENDBRANCH  11  13
ENDBRANCH   4   7
ENDBRANCH   1   3
BRANCH   1  17
ATOM     17  N   UNL     1       2.268   7.972   0.905  0.00  0.00    -0.245 N 
ATOM     18  H   UNL     1       2.272   8.942   0.915  0.00  0.00    +0.172 HD
BRANCH  17  21
ATOM     19  C   UNL     1       4.614   7.933   1.309  0.00  0.00    +0.260 C 
ATOM     20  O   UNL     1       4.619   9.148   1.322  0.00  0.00    -0.269 OA
ATOM     21  N   UNL     1       3.462   7.265   1.104  0.00  0.00    -0.231 N 
ATOM     22  H   UNL     1       3.458   6.295   1.094  0.00  0.00    +0.173 HD
BRANCH  19  27
ATOM     23  C   UNL     1       9.515   5.027   2.127  0.00  0.00    +0.045 C 
ATOM     24  C   UNL     1       8.232   5.788   1.913  0.00  0.00    -0.036 A 
ATOM     25  C   UNL     1       7.050   5.101   1.702  0.00  0.00    +0.005 A 
ATOM     26  C   UNL     1       5.871   5.791   1.511  0.00  0.00    +0.013 A 
ATOM     27  C   UNL     1       5.873   7.187   1.519  0.00  0.00    +0.039 A 
ATOM     28  C   UNL     1       7.068   7.875   1.732  0.00  0.00    +0.028 A 
ATOM     29  C   UNL     1       8.241   7.172   1.928  0.00  0.00    +0.021 A 
ATOM     30 BR   UNL     1       9.862   8.102   2.216  0.00  0.00    -0.050 Br
ENDBRANCH  19  27
ENDBRANCH  17  21
ENDBRANCH   1  17
TORSDOF 7
