REMARK  Name = ZINC36637480
REMARK  12 active torsions:
REMARK  status: ('A' for Active; 'I' for Inactive)
REMARK    1  A    between atoms: C_1  and  N_2
REMARK    2  A    between atoms: N_2  and  C_3
REMARK    3  A    between atoms: N_2  and  C_4
REMARK    4  A    between atoms: C_4  and  C_5
REMARK    5  A    between atoms: C_5  and  N_6
REMARK    6  A    between atoms: C_17  and  C_19
REMARK    7  A    between atoms: C_22  and  S_25
REMARK    8  A    between atoms: S_25  and  N_28
REMARK    9  A    between atoms: N_28  and  C_29
REMARK   10  A    between atoms: N_28  and  C_32
REMARK   11  A    between atoms: C_29  and  C_30
REMARK   12  A    between atoms: C_32  and  C_33
REMARK                            x       y       z     vdW  Elec       q    Type
REMARK                         _______ _______ _______ _____ _____    ______ ____
ROOT
ATOM      1  N   UNL     1      -2.660  -2.904   0.020  0.00  0.00    -0.248 N 
ATOM      2  C   UNL     1      -3.262  -3.046  -1.218  0.00  0.00    +0.168 A 
ATOM      3  N   UNL     1      -2.702  -3.100  -2.404  0.00  0.00    -0.223 NA
ATOM      4  C   UNL     1      -3.419  -3.242  -3.540  0.00  0.00    +0.099 A 
ATOM      5  C   UNL     1      -4.820  -3.329  -3.372  0.00  0.00    +0.042 A 
ATOM      6  S   UNL     1      -4.998  -3.209  -1.609  0.00  0.00    -0.052 S 
ATOM      7  C   UNL     1      -5.685  -3.475  -4.428  0.00  0.00    +0.017 A 
ATOM      8  C   UNL     1      -5.186  -3.542  -5.716  0.00  0.00    +0.003 A 
ATOM      9  C   UNL     1      -3.816  -3.461  -5.919  0.00  0.00    +0.022 A 
ATOM     10  C   UNL     1      -2.944  -3.315  -4.870  0.00  0.00    +0.067 A 
ATOM     11 CL   UNL     1      -1.238  -3.218  -5.179  0.00  0.00    -0.081 Cl
ATOM     12  C   UNL     1      -3.414  -2.875   1.137  0.00  0.00    +0.252 C 
ATOM     13  O   UNL     1      -4.617  -3.036   1.062  0.00  0.00    -0.270 OA
ENDROOT
BRANCH  12  14
ATOM     14  C   UNL     1      -2.779  -2.648   2.452  0.00  0.00    +0.037 A 
ATOM     15  C   UNL     1      -1.553  -1.985   2.534  0.00  0.00    +0.015 A 
ATOM     16  C   UNL     1      -0.966  -1.776   3.764  0.00  0.00    +0.029 A 
ATOM     17  C   UNL     1      -1.590  -2.223   4.916  0.00  0.00    +0.106 A 
ATOM     18  C   UNL     1      -2.804  -2.881   4.842  0.00  0.00    +0.029 A 
ATOM     19  C   UNL     1      -3.405  -3.091   3.618  0.00  0.00    +0.015 A 
BRANCH  17  20
ATOM     20  S   UNL     1      -0.833  -1.952   6.484  0.00  0.00    +0.061 S 
ATOM     21  O   UNL     1      -1.349  -2.944   7.361  0.00  0.00    -0.153 OA
ATOM     22  O   UNL     1       0.559  -1.798   6.242  0.00  0.00    -0.153 OA
BRANCH  20  23
ATOM     23  N   UNL     1      -1.380  -0.493   7.047  0.00  0.00    -0.169 NA
BRANCH  23  24
ATOM     24  C   UNL     1      -2.593  -0.432   7.865  0.00  0.00    +0.136 C 
BRANCH  24  25
ATOM     25  C   UNL     1      -2.216  -0.446   9.324  0.00  0.00    -0.018 C 
ATOM     26  C   UNL     1      -2.637   0.507  10.118  0.00  0.00    +0.005 C 
ENDBRANCH  24  25
ENDBRANCH  23  24
BRANCH  23  27
ATOM     27  C   UNL     1      -0.650   0.736   6.726  0.00  0.00    +0.136 C 
BRANCH  27  28
ATOM     28  C   UNL     1      -1.263   1.381   5.510  0.00  0.00    -0.018 C 
ATOM     29  C   UNL     1      -1.667   2.626   5.563  0.00  0.00    +0.005 C 
ENDBRANCH  27  28
ENDBRANCH  23  27
ENDBRANCH  20  23
ENDBRANCH  17  20
ENDBRANCH  12  14
BRANCH   1  30
ATOM     30  C   UNL     1      -1.203  -2.784   0.117  0.00  0.00    +0.097 C 
BRANCH  30  31
ATOM     31  C   UNL     1      -0.770  -1.401  -0.372  0.00  0.00    -0.060 C 
BRANCH  31  33
ATOM     32  C   UNL     1       1.111  -0.050  -0.998  0.00  0.00    -0.097 C 
ATOM     33  N   UNL     1       0.696  -1.330  -0.409  0.00  0.00    +0.377 N 
ATOM     34  C   UNL     1       1.226  -1.435   0.958  0.00  0.00    -0.097 C 
ATOM     35  H   UNL     1       1.056  -2.090  -0.967  0.00  0.00    -0.083 HD
ENDBRANCH  31  33
ENDBRANCH  30  31
ENDBRANCH   1  30
TORSDOF 10
