REMARK  Name = ZINC48770046
REMARK  3 active torsions:
REMARK  status: ('A' for Active; 'I' for Inactive)
REMARK    1  A    between atoms: C_1  and  C_2
REMARK    2  A    between atoms: C_2  and  C_3
REMARK    3  A    between atoms: C_15  and  C_17
REMARK                            x       y       z     vdW  Elec       q    Type
REMARK                         _______ _______ _______ _____ _____    ______ ____
ROOT
ATOM      1  C   UNL     1       0.521  -0.618   1.291  0.00  0.00    +0.103 A 
ATOM      2  N   UNL     1       0.097  -0.916   2.503  0.00  0.00    -0.145 NA
ATOM      3  N   UNL     1       0.932  -1.300   3.370  0.00  0.00    -0.126 NA
ATOM      4  C   UNL     1       2.217  -1.413   3.098  0.00  0.00    +0.189 A 
ATOM      5  S   UNL     1       2.269  -0.945   1.479  0.00  0.00    -0.035 S 
ATOM      6  N   UNL     1       3.257  -1.818   3.928  0.00  0.00    -0.247 N 
ATOM      7  C   UNL     1       3.004  -2.161   5.206  0.00  0.00    +0.308 C 
ATOM      8  O   UNL     1       1.867  -2.117   5.634  0.00  0.00    -0.252 OA
ATOM      9  N   UNL     1       4.012  -2.553   6.010  0.00  0.00    -0.282 N 
ATOM     10  C   UNL     1       5.414  -2.747   5.598  0.00  0.00    +0.110 C 
ATOM     11  C   UNL     1       5.997  -3.743   6.631  0.00  0.00    +0.021 C 
ATOM     12  C   UNL     1       5.294  -3.285   7.937  0.00  0.00    +0.024 C 
ATOM     13  C   UNL     1       3.897  -2.852   7.445  0.00  0.00    +0.081 C 
ATOM     14  H   UNL     1       4.164  -1.853   3.586  0.00  0.00    +0.158 HD
ENDROOT
BRANCH  13  15
ATOM     15  C   UNL     1       3.441  -1.602   8.202  0.00  0.00    +0.010 C 
ATOM     16  C   UNL     1       4.460  -0.462   8.002  0.00  0.00    +0.005 C 
ATOM     17  C   UNL     1       4.497   0.259   9.373  0.00  0.00    +0.000 C 
ATOM     18  C   UNL     1       4.384  -0.914  10.379  0.00  0.00    +0.000 C 
ATOM     19  C   UNL     1       3.392  -1.890   9.713  0.00  0.00    +0.005 C 
ENDBRANCH  13  15
BRANCH   1  21
ATOM     20  C   UNL     1      -0.297   1.386   0.082  0.00  0.00    +0.011 C 
ATOM     21  C   UNL     1      -0.249  -0.143   0.086  0.00  0.00    +0.061 C 
ENDBRANCH   1  21
TORSDOF 2
