REMARK  Name = ZINC06445927
REMARK  10 active torsions:
REMARK  status: ('A' for Active; 'I' for Inactive)
REMARK    1  A    between atoms: C_3  and  C_6
REMARK    2  A    between atoms: C_6  and  N_7
REMARK    3  A    between atoms: N_7  and  C_8
REMARK    4  A    between atoms: N_7  and  C_25
REMARK    5  A    between atoms: C_8  and  C_9
REMARK    6  A    between atoms: C_25  and  N_27
REMARK    7  A    between atoms: N_27  and  C_28
REMARK    8  A    between atoms: C_28  and  C_29
REMARK    9  A    between atoms: C_29  and  C_30
REMARK   10  A    between atoms: C_30  and  N_65
REMARK                            x       y       z     vdW  Elec       q    Type
REMARK                         _______ _______ _______ _____ _____    ______ ____
ROOT
ATOM      1  N   UNL     1       1.356   2.010  -0.000  0.00  0.00    -0.303 N 
ENDROOT
BRANCH   1   2
ATOM      2  C   UNL     1       1.999   2.237   1.162  0.00  0.00    +0.133 C 
ATOM      3  S   UNL     1       3.606   2.829   1.150  0.00  0.00    -0.019 S 
BRANCH   2   4
ATOM      4  N   UNL     1       1.378   1.997   2.334  0.00  0.00    -0.326 N 
ATOM      5  H   UNL     1       0.468   1.662   2.341  0.00  0.00    +0.148 HD
BRANCH   4   6
ATOM      6  C   UNL     1       2.078   2.244   3.598  0.00  0.00    +0.101 C 
BRANCH   6   7
ATOM      7  C   UNL     1       1.156   1.894   4.768  0.00  0.00    +0.000 C 
BRANCH   7   8
ATOM      8  C   UNL     1       1.886   2.151   6.087  0.00  0.00    -0.077 C 
BRANCH   8  14
ATOM      9  C   UNL     1      -0.147   2.731   7.269  0.00  0.00    -0.050 C 
ATOM     10  C   UNL     1      -1.071   2.309   8.414  0.00  0.00    +0.141 C 
ATOM     11  O   UNL     1      -0.330   2.291   9.637  0.00  0.00    -0.383 OA
ATOM     12  C   UNL     1       0.795   1.409   9.615  0.00  0.00    +0.141 C 
ATOM     13  C   UNL     1       1.739   1.822   8.482  0.00  0.00    -0.050 C 
ATOM     14  N   UNL     1       0.991   1.790   7.207  0.00  0.00    +0.383 N 
ATOM     15  H   UNL     1       0.631   0.841   7.054  0.00  0.00    -0.082 HD
ENDBRANCH   8  14
ENDBRANCH   7   8
ENDBRANCH   6   7
ENDBRANCH   4   6
ENDBRANCH   2   4
ENDBRANCH   1   2
BRANCH   1  16
ATOM     16  C   UNL     1      -0.018   1.503   0.010  0.00  0.00    +0.149 C 
BRANCH  16  19
ATOM     17  C   UNL     1       0.040  -2.223   0.802  0.00  0.00    +0.008 A 
ATOM     18  C   UNL     1       0.029  -0.863   1.050  0.00  0.00    +0.013 A 
ATOM     19  C   UNL     1       0.002  -0.004   0.002  0.00  0.00    +0.007 A 
ATOM     20  S   UNL     1       0.005  -1.121  -1.391  0.00  0.00    -0.100 S 
ATOM     21  C   UNL     1       0.035  -2.657  -0.482  0.00  0.00    +0.045 A 
ENDBRANCH  16  19
ENDBRANCH   1  16
BRANCH   1  22
ATOM     22  C   UNL     1       2.031   2.270  -1.274  0.00  0.00    +0.147 C 
BRANCH  22  23
ATOM     23  C   UNL     1       1.771   3.692  -1.699  0.00  0.00    +0.035 A 
ATOM     24  C   UNL     1       2.669   4.664  -1.395  0.00  0.00    +0.020 A 
ATOM     25  C   UNL     1       2.388   6.034  -1.821  0.00  0.00    +0.003 A 
ATOM     26  C   UNL     1       3.277   7.077  -1.535  0.00  0.00    +0.059 A 
ATOM     27  C   UNL     1       2.984   8.360  -1.947  0.00  0.00    +0.163 A 
ATOM     28  C   UNL     1       1.804   8.621  -2.651  0.00  0.00    +0.164 A 
ATOM     29  C   UNL     1       0.920   7.596  -2.939  0.00  0.00    +0.075 A 
ATOM     30  C   UNL     1       1.200   6.299  -2.530  0.00  0.00    +0.053 A 
ATOM     31  N   UNL     1       0.328   5.265  -2.808  0.00  0.00    -0.322 N 
ATOM     32  H   UNL     1      -0.489   5.447  -3.297  0.00  0.00    +0.169 HD
ATOM     33  C   UNL     1       0.599   4.008  -2.416  0.00  0.00    +0.254 A 
ATOM     34  O   UNL     1      -0.192   3.119  -2.683  0.00  0.00    -0.268 OA
ATOM     35  O   UNL     1       1.509   9.883  -3.064  0.00  0.00    -0.485 OA
ATOM     36  C   UNL     1       2.227  10.951  -2.437  0.00  0.00    +0.270 C 
ATOM     37  C   UNL     1       3.715  10.576  -2.405  0.00  0.00    +0.270 C 
ATOM     38  O   UNL     1       3.857   9.364  -1.656  0.00  0.00    -0.485 OA
ENDBRANCH  22  23
ENDBRANCH   1  22
TORSDOF 10
