REMARK  Name = ZINC08442456
REMARK  12 active torsions:
REMARK  status: ('A' for Active; 'I' for Inactive)
REMARK    1  A    between atoms: C_1  and  C_2
REMARK    2  A    between atoms: C_2  and  C_3
REMARK    3  A    between atoms: C_2  and  C_4
REMARK    4  A    between atoms: C_2  and  C_5
REMARK    5  A    between atoms: C_5  and  C_7
REMARK    6  A    between atoms: C_5  and  N_22
REMARK    7  A    between atoms: C_7  and  N_9
REMARK    8  A    between atoms: C_7  and  O_14
REMARK    9  A    between atoms: O_14  and  C_15
REMARK   10  A    between atoms: C_23  and  C_27
REMARK   11  A    between atoms: C_27  and  C_29
REMARK   12  A    between atoms: C_27  and  N_70
REMARK                            x       y       z     vdW  Elec       q    Type
REMARK                         _______ _______ _______ _____ _____    ______ ____
ROOT
ATOM      1  C   UNL     1      -0.509   0.050  -0.265  0.00  0.00    +0.179 C 
ENDROOT
BRANCH   1   2
ATOM      2  N   UNL     1      -1.922  -0.334  -0.216  0.00  0.00    -0.221 N 
ATOM      3  C   UNL     1      -2.609  -0.980  -1.177  0.00  0.00    +0.143 A 
ATOM      4  N   UNL     1      -3.833  -1.125  -0.731  0.00  0.00    -0.115 NA
ATOM      5  N   UNL     1      -3.895  -0.596   0.442  0.00  0.00    -0.023 NA
ATOM      6  N   UNL     1      -2.740  -0.122   0.759  0.00  0.00    -0.043 NA
BRANCH   3   7
ATOM      7  C   UNL     1      -2.075  -1.446  -2.506  0.00  0.00    +0.033 C 
BRANCH   7  13
ATOM      8  C   UNL     1      -2.539  -1.534  -4.881  0.00  0.00    -0.077 C 
ATOM      9  C   UNL     1      -3.617  -1.286  -5.938  0.00  0.00    -0.019 C 
ATOM     10  C   UNL     1      -3.958   0.207  -5.971  0.00  0.00    -0.004 C 
ATOM     11  C   UNL     1      -4.419   0.648  -4.579  0.00  0.00    -0.019 C 
ATOM     12  C   UNL     1      -3.317   0.344  -3.562  0.00  0.00    -0.077 C 
ATOM     13  N   UNL     1      -3.054  -1.111  -3.561  0.00  0.00    +0.389 N 
ATOM     14  H   UNL     1      -3.932  -1.609  -3.371  0.00  0.00    -0.080 HD
ENDBRANCH   7  13
BRANCH   7  15
ATOM     15  C   UNL     1      -1.884  -2.941  -2.475  0.00  0.00    -0.054 A 
ATOM     16  C   UNL     1      -2.977  -3.779  -2.587  0.00  0.00    +0.002 A 
ATOM     17  C   UNL     1      -2.802  -5.150  -2.562  0.00  0.00    +0.000 A 
ATOM     18  C   UNL     1      -1.535  -5.683  -2.416  0.00  0.00    +0.000 A 
ATOM     19  C   UNL     1      -0.442  -4.844  -2.300  0.00  0.00    +0.000 A 
ATOM     20  C   UNL     1      -0.617  -3.473  -2.329  0.00  0.00    +0.002 A 
ENDBRANCH   7  15
ENDBRANCH   3   7
ENDBRANCH   1   2
BRANCH   1  22
ATOM     21  C   UNL     1       1.066   1.987  -0.362  0.00  0.00    +0.013 C 
ATOM     22  C   UNL     1      -0.389   1.569  -0.135  0.00  0.00    -0.010 C 
ATOM     23  C   UNL     1      -1.281   2.243  -1.179  0.00  0.00    +0.013 C 
ATOM     24  C   UNL     1      -0.830   1.998   1.266  0.00  0.00    +0.013 C 
ENDBRANCH   1  22
BRANCH   1  25
ATOM     25  C   UNL     1       0.242  -0.622   0.886  0.00  0.00    +0.319 C 
BRANCH  25  26
ATOM     26  N   UNL     1       1.677  -0.356   0.753  0.00  0.00    -0.211 N 
ATOM     27  C   UNL     1       2.498   0.125   1.702  0.00  0.00    +0.223 A 
ATOM     28  N   UNL     1       3.699   0.217   1.192  0.00  0.00    -0.223 NA
ATOM     29  C   UNL     1       3.683  -0.187  -0.078  0.00  0.00    +0.245 A 
ATOM     30  N   UNL     1       2.466  -0.548  -0.393  0.00  0.00    -0.155 NA
ENDBRANCH  25  26
BRANCH  25  31
ATOM     31  O   UNL     1       0.013  -2.032   0.846  0.00  0.00    -0.465 OA
BRANCH  31  32
ATOM     32  C   UNL     1       0.145  -2.712   2.015  0.00  0.00    +0.124 A 
ATOM     33  C   UNL     1      -0.031  -4.087   2.042  0.00  0.00    +0.047 A 
ATOM     34  C   UNL     1       0.108  -4.777   3.231  0.00  0.00    +0.023 A 
ATOM     35  C   UNL     1       0.413  -4.096   4.396  0.00  0.00    +0.041 A 
ATOM     36  C   UNL     1       0.585  -2.723   4.372  0.00  0.00    +0.023 A 
ATOM     37  C   UNL     1       0.452  -2.030   3.184  0.00  0.00    +0.047 A 
ATOM     38 CL   UNL     1       0.582  -4.965   5.890  0.00  0.00    -0.084 Cl
ENDBRANCH  31  32
ENDBRANCH  25  31
ENDBRANCH   1  25
TORSDOF 9
