REMARK  Name = ZINC12653284
REMARK  14 active torsions:
REMARK  status: ('A' for Active; 'I' for Inactive)
REMARK    1  A    between atoms: C_1  and  C_2
REMARK    2  A    between atoms: C_3  and  C_34
REMARK    3  A    between atoms: C_9  and  C_33
REMARK    4  A    between atoms: C_22  and  C_32
REMARK    5  A    between atoms: C_25  and  O_28
REMARK    6  A    between atoms: O_28  and  C_29
REMARK    7  A    between atoms: C_29  and  C_31
REMARK    8  A    between atoms: C_34  and  C_35
REMARK    9  A    between atoms: C_35  and  C_36
REMARK   10  A    between atoms: C_36  and  C_38
REMARK   11  A    between atoms: C_36  and  C_39
REMARK   12  A    between atoms: C_39  and  N_40
REMARK   13  A    between atoms: C_41  and  C_43
REMARK   14  A    between atoms: C_44  and  C_46
REMARK                            x       y       z     vdW  Elec       q    Type
REMARK                         _______ _______ _______ _____ _____    ______ ____
ROOT
ATOM      1  C   UNL     1       2.760   5.518   2.551  0.00  0.00    +0.043 C 
ATOM      2  C   UNL     1       2.445   4.598   3.708  0.00  0.00    -0.028 C 
ATOM      3  C   UNL     1       1.447   3.736   3.708  0.00  0.00    +0.098 C 
ATOM      4  O   UNL     1       1.368   2.990   4.825  0.00  0.00    -0.493 OA
ATOM      5  C   UNL     1       2.472   3.262   5.697  0.00  0.00    +0.181 C 
ATOM      6  C   UNL     1       3.206   4.439   4.995  0.00  0.00    +0.065 C 
ATOM      7  C   UNL     1       3.147   5.612   5.961  0.00  0.00    -0.019 C 
ATOM      8  C   UNL     1       3.094   6.991   5.367  0.00  0.00    +0.008 C 
ATOM      9  C   UNL     1       1.686   7.525   5.133  0.00  0.00    +0.005 C 
ATOM     10  C   UNL     1       0.909   7.442   6.449  0.00  0.00    +0.003 C 
ATOM     11  C   UNL     1       0.745   5.967   6.810  0.00  0.00    +0.000 C 
ATOM     12  C   UNL     1       2.099   5.314   7.031  0.00  0.00    +0.003 C 
ATOM     13  C   UNL     1       1.948   3.781   7.043  0.00  0.00    +0.049 C 
ATOM     14  C   UNL     1      -0.044   5.273   5.702  0.00  0.00    +0.031 C 
ATOM     15  C   UNL     1      -1.345   5.997   5.490  0.00  0.00    -0.027 C 
ATOM     16  C   UNL     1      -1.507   7.258   5.760  0.00  0.00    -0.064 C 
ATOM     17  C   UNL     1      -0.437   8.138   6.336  0.00  0.00    -0.008 C 
ATOM     18  C   UNL     1      -0.314   9.407   5.490  0.00  0.00    +0.015 C 
ATOM     19  C   UNL     1      -1.676  10.072   5.306  0.00  0.00    +0.046 C 
ATOM     20  C   UNL     1      -2.638   9.117   4.599  0.00  0.00    +0.180 C 
ATOM     21  C   UNL     1      -2.864   7.881   5.475  0.00  0.00    +0.075 C 
ATOM     22  C   UNL     1      -0.862   8.545   7.753  0.00  0.00    +0.016 C 
ATOM     23  C   UNL     1       4.515   5.577   6.721  0.00  0.00    +0.012 C 
ENDROOT
BRANCH  20  24
ATOM     24  O   UNL     1      -3.906   9.786   4.367  0.00  0.00    -0.461 OA
BRANCH  24  25
ATOM     25  C   UNL     1      -4.609   9.404   3.290  0.00  0.00    +0.304 C 
ATOM     26  O   UNL     1      -4.180   8.538   2.564  0.00  0.00    -0.251 OA
ATOM     27  C   UNL     1      -5.935  10.053   2.986  0.00  0.00    +0.136 C 
ENDBRANCH  24  25
ENDBRANCH  20  24
BRANCH   3  28
ATOM     28  C   UNL     1       0.484   3.607   2.555  0.00  0.00    +0.074 C 
BRANCH  28  29
ATOM     29  C   UNL     1       0.947   2.483   1.626  0.00  0.00    +0.012 C 
BRANCH  29  30
ATOM     30  C   UNL     1      -0.030   2.353   0.456  0.00  0.00    +0.004 C 
ATOM     31  C   UNL     1      -1.397   1.907   0.980  0.00  0.00    +0.009 C 
BRANCH  30  32
ATOM     32  C   UNL     1       0.498   1.316  -0.537  0.00  0.00    +0.119 C 
BRANCH  32  33
ATOM     33  N   UNL     1      -0.374   1.277  -1.713  0.00  0.00    -0.242 N 
ATOM     34  C   UNL     1      -0.123   2.081  -2.765  0.00  0.00    +0.219 C 
ATOM     35  O   UNL     1      -0.852   2.057  -3.734  0.00  0.00    -0.275 OA
ATOM     36  C   UNL     1       1.064   3.009  -2.738  0.00  0.00    +0.110 C 
ATOM     37  C   UNL     1      -1.428   0.437  -1.743  0.00  0.00    +0.219 C 
ATOM     38  O   UNL     1      -1.601  -0.351  -0.838  0.00  0.00    -0.275 OA
ATOM     39  C   UNL     1      -2.391   0.478  -2.901  0.00  0.00    +0.110 C 
ENDBRANCH  32  33
ENDBRANCH  30  32
ENDBRANCH  29  30
ENDBRANCH  28  29
ENDBRANCH   3  28
TORSDOF 7
