REMARK  Name = ZINC14021440
REMARK  9 active torsions:
REMARK  status: ('A' for Active; 'I' for Inactive)
REMARK    1  A    between atoms: C_1  and  O_2
REMARK    2  A    between atoms: O_2  and  C_3
REMARK    3  A    between atoms: C_6  and  S_9
REMARK    4  A    between atoms: S_9  and  N_12
REMARK    5  A    between atoms: C_16  and  C_19
REMARK    6  A    between atoms: N_21  and  C_22
REMARK    7  A    between atoms: C_23  and  C_32
REMARK    8  A    between atoms: C_32  and  O_34
REMARK    9  A    between atoms: O_34  and  C_35
REMARK                            x       y       z     vdW  Elec       q    Type
REMARK                         _______ _______ _______ _____ _____    ______ ____
ROOT
ATOM      1  C   UNL     1       1.093   3.853   5.167  0.00  0.00    +0.222 C 
ATOM      2  O   UNL     1       0.368   4.300   6.031  0.00  0.00    -0.275 OA
ATOM      3  N   UNL     1       0.584   3.529   3.962  0.00  0.00    -0.279 N 
ATOM      4  H   UNL     1       1.164   3.172   3.271  0.00  0.00    +0.155 HD
ENDROOT
BRANCH   3   5
ATOM      5  C   UNL     1      -0.768   3.705   3.710  0.00  0.00    +0.086 A 
ATOM      6  C   UNL     1      -1.470   3.433   2.545  0.00  0.00    +0.091 A 
ATOM      7  C   UNL     1      -2.902   3.702   2.540  0.00  0.00    -0.021 A 
ATOM      8  C   UNL     1      -3.390   4.212   3.691  0.00  0.00    -0.004 A 
ATOM      9  S   UNL     1      -1.989   4.322   4.771  0.00  0.00    -0.077 S 
ATOM     10  C   UNL     1      -4.803   4.604   3.993  0.00  0.00    +0.043 C 
ATOM     11  C   UNL     1      -5.743   3.465   3.578  0.00  0.00    +0.005 C 
ATOM     12  C   UNL     1      -6.149   3.678   2.123  0.00  0.00    +0.001 C 
ATOM     13  C   UNL     1      -5.004   4.327   1.348  0.00  0.00    +0.005 C 
ATOM     14  C   UNL     1      -3.784   3.413   1.332  0.00  0.00    +0.037 C 
BRANCH   6  15
ATOM     15  C   UNL     1      -0.797   2.889   1.364  0.00  0.00    +0.342 C 
ATOM     16  O   UNL     1      -0.333   3.641   0.528  0.00  0.00    -0.245 OA
BRANCH  15  17
ATOM     17  O   UNL     1      -0.692   1.554   1.203  0.00  0.00    -0.464 OA
ATOM     18  C   UNL     1      -0.013   1.086   0.008  0.00  0.00    +0.280 C 
ENDBRANCH  15  17
ENDBRANCH   6  15
ENDBRANCH   3   5
BRANCH   1  23
ATOM     19  N   UNL     1       4.282   3.790   7.167  0.00  0.00    -0.176 NA
ATOM     20  C   UNL     1       4.758   2.416   6.956  0.00  0.00    +0.109 C 
ATOM     21  C   UNL     1       4.422   1.993   5.523  0.00  0.00    +0.018 C 
ATOM     22  C   UNL     1       2.924   2.183   5.277  0.00  0.00    +0.015 C 
ATOM     23  C   UNL     1       2.562   3.662   5.441  0.00  0.00    +0.091 C 
ATOM     24  C   UNL     1       2.877   4.104   6.873  0.00  0.00    +0.122 C 
BRANCH  19  25
ATOM     25  S   UNL     1       5.309   4.963   7.726  0.00  0.00    +0.061 S 
ATOM     26  O   UNL     1       6.624   4.546   7.385  0.00  0.00    -0.153 OA
ATOM     27  O   UNL     1       4.771   6.208   7.304  0.00  0.00    -0.153 OA
BRANCH  25  31
ATOM     28  C   UNL     1       5.066   4.912  12.248  0.00  0.00    +0.120 A 
ATOM     29  C   UNL     1       5.997   4.118  11.593  0.00  0.00    +0.047 A 
ATOM     30  C   UNL     1       6.069   4.136  10.213  0.00  0.00    +0.032 A 
ATOM     31  C   UNL     1       5.215   4.943   9.485  0.00  0.00    +0.106 A 
ATOM     32  C   UNL     1       4.290   5.739  10.136  0.00  0.00    +0.032 A 
ATOM     33  C   UNL     1       4.210   5.721  11.515  0.00  0.00    +0.047 A 
BRANCH  28  35
ATOM     34  C   UNL     1       4.010   5.739  14.211  0.00  0.00    +0.277 C 
ATOM     35  O   UNL     1       4.992   4.896  13.605  0.00  0.00    -0.495 OA
ENDBRANCH  28  35
ENDBRANCH  25  31
ENDBRANCH  19  25
ENDBRANCH   1  23
TORSDOF 7
