REMARK  Name = ZINC08708859
REMARK  5 active torsions:
REMARK  status: ('A' for Active; 'I' for Inactive)
REMARK    1  A    between atoms: C_1  and  C_2
REMARK    2  A    between atoms: C_3  and  C_25
REMARK    3  A    between atoms: C_10  and  C_13
REMARK    4  A    between atoms: C_13  and  C_15
REMARK    5  A    between atoms: C_13  and  N_16
REMARK                            x       y       z     vdW  Elec       q    Type
REMARK                         _______ _______ _______ _____ _____    ______ ____
ROOT
ATOM      1  C   UNL     1      -0.018   1.503   0.010  0.00  0.00    +0.045 C 
ATOM      2  C   UNL     1       0.002  -0.004   0.002  0.00  0.00    -0.026 A 
ATOM      3  C   UNL     1       0.006  -0.677  -1.159  0.00  0.00    -0.008 A 
ATOM      4  S   UNL     1       0.031  -2.384  -0.644  0.00  0.00    -0.075 S 
ATOM      5  C   UNL     1       0.036  -2.139   1.112  0.00  0.00    +0.092 A 
ATOM      6  C   UNL     1       0.024  -0.745   1.249  0.00  0.00    +0.075 A 
ATOM      7  C   UNL     1       0.030  -0.253   2.645  0.00  0.00    +0.282 A 
ATOM      8  O   UNL     1       0.016   0.945   2.879  0.00  0.00    -0.265 OA
ATOM      9  N   UNL     1       0.051  -1.143   3.648  0.00  0.00    -0.194 NA
ATOM     10  C   UNL     1       0.067  -2.430   3.442  0.00  0.00    +0.132 A 
ATOM     11  N   UNL     1       0.052  -2.952   2.199  0.00  0.00    -0.336 N 
ATOM     12  H   UNL     1       0.064  -3.914   2.080  0.00  0.00    +0.168 HD
ATOM     13  C   UNL     1      -0.008  -0.124  -2.561  0.00  0.00    +0.052 C 
ENDROOT
BRANCH  10  14
ATOM     14  C   UNL     1       0.090  -3.361   4.627  0.00  0.00    +0.136 C 
ATOM     15  C   UNL     1       1.284  -4.311   4.505  0.00  0.00    +0.036 C 
BRANCH  14  16
ATOM     16  N   UNL     1       0.211  -2.580   5.860  0.00  0.00    -0.320 N 
ATOM     17  C   UNL     1      -0.760  -2.586   6.956  0.00  0.00    +0.110 C 
ATOM     18  C   UNL     1      -0.190  -1.618   8.006  0.00  0.00    +0.056 C 
ATOM     19  C   UNL     1       1.104  -1.122   7.401  0.00  0.00    -0.025 A 
ATOM     20  C   UNL     1       1.272  -1.726   6.164  0.00  0.00    +0.034 A 
ATOM     21  C   UNL     1       2.410  -1.424   5.412  0.00  0.00    +0.023 A 
ATOM     22  C   UNL     1       3.351  -0.542   5.899  0.00  0.00    +0.002 A 
ATOM     23  C   UNL     1       3.176   0.051   7.135  0.00  0.00    +0.000 A 
ATOM     24  C   UNL     1       2.048  -0.235   7.882  0.00  0.00    +0.005 A 
ENDBRANCH  14  16
ENDBRANCH  10  14
TORSDOF 2
