REMARK  Name = ZINC35543903
REMARK  9 active torsions:
REMARK  status: ('A' for Active; 'I' for Inactive)
REMARK    1  A    between atoms: C_1  and  C_2
REMARK    2  A    between atoms: C_2  and  C_3
REMARK    3  A    between atoms: C_3  and  C_5
REMARK    4  A    between atoms: C_3  and  N_6
REMARK    5  A    between atoms: C_7  and  C_9
REMARK    6  A    between atoms: C_14  and  N_28
REMARK    7  A    between atoms: N_22  and  C_25
REMARK    8  A    between atoms: C_25  and  C_26
REMARK    9  A    between atoms: C_25  and  C_27
REMARK                            x       y       z     vdW  Elec       q    Type
REMARK                         _______ _______ _______ _____ _____    ______ ____
ROOT
ATOM      1  C   UNL     1      -0.234   0.422  -4.849  0.00  0.00    +0.098 C 
ATOM      2  C   UNL     1      -1.314  -0.626  -5.114  0.00  0.00    +0.051 C 
ATOM      3  C   UNL     1      -0.662  -1.933  -5.484  0.00  0.00    -0.023 A 
ATOM      4  C   UNL     1      -1.341  -3.117  -5.254  0.00  0.00    +0.038 A 
ATOM      5  C   UNL     1      -0.759  -4.326  -5.582  0.00  0.00    +0.127 A 
ATOM      6  C   UNL     1       0.505  -4.359  -6.141  0.00  0.00    +0.034 A 
ATOM      7  C   UNL     1       1.187  -3.181  -6.377  0.00  0.00    +0.025 A 
ATOM      8  C   UNL     1       0.601  -1.962  -6.049  0.00  0.00    +0.033 A 
ATOM      9  N   UNL     1       1.314  -0.781  -6.310  0.00  0.00    -0.329 N 
ATOM     10  C   UNL     1       0.699   0.513  -6.061  0.00  0.00    +0.069 C 
ATOM     11  C   UNL     1       1.706   1.627  -5.826  0.00  0.00    -0.055 C 
ATOM     12  N   UNL     1       2.875   1.500  -6.695  0.00  0.00    +0.383 N 
ATOM     13  C   UNL     1       3.554   0.231  -6.397  0.00  0.00    -0.059 C 
ATOM     14  C   UNL     1       2.663  -0.917  -6.866  0.00  0.00    +0.087 C 
ATOM     15  H   UNL     1       2.580   1.507  -7.660  0.00  0.00    -0.081 HD
ENDROOT
BRANCH   1  17
ATOM     16  N   UNL     1      -0.055  -0.114  -2.441  0.00  0.00    -0.312 N 
ATOM     17  C   UNL     1       0.561   0.028  -3.631  0.00  0.00    +0.218 C 
ATOM     18  O   UNL     1       1.755  -0.162  -3.722  0.00  0.00    -0.275 OA
ATOM     19  H   UNL     1      -1.010   0.038  -2.368  0.00  0.00    +0.149 HD
BRANCH  16  20
ATOM     20  C   UNL     1       0.718  -0.497  -1.257  0.00  0.00    +0.070 C 
ATOM     21  C   UNL     1       0.849  -2.021  -1.205  0.00  0.00    +0.028 C 
BRANCH  20  23
ATOM     22  C   UNL     1      -0.019   1.526   0.010  0.00  0.00    +0.005 C 
ATOM     23  C   UNL     1       0.002  -0.004   0.002  0.00  0.00    +0.018 C 
ENDBRANCH  20  23
ENDBRANCH  16  20
ENDBRANCH   1  17
BRANCH  12  24
ATOM     24  C   UNL     1       3.794   2.620  -6.451  0.00  0.00    -0.075 C 
ATOM     25  C   UNL     1       5.016   2.485  -7.362  0.00  0.00    -0.014 C 
ATOM     26  C   UNL     1       3.080   3.940  -6.748  0.00  0.00    -0.014 C 
ENDBRANCH  12  24
BRANCH   5  27
ATOM     27  N   UNL     1      -1.490  -5.589  -5.334  0.00  0.00    +0.056 N 
ATOM     28  O   UNL     1      -2.595  -5.562  -4.845  0.00  0.00    -0.126 OA
ATOM     29  O   UNL     1      -0.981  -6.648  -5.620  0.00  0.00    -0.126 OA
ENDBRANCH   5  27
TORSDOF 5
