REMARK  Name = ZINC38653382
REMARK  16 active torsions:
REMARK  status: ('A' for Active; 'I' for Inactive)
REMARK    1  A    between atoms: C_1  and  C_2
REMARK    2  A    between atoms: C_2  and  C_40
REMARK    3  A    between atoms: C_3  and  C_4
REMARK    4  A    between atoms: C_4  and  C_6
REMARK    5  A    between atoms: C_6  and  C_7
REMARK    6  A    between atoms: C_7  and  C_8
REMARK    7  A    between atoms: C_7  and  C_9
REMARK    8  A    between atoms: C_7  and  O_39
REMARK    9  A    between atoms: C_11  and  O_38
REMARK   10  A    between atoms: C_14  and  C_37
REMARK   11  A    between atoms: C_15  and  C_36
REMARK   12  A    between atoms: C_19  and  C_35
REMARK   13  A    between atoms: C_28  and  O_34
REMARK   14  A    between atoms: C_31  and  C_32
REMARK   15  A    between atoms: C_31  and  C_33
REMARK   16  A    between atoms: C_40  and  O_41
REMARK                            x       y       z     vdW  Elec       q    Type
REMARK                         _______ _______ _______ _____ _____    ______ ____
ROOT
ATOM      1  C   UNL     1       2.036  -1.453   6.284  0.00  0.00    +0.056 C 
ATOM      2  C   UNL     1       3.309  -1.966   7.007  0.00  0.00    +0.121 C 
ATOM      3  C   UNL     1       3.077  -1.740   8.530  0.00  0.00    +0.039 C 
ATOM      4  C   UNL     1       1.548  -1.559   8.602  0.00  0.00    -0.020 C 
ATOM      5  C   UNL     1       1.306  -0.647   7.386  0.00  0.00    -0.012 C 
ATOM      6  C   UNL     1      -0.160  -0.405   7.153  0.00  0.00    +0.082 C 
ATOM      7  C   UNL     1      -0.897  -0.165   8.461  0.00  0.00    +0.141 C 
ATOM      8  O   UNL     1      -2.117  -0.048   8.447  0.00  0.00    -0.297 OA
ATOM      9  C   UNL     1      -0.155  -0.054   9.759  0.00  0.00    +0.040 C 
ATOM     10  C   UNL     1       0.960  -1.079   9.872  0.00  0.00    +0.013 C 
ATOM     11  C   UNL     1       1.896  -0.694  11.007  0.00  0.00    +0.032 C 
ATOM     12  C   UNL     1       1.040  -0.644  12.263  0.00  0.00    -0.026 C 
ATOM     13  C   UNL     1      -0.245  -0.467  12.239  0.00  0.00    -0.052 C 
ATOM     14  C   UNL     1      -1.044  -0.231  10.977  0.00  0.00    +0.055 C 
ATOM     15  C   UNL     1      -2.069  -1.309  10.839  0.00  0.00    +0.031 C 
ATOM     16  C   UNL     1      -2.628  -1.828  11.936  0.00  0.00    +0.157 C 
ATOM     17  C   UNL     1      -2.262  -1.383  13.282  0.00  0.00    +0.206 C 
ATOM     18  O   UNL     1      -2.913  -1.767  14.239  0.00  0.00    -0.288 OA
ATOM     19  C   UNL     1      -1.075  -0.466  13.514  0.00  0.00    +0.052 C 
ATOM     20  C   UNL     1      -0.281  -0.991  14.715  0.00  0.00    +0.024 C 
ATOM     21  C   UNL     1      -1.570   0.952  13.820  0.00  0.00    +0.024 C 
ATOM     22  C   UNL     1       0.375   1.374   9.896  0.00  0.00    +0.020 C 
ATOM     23  C   UNL     1       2.074   0.677   7.482  0.00  0.00    +0.012 C 
ATOM     24  C   UNL     1       0.923  -2.947   8.317  0.00  0.00    +0.012 C 
ENDROOT
BRANCH   1  25
ATOM     25  C   UNL     1       2.432  -0.501   5.150  0.00  0.00    +0.076 C 
ATOM     26  C   UNL     1       1.188   0.227   4.637  0.00  0.00    +0.042 C 
BRANCH  25  27
ATOM     27  O   UNL     1       3.376   0.455   5.638  0.00  0.00    -0.388 OA
ATOM     28  H   UNL     1       4.239   0.078   5.859  0.00  0.00    +0.210 HD
ENDBRANCH  25  27
BRANCH  25  29
ATOM     29  C   UNL     1       3.062  -1.302   4.009  0.00  0.00    +0.113 C 
BRANCH  29  30
ATOM     30  C   UNL     1       3.452  -0.367   2.894  0.00  0.00    +0.159 C 
ATOM     31  O   UNL     1       3.246   0.824   3.001  0.00  0.00    -0.293 OA
BRANCH  30  34
ATOM     32  C   UNL     1       3.863   1.347   0.685  0.00  0.00    +0.041 C 
ATOM     33  C   UNL     1       4.357  -0.076   0.665  0.00  0.00    -0.044 C 
ATOM     34  C   UNL     1       4.078  -0.894   1.682  0.00  0.00    +0.047 C 
BRANCH  33  35
ATOM     35  C   UNL     1       5.166  -0.576  -0.504  0.00  0.00    +0.186 C 
BRANCH  35  36
ATOM     36  O   UNL     1       5.515  -1.946  -0.291  0.00  0.00    -0.391 OA
ATOM     37  H   UNL     1       6.037  -2.334  -1.006  0.00  0.00    +0.210 HD
ENDBRANCH  35  36
ENDBRANCH  33  35
ENDBRANCH  30  34
ENDBRANCH  29  30
ENDBRANCH  25  29
ENDBRANCH   1  25
BRANCH  16  38
ATOM     38  O   UNL     1      -3.568  -2.800  11.792  0.00  0.00    -0.504 OA
ATOM     39  H   UNL     1      -3.928  -3.127  12.628  0.00  0.00    +0.292 HD
ENDBRANCH  16  38
BRANCH   2  40
ATOM     40  O   UNL     1       3.524  -3.348   6.731  0.00  0.00    -0.391 OA
ATOM     41  H   UNL     1       4.309  -3.717   7.159  0.00  0.00    +0.210 HD
ENDBRANCH   2  40
TORSDOF 9
