REMARK  Name = ZINC04738238
REMARK  10 active torsions:
REMARK  status: ('A' for Active; 'I' for Inactive)
REMARK    1  A    between atoms: C_1  and  C_2
REMARK    2  A    between atoms: C_2  and  C_35
REMARK    3  A    between atoms: C_9  and  C_21
REMARK    4  A    between atoms: C_17  and  C_19
REMARK    5  A    between atoms: C_17  and  C_20
REMARK    6  A    between atoms: N_23  and  N_24
REMARK    7  A    between atoms: C_25  and  C_26
REMARK    8  A    between atoms: C_29  and  N_32
REMARK    9  A    between atoms: N_32  and  C_33
REMARK   10  A    between atoms: N_32  and  C_34
REMARK                            x       y       z     vdW  Elec       q    Type
REMARK                         _______ _______ _______ _____ _____    ______ ____
ROOT
ATOM      1  C   UNL     1      -0.447  -0.935   3.275  0.00  0.00    +0.074 C 
ATOM      2  C   UNL     1      -0.826  -0.066   2.074  0.00  0.00    +0.166 C 
ATOM      3  O   UNL     1      -1.859   0.863   2.455  0.00  0.00    -0.341 OA
ATOM      4  C   UNL     1      -3.079   0.217   2.051  0.00  0.00    +0.187 C 
ATOM      5  C   UNL     1      -2.666  -0.447   0.713  0.00  0.00    +0.191 C 
ATOM      6  O   UNL     1      -1.320  -0.897   1.014  0.00  0.00    -0.340 OA
ATOM      7  C   UNL     1      -2.551   0.566  -0.422  0.00  0.00    +0.240 C 
ATOM      8  O   UNL     1      -3.643   1.493  -0.468  0.00  0.00    -0.333 OA
ATOM      9  C   UNL     1      -3.745   2.214   0.747  0.00  0.00    +0.286 C 
ATOM     10  C   UNL     1      -4.204   1.183   1.815  0.00  0.00    +0.209 C 
ATOM     11  O   UNL     1      -4.567   2.056   2.886  0.00  0.00    -0.338 OA
ATOM     12  C   UNL     1      -5.234   3.152   2.210  0.00  0.00    +0.168 C 
ATOM     13  O   UNL     1      -4.757   3.209   0.847  0.00  0.00    -0.318 OA
ATOM     14  C   UNL     1      -6.746   2.918   2.218  0.00  0.00    +0.074 C 
ATOM     15  C   UNL     1      -4.914   4.468   2.922  0.00  0.00    +0.074 C 
ATOM     16  C   UNL     1       0.403   0.707   1.591  0.00  0.00    +0.074 C 
ENDROOT
BRANCH   7  17
ATOM     17  C   UNL     1      -1.268   1.338  -0.253  0.00  0.00    +0.264 C 
ATOM     18  O   UNL     1      -1.274   2.407   0.322  0.00  0.00    -0.271 OA
ATOM     19  N   UNL     1      -0.114   0.842  -0.741  0.00  0.00    -0.205 N 
ATOM     20  H   UNL     1      -0.093  -0.049  -1.124  0.00  0.00    +0.177 HD
BRANCH  19  21
ATOM     21  N   UNL     1       1.053   1.616  -0.702  0.00  0.00    -0.188 NA
ATOM     22  C   UNL     1       2.163   1.140  -1.177  0.00  0.00    +0.138 C 
BRANCH  22  23
ATOM     23  C   UNL     1       3.392   1.954  -1.135  0.00  0.00    -0.005 A 
ATOM     24  C   UNL     1       3.361   3.240  -0.590  0.00  0.00    +0.011 A 
ATOM     25  C   UNL     1       4.512   3.995  -0.546  0.00  0.00    +0.024 A 
ATOM     26  C   UNL     1       5.701   3.484  -1.056  0.00  0.00    +0.029 A 
ATOM     27  C   UNL     1       5.734   2.207  -1.605  0.00  0.00    +0.024 A 
ATOM     28  C   UNL     1       4.588   1.443  -1.646  0.00  0.00    +0.011 A 
BRANCH  26  29
ATOM     29  N   UNL     1       6.864   4.254  -1.016  0.00  0.00    -0.336 N 
ATOM     30  C   UNL     1       8.089   3.764  -1.652  0.00  0.00    +0.129 C 
ATOM     31  C   UNL     1       6.859   5.553  -0.338  0.00  0.00    +0.129 C 
ENDBRANCH  26  29
ENDBRANCH  22  23
ENDBRANCH  19  21
ENDBRANCH   7  17
TORSDOF 4
