REMARK  Name = ZINC63557708
REMARK  5 active torsions:
REMARK  status: ('A' for Active; 'I' for Inactive)
REMARK    1  A    between atoms: C_8  and  N_11
REMARK    2  A    between atoms: C_12  and  C_14
REMARK    3  A    between atoms: N_19  and  C_21
REMARK    4  A    between atoms: C_21  and  C_22
REMARK    5  A    between atoms: C_22  and  C_23
REMARK                            x       y       z     vdW  Elec       q    Type
REMARK                         _______ _______ _______ _____ _____    ______ ____
ROOT
ATOM      1  C   UNL     1       4.225  -5.095  -2.571  0.00  0.00    +0.101 C 
ATOM      2  C   UNL     1       3.076  -6.104  -2.804  0.00  0.00    +0.110 C 
ATOM      3  C   UNL     1       3.767  -7.332  -3.354  0.00  0.00    +0.216 C 
ATOM      4  O   UNL     1       3.210  -8.245  -3.926  0.00  0.00    -0.276 OA
ATOM      5  N   UNL     1       5.089  -7.264  -3.118  0.00  0.00    -0.300 N 
ATOM      6  C   UNL     1       5.439  -6.034  -2.397  0.00  0.00    +0.121 C 
ENDROOT
BRANCH   1   8
ATOM      7  N   UNL     1       2.931  -3.450  -1.252  0.00  0.00    -0.288 N 
ATOM      8  C   UNL     1       3.987  -4.285  -1.322  0.00  0.00    +0.220 C 
ATOM      9  O   UNL     1       4.745  -4.386  -0.381  0.00  0.00    -0.275 OA
ATOM     10  H   UNL     1       2.325  -3.370  -2.005  0.00  0.00    +0.151 HD
BRANCH   7  18
ATOM     11  C   UNL     1      -0.017   1.371   0.010  0.00  0.00    +0.002 A 
ATOM     12  C   UNL     1       1.157   2.102   0.002  0.00  0.00    +0.001 A 
ATOM     13  C   UNL     1       2.367   1.427  -0.013  0.00  0.00    +0.016 A 
ATOM     14  C   UNL     1       2.384   0.051  -0.020  0.00  0.00    +0.032 A 
ATOM     15  C   UNL     1       1.215  -0.716  -0.013  0.00  0.00    +0.043 A 
ATOM     16  C   UNL     1       0.002  -0.004   0.002  0.00  0.00    +0.024 A 
ATOM     17  N   UNL     1       1.341  -2.104  -0.022  0.00  0.00    -0.316 N 
ATOM     18  C   UNL     1       2.700  -2.663  -0.039  0.00  0.00    +0.224 C 
ATOM     19  S   UNL     1       3.714  -1.130  -0.039  0.00  0.00    -0.082 S 
ATOM     20  H   UNL     1       0.560  -2.680  -0.018  0.00  0.00    +0.149 HD
ENDBRANCH   7  18
ENDBRANCH   1   8
BRANCH   5  21
ATOM     21  C   UNL     1       6.055  -8.287  -3.526  0.00  0.00    +0.112 C 
BRANCH  21  22
ATOM     22  C   UNL     1       6.582  -7.960  -4.925  0.00  0.00    +0.052 C 
BRANCH  22  23
ATOM     23  C   UNL     1       7.576  -9.011  -5.346  0.00  0.00    -0.040 C 
ATOM     24  C   UNL     1       7.330 -10.110  -6.094  0.00  0.00    +0.002 A 
ATOM     25  C   UNL     1       6.109 -10.635  -6.717  0.00  0.00    +0.048 A 
ATOM     26  C   UNL     1       6.176 -11.788  -7.424  0.00  0.00    +0.124 A 
ATOM     27  C   UNL     1       7.381 -12.492  -7.575  0.00  0.00    +0.040 A 
ATOM     28  C   UNL     1       8.543 -12.071  -7.032  0.00  0.00    +0.029 A 
ATOM     29  C   UNL     1       8.588 -10.871  -6.269  0.00  0.00    +0.043 A 
ATOM     30  N   UNL     1       9.573 -10.266  -5.652  0.00  0.00    -0.380 N 
ATOM     31  C   UNL     1       9.053  -9.048  -5.021  0.00  0.00    +0.144 C 
ATOM     32  F   UNL     1       5.053 -12.275  -7.998  0.00  0.00    -0.205 F 
ATOM     33  H   UNL     1      10.494 -10.571  -5.622  0.00  0.00    +0.160 HD
ENDBRANCH  22  23
ENDBRANCH  21  22
ENDBRANCH   5  21
TORSDOF 5
