REMARK  Name = ZINC09884815
REMARK  6 active torsions:
REMARK  status: ('A' for Active; 'I' for Inactive)
REMARK    1  A    between atoms: C_4  and  C_7
REMARK    2  A    between atoms: C_7  and  N_8
REMARK    3  A    between atoms: C_9  and  C_30
REMARK    4  A    between atoms: C_12  and  S_13
REMARK    5  A    between atoms: S_13  and  C_14
REMARK    6  A    between atoms: C_14  and  C_15
REMARK                            x       y       z     vdW  Elec       q    Type
REMARK                         _______ _______ _______ _____ _____    ______ ____
ROOT
ATOM      1  S   UNL     1      -4.122   3.331   1.815  0.00  0.00    -0.077 S 
ENDROOT
BRANCH   1   6
ATOM      2  N   UNL     1      -1.943   1.583   1.666  0.00  0.00    -0.295 N 
ATOM      3  C   UNL     1      -1.167   0.884   2.566  0.00  0.00    +0.201 A 
ATOM      4  N   UNL     1      -1.619   1.171   3.767  0.00  0.00    -0.125 NA
ATOM      5  N   UNL     1      -2.614   1.980   3.680  0.00  0.00    -0.122 NA
ATOM      6  C   UNL     1      -2.856   2.266   2.420  0.00  0.00    +0.193 A 
BRANCH   3   7
ATOM      7  C   UNL     1      -0.044  -0.010   2.243  0.00  0.00    +0.172 A 
ATOM      8  C   UNL     1       0.894  -0.464   3.121  0.00  0.00    +0.053 A 
ATOM      9  C   UNL     1       1.770  -1.287   2.387  0.00  0.00    +0.042 A 
ATOM     10  C   UNL     1       1.335  -1.290   1.111  0.00  0.00    +0.196 A 
ATOM     11  O   UNL     1       0.239  -0.518   1.028  0.00  0.00    -0.460 OA
ENDBRANCH   3   7
BRANCH   2  12
ATOM     12  C   UNL     1      -1.819   1.587   0.206  0.00  0.00    +0.161 C 
BRANCH  12  16
ATOM     13  C   UNL     1       0.828   4.717  -0.995  0.00  0.00    +0.000 A 
ATOM     14  C   UNL     1       1.326   3.457  -0.725  0.00  0.00    +0.000 A 
ATOM     15  C   UNL     1       0.470   2.445  -0.332  0.00  0.00    +0.005 A 
ATOM     16  C   UNL     1      -0.885   2.692  -0.215  0.00  0.00    -0.028 A 
ATOM     17  C   UNL     1      -1.383   3.954  -0.480  0.00  0.00    +0.005 A 
ATOM     18  C   UNL     1      -0.527   4.966  -0.872  0.00  0.00    +0.000 A 
ENDBRANCH  12  16
ENDBRANCH   2  12
ENDBRANCH   1   6
BRANCH   1  19
ATOM     19  C   UNL     1      -4.883   3.834   3.379  0.00  0.00    +0.173 C 
BRANCH  19  20
ATOM     20  C   UNL     1      -6.026   4.776   3.101  0.00  0.00    +0.227 C 
ATOM     21  O   UNL     1      -6.299   5.078   1.958  0.00  0.00    -0.275 OA
ATOM     22  N   UNL     1      -6.744   5.283   4.122  0.00  0.00    -0.278 N 
ATOM     23  C   UNL     1      -6.942   4.527   5.370  0.00  0.00    +0.204 C 
ATOM     24  C   UNL     1      -8.411   4.542   5.707  0.00  0.00    +0.237 C 
ATOM     25  O   UNL     1      -8.871   3.657   6.397  0.00  0.00    -0.274 OA
ATOM     26  N   UNL     1      -9.220   5.514   5.261  0.00  0.00    -0.253 N 
ATOM     27  C   UNL     1      -8.805   6.504   4.457  0.00  0.00    +0.243 C 
ATOM     28  O   UNL     1      -9.604   7.325   4.063  0.00  0.00    -0.273 OA
ATOM     29  C   UNL     1      -7.358   6.617   4.038  0.00  0.00    +0.114 C 
ATOM     30  C   UNL     1      -7.272   7.127   2.599  0.00  0.00    +0.035 C 
ATOM     31  C   UNL     1      -5.803   7.219   2.178  0.00  0.00    +0.003 C 
ATOM     32  C   UNL     1      -5.066   8.183   3.110  0.00  0.00    +0.000 C 
ATOM     33  C   UNL     1      -5.151   7.668   4.548  0.00  0.00    +0.003 C 
ATOM     34  C   UNL     1      -6.619   7.577   4.970  0.00  0.00    +0.035 C 
ATOM     35  H   UNL     1     -10.151   5.500   5.533  0.00  0.00    +0.158 HD
ENDBRANCH  19  20
ENDBRANCH   1  19
TORSDOF 6
