REMARK  Name = ZINC10386595
REMARK  4 active torsions:
REMARK  status: ('A' for Active; 'I' for Inactive)
REMARK    1  A    between atoms: C_4  and  O_28
REMARK    2  A    between atoms: C_5  and  C_7
REMARK    3  A    between atoms: N_22  and  C_25
REMARK    4  A    between atoms: C_25  and  C_26
REMARK                            x       y       z     vdW  Elec       q    Type
REMARK                         _______ _______ _______ _____ _____    ______ ____
ROOT
ATOM      1  C   UNL     1      -2.096   0.882  -1.384  0.00  0.00    +0.078 C 
ATOM      2  C   UNL     1      -2.629   1.035   0.000  0.00  0.00    +0.033 A 
ATOM      3  C   UNL     1      -1.991   1.426   1.123  0.00  0.00    +0.087 A 
ATOM      4  N   UNL     1      -2.753   1.466   2.268  0.00  0.00    -0.311 N 
ATOM      5  H   UNL     1      -2.348   1.734   3.107  0.00  0.00    +0.170 HD
ATOM      6  C   UNL     1      -4.058   1.133   2.229  0.00  0.00    +0.289 A 
ATOM      7  O   UNL     1      -4.870   1.117   3.138  0.00  0.00    -0.260 OA
ATOM      8  S   UNL     1      -4.289   0.735   0.556  0.00  0.00    -0.030 S 
ATOM      9  S   UNL     1      -0.264   1.863   1.083  0.00  0.00    -0.106 S 
ATOM     10  C   UNL     1       0.248   1.234  -0.546  0.00  0.00    +0.093 C 
ATOM     11  C   UNL     1      -0.800   1.657  -1.575  0.00  0.00    +0.076 C 
ATOM     12  C   UNL     1      -0.256   1.453  -2.998  0.00  0.00    +0.114 C 
ATOM     13  C   UNL     1      -0.251   2.853  -3.575  0.00  0.00    +0.223 C 
ATOM     14  O   UNL     1       0.111   3.151  -4.693  0.00  0.00    -0.275 OA
ATOM     15  N   UNL     1      -0.710   3.710  -2.654  0.00  0.00    -0.231 N 
ATOM     16  C   UNL     1      -1.049   3.142  -1.488  0.00  0.00    +0.231 C 
ATOM     17  O   UNL     1      -1.487   3.728  -0.521  0.00  0.00    -0.274 OA
ENDROOT
BRANCH   1  22
ATOM     18  C   UNL     1      -1.863  -2.446  -3.153  0.00  0.00    +0.001 A 
ATOM     19  C   UNL     1      -1.371  -3.261  -2.150  0.00  0.00    +0.004 A 
ATOM     20  C   UNL     1      -1.112  -2.739  -0.898  0.00  0.00    +0.046 A 
ATOM     21  C   UNL     1      -1.346  -1.395  -0.647  0.00  0.00    +0.121 A 
ATOM     22  C   UNL     1      -1.840  -0.579  -1.654  0.00  0.00    +0.003 A 
ATOM     23  C   UNL     1      -2.102  -1.107  -2.903  0.00  0.00    +0.008 A 
BRANCH  21  24
ATOM     24  O   UNL     1      -1.092  -0.878   0.584  0.00  0.00    -0.506 OA
ATOM     25  H   UNL     1      -1.844  -0.919   1.191  0.00  0.00    +0.292 HD
ENDBRANCH  21  24
ENDBRANCH   1  22
BRANCH  15  26
ATOM     26  C   UNL     1      -0.831   5.150  -2.900  0.00  0.00    +0.241 C 
BRANCH  26  27
ATOM     27  C   UNL     1      -2.196   5.450  -3.463  0.00  0.00    +0.373 C 
ATOM     28  O   UNL     1      -2.986   4.554  -3.642  0.00  0.00    -0.245 OA
ATOM     29  O   UNL     1      -2.533   6.713  -3.768  0.00  0.00    -0.245 OA
ENDBRANCH  26  27
ENDBRANCH  15  26
TORSDOF 4
