REMARK  Name = ZINC15947113
REMARK  7 active torsions:
REMARK  status: ('A' for Active; 'I' for Inactive)
REMARK    1  A    between atoms: C_1  and  N_2
REMARK    2  A    between atoms: C_5  and  O_32
REMARK    3  A    between atoms: N_14  and  C_25
REMARK    4  A    between atoms: N_16  and  C_17
REMARK    5  A    between atoms: C_21  and  O_23
REMARK    6  A    between atoms: C_28  and  O_31
REMARK    7  A    between atoms: O_32  and  C_33
REMARK                            x       y       z     vdW  Elec       q    Type
REMARK                         _______ _______ _______ _____ _____    ______ ____
ROOT
ATOM      1  C   UNL     1      -0.020   1.448   0.019  0.00  0.00    +0.136 C 
ATOM      2  N   UNL     1       0.012  -0.015   0.084  0.00  0.00    -0.296 N 
ATOM      3  C   UNL     1      -1.164  -0.726   0.246  0.00  0.00    +0.052 A 
ATOM      4  C   UNL     1      -2.465  -0.207   0.364  0.00  0.00    +0.070 A 
ATOM      5  C   UNL     1      -3.548  -1.045   0.522  0.00  0.00    +0.122 A 
ATOM      6  C   UNL     1      -3.389  -2.424   0.571  0.00  0.00    +0.047 A 
ATOM      7  C   UNL     1      -2.118  -2.958   0.456  0.00  0.00    +0.020 A 
ATOM      8  C   UNL     1      -1.038  -2.121   0.298  0.00  0.00    +0.035 A 
ATOM      9  S   UNL     1       0.709  -2.387   0.120  0.00  0.00    -0.071 S 
ATOM     10  C   UNL     1       1.207  -0.678  -0.020  0.00  0.00    +0.092 C 
ATOM     11  C   UNL     1       2.480  -0.154  -0.191  0.00  0.00    +0.106 C 
ATOM     12  C   UNL     1       3.696  -0.825  -0.412  0.00  0.00    +0.266 C 
ATOM     13  O   UNL     1       3.729  -2.043  -0.478  0.00  0.00    -0.269 OA
ATOM     14  N   UNL     1       4.803  -0.115  -0.547  0.00  0.00    -0.214 N 
ATOM     15  C   UNL     1       4.750   1.263  -0.470  0.00  0.00    +0.173 C 
ATOM     16  N   UNL     1       5.729   2.138  -0.578  0.00  0.00    -0.225 NA
ATOM     17  S   UNL     1       3.009   1.553  -0.195  0.00  0.00    -0.046 S 
ENDROOT
BRANCH  16  18
ATOM     18  C   UNL     1       5.467   3.475  -0.471  0.00  0.00    +0.070 A 
ATOM     19  C   UNL     1       4.369   4.031  -1.135  0.00  0.00    +0.028 A 
ATOM     20  C   UNL     1       4.107   5.380  -1.023  0.00  0.00    +0.006 A 
ATOM     21  C   UNL     1       4.928   6.187  -0.256  0.00  0.00    +0.045 A 
ATOM     22  C   UNL     1       6.021   5.645   0.407  0.00  0.00    +0.119 A 
ATOM     23  C   UNL     1       6.290   4.291   0.307  0.00  0.00    +0.073 A 
BRANCH  22  24
ATOM     24  O   UNL     1       6.823   6.444   1.159  0.00  0.00    -0.507 OA
ATOM     25  H   UNL     1       6.549   6.519   2.083  0.00  0.00    +0.292 HD
ENDBRANCH  22  24
ENDBRANCH  16  18
BRANCH  14  26
ATOM     26  C   UNL     1       6.028  -0.760  -0.768  0.00  0.00    +0.044 A 
ATOM     27  C   UNL     1       7.014  -0.733   0.209  0.00  0.00    +0.027 A 
ATOM     28  C   UNL     1       8.220  -1.368  -0.009  0.00  0.00    +0.047 A 
ATOM     29  C   UNL     1       8.448  -2.033  -1.205  0.00  0.00    +0.117 A 
ATOM     30  C   UNL     1       7.463  -2.061  -2.182  0.00  0.00    +0.047 A 
ATOM     31  C   UNL     1       6.254  -1.432  -1.962  0.00  0.00    +0.027 A 
BRANCH  29  32
ATOM     32  O   UNL     1       9.636  -2.658  -1.419  0.00  0.00    -0.507 OA
ATOM     33  H   UNL     1       9.653  -3.581  -1.131  0.00  0.00    +0.292 HD
ENDBRANCH  29  32
ENDBRANCH  14  26
BRANCH   5  34
ATOM     34  O   UNL     1      -4.794  -0.512   0.634  0.00  0.00    -0.495 OA
ATOM     35  C   UNL     1      -5.879  -1.427   0.796  0.00  0.00    +0.277 C 
ENDBRANCH   5  34
TORSDOF 5
