REMARK  Name = ZINC08604714
REMARK  13 active torsions:
REMARK  status: ('A' for Active; 'I' for Inactive)
REMARK    1  A    between atoms: C_1  and  C_2
REMARK    2  A    between atoms: C_4  and  C_35
REMARK    3  A    between atoms: C_5  and  N_9
REMARK    4  A    between atoms: C_6  and  C_8
REMARK    5  A    between atoms: C_10  and  C_12
REMARK    6  A    between atoms: C_12  and  S_13
REMARK    7  A    between atoms: S_13  and  C_14
REMARK    8  A    between atoms: C_19  and  S_22
REMARK    9  A    between atoms: S_22  and  C_25
REMARK   10  A    between atoms: C_28  and  C_31
REMARK   11  A    between atoms: C_31  and  C_32
REMARK   12  A    between atoms: C_31  and  C_33
REMARK   13  A    between atoms: C_31  and  C_34
REMARK                            x       y       z     vdW  Elec       q    Type
REMARK                         _______ _______ _______ _____ _____    ______ ____
ROOT
ATOM      1  C   UNL     1      -0.738  -8.847   2.096  0.00  0.00    +0.169 A 
ATOM      2  N   UNL     1      -0.738  -9.713   3.147  0.00  0.00    -0.300 N 
ATOM      3  H   UNL     1      -0.563  -9.389   4.045  0.00  0.00    +0.171 HD
ATOM      4  C   UNL     1      -0.982 -11.024   2.936  0.00  0.00    +0.277 A 
ATOM      5  O   UNL     1      -0.987 -11.813   3.866  0.00  0.00    -0.266 OA
ATOM      6  C   UNL     1      -1.232 -11.461   1.623  0.00  0.00    +0.176 A 
ATOM      7  C   UNL     1      -1.219 -10.548   0.609  0.00  0.00    +0.146 A 
ATOM      8  N   UNL     1      -0.978  -9.265   0.869  0.00  0.00    -0.230 NA
ENDROOT
BRANCH   6   9
ATOM      9  S   UNL     1      -1.556 -13.162   1.293  0.00  0.00    +0.032 S 
ATOM     10  O   UNL     1      -2.546 -13.575   2.225  0.00  0.00    -0.164 OA
ATOM     11  O   UNL     1      -1.738 -13.275  -0.112  0.00  0.00    -0.164 OA
BRANCH   9  12
ATOM     12  C   UNL     1      -0.091 -14.057   1.685  0.00  0.00    +0.094 A 
ATOM     13  C   UNL     1       0.875 -14.260   0.718  0.00  0.00    +0.027 A 
ATOM     14  C   UNL     1       2.025 -14.962   1.026  0.00  0.00    +0.006 A 
ATOM     15  C   UNL     1       2.209 -15.462   2.301  0.00  0.00    -0.042 A 
ATOM     16  C   UNL     1       1.244 -15.259   3.269  0.00  0.00    +0.006 A 
ATOM     17  C   UNL     1       0.096 -14.553   2.962  0.00  0.00    +0.027 A 
BRANCH  15  18
ATOM     18  C   UNL     1       3.463 -16.229   2.636  0.00  0.00    -0.013 C 
ATOM     19  C   UNL     1       4.684 -15.335   2.410  0.00  0.00    +0.015 C 
ATOM     20  C   UNL     1       3.416 -16.667   4.101  0.00  0.00    +0.015 C 
ATOM     21  C   UNL     1       3.561 -17.464   1.738  0.00  0.00    +0.015 C 
ENDBRANCH  15  18
ENDBRANCH   9  12
ENDBRANCH   6   9
BRANCH   1  22
ATOM     22  S   UNL     1      -0.418  -7.138   2.382  0.00  0.00    -0.078 S 
BRANCH  22  23
ATOM     23  C   UNL     1      -0.526  -6.390   0.733  0.00  0.00    +0.173 C 
BRANCH  23  25
ATOM     24  N   UNL     1      -0.299  -4.141  -0.272  0.00  0.00    -0.284 N 
ATOM     25  C   UNL     1      -0.270  -4.908   0.836  0.00  0.00    +0.228 C 
ATOM     26  O   UNL     1      -0.036  -4.407   1.915  0.00  0.00    -0.275 OA
ATOM     27  H   UNL     1      -0.421  -4.551  -1.143  0.00  0.00    +0.155 HD
BRANCH  24  32
ATOM     28  C   UNL     1       0.286   1.486   0.157  0.00  0.00    +0.044 C 
ATOM     29  C   UNL     1       0.130  -0.009   0.043  0.00  0.00    -0.050 A 
ATOM     30  C   UNL     1       1.121  -0.844   0.526  0.00  0.00    +0.008 A 
ATOM     31  C   UNL     1       0.982  -2.215   0.423  0.00  0.00    -0.029 A 
ATOM     32  C   UNL     1      -0.155  -2.753  -0.166  0.00  0.00    +0.039 A 
ATOM     33  C   UNL     1      -1.148  -1.911  -0.649  0.00  0.00    -0.029 A 
ATOM     34  C   UNL     1      -1.005  -0.542  -0.539  0.00  0.00    +0.008 A 
ATOM     35  C   UNL     1      -2.383  -2.491  -1.289  0.00  0.00    +0.045 C 
ATOM     36  C   UNL     1       2.062  -3.124   0.949  0.00  0.00    +0.045 C 
ENDBRANCH  24  32
ENDBRANCH  23  25
ENDBRANCH  22  23
ENDBRANCH   1  22
TORSDOF 7
