REMARK  Name = ZINC09211262
REMARK  5 active torsions:
REMARK  status: ('A' for Active; 'I' for Inactive)
REMARK    1  A    between atoms: C_10  and  C_11
REMARK    2  A    between atoms: C_10  and  N_73
REMARK    3  A    between atoms: C_11  and  C_12
REMARK    4  A    between atoms: C_12  and  N_13
REMARK    5  A    between atoms: C_14  and  C_16
REMARK                            x       y       z     vdW  Elec       q    Type
REMARK                         _______ _______ _______ _____ _____    ______ ____
ROOT
ATOM      1  C   UNL     1      -1.330   1.944   0.019  0.00  0.00    +0.078 C 
ATOM      2  C   UNL     1      -1.421   2.811   1.278  0.00  0.00    +0.031 C 
ATOM      3  C   UNL     1      -2.783   3.508   1.313  0.00  0.00    +0.107 C 
ATOM      4  N   UNL     1      -3.851   2.500   1.313  0.00  0.00    -0.313 N 
ATOM      5  C   UNL     1      -3.812   1.686   0.091  0.00  0.00    +0.107 C 
ATOM      6  C   UNL     1      -2.481   0.935   0.019  0.00  0.00    +0.031 C 
ATOM      7  C   UNL     1      -5.091   3.091   1.476  0.00  0.00    +0.152 A 
ATOM      8  C   UNL     1      -5.357   3.912   2.585  0.00  0.00    +0.148 A 
ATOM      9  C   UNL     1      -6.634   4.487   2.694  0.00  0.00    +0.166 A 
ATOM     10  N   UNL     1      -7.540   4.231   1.756  0.00  0.00    -0.216 NA
ATOM     11  C   UNL     1      -7.248   3.451   0.737  0.00  0.00    +0.225 A 
ATOM     12  N   UNL     1      -6.061   2.891   0.590  0.00  0.00    -0.218 NA
ATOM     13  N   UNL     1      -6.618   5.223   3.851  0.00  0.00    -0.312 N 
ATOM     14  C   UNL     1      -5.378   5.097   4.405  0.00  0.00    +0.112 A 
ATOM     15  N   UNL     1      -4.639   4.328   3.655  0.00  0.00    -0.227 NA
ATOM     16  C   UNL     1      -4.927   5.763   5.683  0.00  0.00    +0.074 C 
ATOM     17  C   UNL     1      -5.990   5.555   6.764  0.00  0.00    +0.008 C 
ATOM     18  C   UNL     1      -7.015   6.682   6.697  0.00  0.00    +0.002 C 
ATOM     19  C   UNL     1      -7.212   7.138   5.252  0.00  0.00    +0.022 C 
ATOM     20  C   UNL     1      -7.745   5.975   4.413  0.00  0.00    +0.125 C 
ENDROOT
BRANCH   1  22
ATOM     21  N   UNL     1       1.143   1.898   0.001  0.00  0.00    -0.315 N 
ATOM     22  C   UNL     1      -0.014   1.209   0.009  0.00  0.00    +0.216 C 
ATOM     23  O   UNL     1       0.002  -0.004   0.002  0.00  0.00    -0.276 OA
ATOM     24  H   UNL     1       1.130   2.868   0.007  0.00  0.00    +0.149 HD
BRANCH  21  25
ATOM     25  C   UNL     1       2.422   1.183  -0.015  0.00  0.00    +0.102 C 
BRANCH  25  26
ATOM     26  C   UNL     1       3.571   2.193  -0.020  0.00  0.00    +0.000 C 
BRANCH  26  27
ATOM     27  C   UNL     1       4.907   1.446  -0.037  0.00  0.00    -0.077 C 
BRANCH  27  37
ATOM     28  C   UNL     1       9.107   6.160   1.167  0.00  0.00    +0.000 A 
ATOM     29  C   UNL     1       7.881   6.508   1.704  0.00  0.00    +0.000 A 
ATOM     30  C   UNL     1       6.823   5.625   1.630  0.00  0.00    +0.002 A 
ATOM     31  C   UNL     1       6.981   4.389   1.019  0.00  0.00    -0.061 A 
ATOM     32  C   UNL     1       8.203   4.044   0.482  0.00  0.00    -0.048 A 
ATOM     33  C   UNL     1       9.266   4.931   0.558  0.00  0.00    +0.004 A 
ATOM     34  C   UNL     1       8.422   2.716  -0.196  0.00  0.00    +0.017 C 
ATOM     35  C   UNL     1       7.301   1.746   0.180  0.00  0.00    -0.074 C 
ATOM     36  C   UNL     1       5.798   3.458   0.967  0.00  0.00    -0.043 C 
ATOM     37  N   UNL     1       6.013   2.428  -0.063  0.00  0.00    +0.383 N 
ATOM     38  H   UNL     1       6.040   2.877  -0.986  0.00  0.00    -0.081 HD
ENDBRANCH  27  37
ENDBRANCH  26  27
ENDBRANCH  25  26
ENDBRANCH  21  25
ENDBRANCH   1  22
TORSDOF 5
