REMARK  Name = ZINC40317850
REMARK  14 active torsions:
REMARK  status: ('A' for Active; 'I' for Inactive)
REMARK    1  A    between atoms: C_1  and  C_2
REMARK    2  A    between atoms: C_2  and  N_3
REMARK    3  A    between atoms: N_3  and  C_4
REMARK    4  A    between atoms: N_3  and  C_6
REMARK    5  A    between atoms: C_4  and  C_5
REMARK    6  A    between atoms: C_9  and  C_12
REMARK    7  A    between atoms: C_12  and  N_13
REMARK    8  A    between atoms: N_13  and  C_14
REMARK    9  A    between atoms: N_13  and  C_28
REMARK   10  A    between atoms: C_14  and  C_15
REMARK   11  A    between atoms: C_15  and  C_17
REMARK   12  A    between atoms: C_15  and  O_27
REMARK   13  A    between atoms: C_17  and  O_18
REMARK   14  A    between atoms: O_18  and  C_19
REMARK                            x       y       z     vdW  Elec       q    Type
REMARK                         _______ _______ _______ _____ _____    ______ ____
ROOT
ATOM      1  N   UNL     1      -4.669  -0.425   5.295  0.00  0.00    +0.387 N 
ATOM      2  H   UNL     1      -5.191  -0.257   4.448  0.00  0.00    -0.081 HD
ENDROOT
BRANCH   1   3
ATOM      3  C   UNL     1      -3.524   0.493   5.356  0.00  0.00    -0.045 C 
ATOM      4  C   UNL     1      -2.888   0.622   3.962  0.00  0.00    +0.009 C 
ATOM      5  C   UNL     1      -1.510   1.319   4.073  0.00  0.00    +0.164 C 
ATOM      6  S   UNL     1      -0.964   0.865   5.769  0.00  0.00    -0.033 S 
ATOM      7  O   UNL     1      -0.843   2.048   6.548  0.00  0.00    -0.174 OA
ATOM      8  O   UNL     1       0.139  -0.027   5.677  0.00  0.00    -0.174 OA
ATOM      9  C   UNL     1      -2.449  -0.072   6.327  0.00  0.00    +0.151 C 
ENDBRANCH   1   3
BRANCH   1  10
ATOM     10  C   UNL     1      -4.186  -1.812   5.306  0.00  0.00    -0.042 C 
BRANCH  10  14
ATOM     11  C   UNL     1      -2.194  -2.657   1.620  0.00  0.00    +0.030 A 
ATOM     12  C   UNL     1      -1.456  -2.346   2.755  0.00  0.00    +0.023 A 
ATOM     13  C   UNL     1      -2.103  -2.074   3.945  0.00  0.00    +0.003 A 
ATOM     14  C   UNL     1      -3.484  -2.109   4.006  0.00  0.00    -0.064 A 
ATOM     15  C   UNL     1      -4.221  -2.418   2.878  0.00  0.00    +0.003 A 
ATOM     16  C   UNL     1      -3.581  -2.686   1.684  0.00  0.00    +0.023 A 
BRANCH  11  17
ATOM     17  N   UNL     1      -1.542  -2.933   0.416  0.00  0.00    -0.330 N 
BRANCH  17  19
ATOM     18  C   UNL     1       0.385  -1.490  -0.018  0.00  0.00    +0.024 C 
ATOM     19  C   UNL     1      -0.079  -2.901   0.350  0.00  0.00    +0.102 C 
ENDBRANCH  17  19
BRANCH  17  20
ATOM     20  C   UNL     1      -2.323  -3.253  -0.782  0.00  0.00    +0.102 C 
ATOM     21  C   UNL     1      -2.549  -4.765  -0.854  0.00  0.00    +0.024 C 
ENDBRANCH  17  20
ENDBRANCH  11  17
ENDBRANCH  10  14
ENDBRANCH   1  10
BRANCH   1  22
ATOM     22  C   UNL     1      -5.539  -0.200   6.458  0.00  0.00    -0.043 C 
BRANCH  22  23
ATOM     23  C   UNL     1      -6.173   1.189   6.359  0.00  0.00    +0.135 C 
BRANCH  23  24
ATOM     24  O   UNL     1      -6.983   1.261   5.184  0.00  0.00    -0.390 OA
ATOM     25  H   UNL     1      -7.703   0.616   5.163  0.00  0.00    +0.210 HD
ENDBRANCH  23  24
BRANCH  23  26
ATOM     26  C   UNL     1      -7.041   1.442   7.594  0.00  0.00    +0.258 C 
BRANCH  26  27
ATOM     27  O   UNL     1      -7.539   2.780   7.559  0.00  0.00    -0.488 OA
BRANCH  27  28
ATOM     28  C   UNL     1      -8.334   3.170   8.591  0.00  0.00    +0.139 A 
ATOM     29  C   UNL     1      -8.623   2.283   9.618  0.00  0.00    +0.048 A 
ATOM     30  C   UNL     1      -9.431   2.680  10.666  0.00  0.00    +0.023 A 
ATOM     31  C   UNL     1      -9.952   3.962  10.692  0.00  0.00    +0.043 A 
ATOM     32  C   UNL     1      -9.666   4.848   9.669  0.00  0.00    +0.043 A 
ATOM     33  C   UNL     1      -8.853   4.457   8.622  0.00  0.00    +0.084 A 
ATOM     34 CL   UNL     1      -8.487   5.571   7.342  0.00  0.00    -0.080 Cl
ATOM     35 CL   UNL     1     -10.968   4.458  12.010  0.00  0.00    -0.083 Cl
ENDBRANCH  27  28
ENDBRANCH  26  27
ENDBRANCH  23  26
ENDBRANCH  22  23
ENDBRANCH   1  22
TORSDOF 12
