REMARK  Name = ZINC05280411
REMARK  3 active torsions:
REMARK  status: ('A' for Active; 'I' for Inactive)
REMARK    1  A    between atoms: C_7  and  N_11
REMARK    2  A    between atoms: N_11  and  N_12
REMARK    3  A    between atoms: C_13  and  C_14
REMARK                            x       y       z     vdW  Elec       q    Type
REMARK                         _______ _______ _______ _____ _____    ______ ____
ROOT
ATOM      1  N   UNL     1       0.175  -2.867  -0.014  0.00  0.00    -0.220 N 
ATOM      2  H   UNL     1      -0.700  -2.447  -0.003  0.00  0.00    +0.176 HD
ENDROOT
BRANCH   1   9
ATOM      3  C   UNL     1      -0.016   1.360   0.009  0.00  0.00    +0.001 A 
ATOM      4  C   UNL     1       1.168   2.091   0.002  0.00  0.00    +0.002 A 
ATOM      5  C   UNL     1       2.380   1.466  -0.013  0.00  0.00    +0.028 A 
ATOM      6  C   UNL     1       2.436   0.066  -0.021  0.00  0.00    +0.076 A 
ATOM      7  C   UNL     1       1.229  -0.676  -0.013  0.00  0.00    +0.042 A 
ATOM      8  C   UNL     1       0.002  -0.004   0.002  0.00  0.00    +0.013 A 
ATOM      9  C   UNL     1       1.313  -2.090  -0.021  0.00  0.00    +0.149 A 
ATOM     10  N   UNL     1       2.518  -2.646  -0.035  0.00  0.00    -0.219 NA
ATOM     11  C   UNL     1       3.618  -1.911  -0.042  0.00  0.00    +0.224 A 
ATOM     12  N   UNL     1       3.600  -0.599  -0.035  0.00  0.00    -0.235 NA
ENDBRANCH   1   9
BRANCH   1  13
ATOM     13  N   UNL     1       0.280  -4.264  -0.022  0.00  0.00    -0.189 NA
ATOM     14  C   UNL     1      -0.792  -4.996  -0.015  0.00  0.00    +0.138 C 
BRANCH  14  15
ATOM     15  C   UNL     1      -0.681  -6.467  -0.023  0.00  0.00    -0.004 A 
ATOM     16  C   UNL     1       0.577  -7.075  -0.033  0.00  0.00    +0.011 A 
ATOM     17  C   UNL     1       0.675  -8.451  -0.040  0.00  0.00    +0.022 A 
ATOM     18  C   UNL     1      -0.471  -9.229  -0.038  0.00  0.00    +0.059 A 
ATOM     19  C   UNL     1      -1.721  -8.633  -0.029  0.00  0.00    +0.060 A 
ATOM     20  C   UNL     1      -1.833  -7.257  -0.016  0.00  0.00    +0.031 A 
ATOM     21 CL   UNL     1      -3.151  -9.618  -0.027  0.00  0.00    -0.082 Cl
ATOM     22 CL   UNL     1      -0.339 -10.960  -0.048  0.00  0.00    -0.082 Cl
ENDBRANCH  14  15
ENDBRANCH   1  13
TORSDOF 3
