REMARK  Name = ZINC16693810
REMARK  5 active torsions:
REMARK  status: ('A' for Active; 'I' for Inactive)
REMARK    1  A    between atoms: C_1  and  C_2
REMARK    2  A    between atoms: C_3  and  C_24
REMARK    3  A    between atoms: N_6  and  C_23
REMARK    4  A    between atoms: C_10  and  N_11
REMARK    5  A    between atoms: N_14  and  C_15
REMARK                            x       y       z     vdW  Elec       q    Type
REMARK                         _______ _______ _______ _____ _____    ______ ____
ROOT
ATOM      1  N   UNL     1      -0.076  -0.771   3.590  0.00  0.00    -0.275 N 
ATOM      2  C   UNL     1      -0.159  -0.123   4.768  0.00  0.00    +0.308 C 
ATOM      3  O   UNL     1      -0.165   1.093   4.794  0.00  0.00    -0.252 OA
ATOM      4  N   UNL     1      -0.236  -0.821   5.918  0.00  0.00    -0.268 N 
ATOM      5  H   UNL     1      -0.071  -1.741   3.569  0.00  0.00    +0.156 HD
ATOM      6  H   UNL     1      -0.147  -1.787   5.906  0.00  0.00    +0.156 HD
ENDROOT
BRANCH   1  16
ATOM      7  C   UNL     1      -0.074   1.502   0.009  0.00  0.00    +0.046 C 
ATOM      8  C   UNL     1      -0.056  -0.005   0.000  0.00  0.00    -0.015 C 
ATOM      9  C   UNL     1      -0.069  -0.704  -1.196  0.00  0.00    +0.118 C 
ATOM     10  C   UNL     1      -0.051  -2.169  -1.178  0.00  0.00    +0.263 C 
ATOM     11  O   UNL     1      -0.062  -2.783  -2.229  0.00  0.00    -0.269 OA
ATOM     12  N   UNL     1      -0.022  -2.844  -0.016  0.00  0.00    -0.237 N 
ATOM     13  C   UNL     1      -0.009  -2.202   1.166  0.00  0.00    +0.254 C 
ATOM     14  O   UNL     1       0.018  -2.840   2.201  0.00  0.00    -0.270 OA
ATOM     15  C   UNL     1      -0.019  -0.732   1.213  0.00  0.00    +0.055 C 
ATOM     16  C   UNL     1       0.001  -0.068   2.431  0.00  0.00    +0.089 C 
ATOM     17  C   UNL     1      -0.005  -4.308  -0.037  0.00  0.00    +0.142 C 
BRANCH   9  18
ATOM     18  C   UNL     1      -0.101   0.001  -2.442  0.00  0.00    +0.105 C 
ATOM     19  N   UNL     1      -0.126   0.560  -3.431  0.00  0.00    -0.191 NA
ENDBRANCH   9  18
ENDBRANCH   1  16
BRANCH   4  20
ATOM     20  C   UNL     1      -0.443  -0.153   7.130  0.00  0.00    +0.055 A 
ATOM     21  C   UNL     1      -1.066   1.088   7.143  0.00  0.00    +0.025 A 
ATOM     22  C   UNL     1      -1.270   1.745   8.341  0.00  0.00    +0.003 A 
ATOM     23  C   UNL     1      -0.856   1.170   9.527  0.00  0.00    +0.021 A 
ATOM     24  C   UNL     1      -0.234  -0.067   9.520  0.00  0.00    +0.061 A 
ATOM     25  C   UNL     1      -0.032  -0.733   8.324  0.00  0.00    +0.080 A 
ATOM     26 CL   UNL     1       0.741  -2.287   8.315  0.00  0.00    -0.080 Cl
ATOM     27 CL   UNL     1       0.286  -0.785  11.012  0.00  0.00    -0.082 Cl
ENDBRANCH   4  20
TORSDOF 3
