REMARK  Name = ZINC14026891
REMARK  8 active torsions:
REMARK  status: ('A' for Active; 'I' for Inactive)
REMARK    1  A    between atoms: C_1  and  C_2
REMARK    2  A    between atoms: C_2  and  C_4
REMARK    3  A    between atoms: C_2  and  O_20
REMARK    4  A    between atoms: N_6  and  N_7
REMARK    5  A    between atoms: C_8  and  C_10
REMARK    6  A    between atoms: C_10  and  O_11
REMARK    7  A    between atoms: O_11  and  C_12
REMARK    8  A    between atoms: O_20  and  C_21
REMARK                            x       y       z     vdW  Elec       q    Type
REMARK                         _______ _______ _______ _____ _____    ______ ____
ROOT
ATOM      1  C   UNL     1       3.095   6.500   0.174  0.00  0.00    +0.270 C 
ATOM      2  O   UNL     1       4.233   6.133  -0.030  0.00  0.00    -0.270 OA
ATOM      3  N   UNL     1       2.116   5.590   0.352  0.00  0.00    -0.231 N 
ATOM      4  H   UNL     1       1.206   5.884   0.515  0.00  0.00    +0.173 HD
ENDROOT
BRANCH   3   5
ATOM      5  N   UNL     1       2.413   4.222   0.302  0.00  0.00    -0.231 N 
ATOM      6  C   UNL     1       1.434   3.313   0.480  0.00  0.00    +0.267 C 
ATOM      7  O   UNL     1       0.296   3.680   0.684  0.00  0.00    -0.271 OA
ATOM      8  H   UNL     1       3.323   3.929   0.139  0.00  0.00    +0.173 HD
BRANCH   6   9
ATOM      9  C   UNL     1       1.754   1.841   0.426  0.00  0.00    +0.326 C 
BRANCH   9  10
ATOM     10  O   UNL     1       0.560   1.087   0.642  0.00  0.00    -0.482 OA
BRANCH  10  11
ATOM     11  C   UNL     1       0.674  -0.268   0.625  0.00  0.00    +0.135 A 
ATOM     12  C   UNL     1       1.910  -0.858   0.404  0.00  0.00    +0.048 A 
ATOM     13  C   UNL     1       2.024  -2.234   0.386  0.00  0.00    +0.019 A 
ATOM     14  C   UNL     1       0.907  -3.025   0.589  0.00  0.00    +0.019 A 
ATOM     15  C   UNL     1      -0.326  -2.439   0.809  0.00  0.00    +0.034 A 
ATOM     16  C   UNL     1      -0.444  -1.062   0.833  0.00  0.00    +0.061 A 
ATOM     17 BR   UNL     1      -2.129  -0.262   1.143  0.00  0.00    -0.046 Br
ATOM     18 BR   UNL     1       1.067  -4.909   0.565  0.00  0.00    -0.050 Br
ENDBRANCH  10  11
ENDBRANCH   9  10
ENDBRANCH   6   9
ENDBRANCH   3   5
BRANCH   1  20
ATOM     19  C   UNL     1       1.850   8.335  -0.934  0.00  0.00    +0.062 C 
ATOM     20  C   UNL     1       2.776   7.971   0.228  0.00  0.00    +0.257 C 
BRANCH  20  21
ATOM     21  O   UNL     1       3.986   8.725   0.128  0.00  0.00    -0.478 OA
BRANCH  21  22
ATOM     22  C   UNL     1       3.980   9.975   0.664  0.00  0.00    +0.140 A 
ATOM     23  C   UNL     1       2.804  10.508   1.171  0.00  0.00    +0.047 A 
ATOM     24  C   UNL     1       2.801  11.778   1.714  0.00  0.00    +0.004 A 
ATOM     25  C   UNL     1       3.969  12.518   1.754  0.00  0.00    +0.002 A 
ATOM     26  C   UNL     1       5.143  11.989   1.250  0.00  0.00    +0.023 A 
ATOM     27  C   UNL     1       5.152  10.717   0.710  0.00  0.00    +0.083 A 
ATOM     28 CL   UNL     1       6.628  10.050   0.083  0.00  0.00    -0.080 Cl
ENDBRANCH  21  22
ENDBRANCH  20  21
ENDBRANCH   1  20
TORSDOF 7
