REMARK  Name = ZINC35566396
REMARK  7 active torsions:
REMARK  status: ('A' for Active; 'I' for Inactive)
REMARK    1  A    between atoms: C_1  and  C_2
REMARK    2  A    between atoms: C_12  and  C_28
REMARK    3  A    between atoms: C_14  and  C_19
REMARK    4  A    between atoms: C_19  and  C_21
REMARK    5  A    between atoms: C_22  and  C_27
REMARK    6  A    between atoms: C_24  and  C_26
REMARK    7  A    between atoms: C_32  and  N_34
REMARK                            x       y       z     vdW  Elec       q    Type
REMARK                         _______ _______ _______ _____ _____    ______ ____
ROOT
ATOM      1  C   UNL     1       0.084   1.592  -1.127  0.00  0.00    +0.044 C 
ATOM      2  C   UNL     1       0.190   0.098  -0.963  0.00  0.00    -0.049 A 
ATOM      3  C   UNL     1       0.599  -0.696  -2.025  0.00  0.00    +0.005 A 
ATOM      4  C   UNL     1       0.704  -2.057  -1.904  0.00  0.00    +0.029 A 
ATOM      5  C   UNL     1       0.396  -2.699  -0.682  0.00  0.00    +0.080 A 
ATOM      6  C   UNL     1      -0.018  -1.859   0.378  0.00  0.00    +0.041 A 
ATOM      7  C   UNL     1      -0.114  -0.496   0.248  0.00  0.00    +0.020 A 
ATOM      8  S   UNL     1      -0.300  -3.020   1.692  0.00  0.00    -0.052 S 
ATOM      9  C   UNL     1       0.133  -4.497   0.784  0.00  0.00    +0.169 A 
ATOM     10  N   UNL     1       0.446  -4.018  -0.397  0.00  0.00    -0.224 NA
ATOM     11  N   UNL     1       0.138  -5.812   1.217  0.00  0.00    -0.232 N 
ATOM     12  C   UNL     1       0.513  -6.983   0.416  0.00  0.00    +0.152 C 
ATOM     13  C   UNL     1       0.356  -8.181   1.324  0.00  0.00    +0.077 C 
ATOM     14  C   UNL     1      -0.067  -7.710   2.520  0.00  0.00    +0.250 C 
ATOM     15  C   UNL     1      -0.195  -6.242   2.447  0.00  0.00    +0.293 C 
ATOM     16  O   UNL     1      -0.550  -5.527   3.363  0.00  0.00    -0.266 OA
ATOM     17  O   UNL     1      -0.328  -8.467   3.612  0.00  0.00    -0.282 OA
ENDROOT
BRANCH  12  18
ATOM     18  C   UNL     1       1.943  -6.862  -0.042  0.00  0.00    -0.020 A 
ATOM     19  C   UNL     1       2.924  -6.472   0.851  0.00  0.00    +0.006 A 
ATOM     20  C   UNL     1       4.236  -6.361   0.431  0.00  0.00    +0.003 A 
ATOM     21  C   UNL     1       4.568  -6.640  -0.882  0.00  0.00    +0.033 A 
ATOM     22  C   UNL     1       3.587  -7.030  -1.775  0.00  0.00    +0.127 A 
ATOM     23  C   UNL     1       2.275  -7.145  -1.353  0.00  0.00    +0.038 A 
BRANCH  22  24
ATOM     24  N   UNL     1       3.942  -7.328  -3.181  0.00  0.00    +0.056 N 
ATOM     25  O   UNL     1       5.096  -7.275  -3.537  0.00  0.00    -0.126 OA
ATOM     26  O   UNL     1       3.078  -7.624  -3.973  0.00  0.00    -0.126 OA
ENDBRANCH  22  24
ENDBRANCH  12  18
BRANCH  13  27
ATOM     27  C   UNL     1       0.613  -9.583   0.976  0.00  0.00    +0.203 C 
ATOM     28  O   UNL     1       1.526 -10.186   1.512  0.00  0.00    -0.286 OA
BRANCH  27  29
ATOM     29  C   UNL     1      -0.229 -10.258  -0.016  0.00  0.00    +0.082 A 
ATOM     30  C   UNL     1      -0.196 -11.575  -0.462  0.00  0.00    +0.057 A 
ATOM     31  N   UNL     1      -1.083 -11.901  -1.368  0.00  0.00    -0.249 NA
ATOM     32  C   UNL     1      -1.953 -11.031  -1.828  0.00  0.00    +0.076 A 
ATOM     33  S   UNL     1      -1.588  -9.621  -0.984  0.00  0.00    -0.069 S 
ATOM     34  C   UNL     1      -3.029 -11.246  -2.862  0.00  0.00    +0.073 C 
ATOM     35  C   UNL     1       0.804 -12.570   0.068  0.00  0.00    +0.067 C 
ENDBRANCH  27  29
ENDBRANCH  13  27
TORSDOF 4
