REMARK  Name = ZINC20898532
REMARK  6 active torsions:
REMARK  status: ('A' for Active; 'I' for Inactive)
REMARK    1  A    between atoms: C_1  and  C_2
REMARK    2  A    between atoms: C_5  and  C_9
REMARK    3  A    between atoms: C_6  and  O_8
REMARK    4  A    between atoms: C_14  and  C_23
REMARK    5  A    between atoms: N_31  and  C_36
REMARK    6  A    between atoms: N_34  and  C_35
REMARK                            x       y       z     vdW  Elec       q    Type
REMARK                         _______ _______ _______ _____ _____    ______ ____
ROOT
ATOM      1  C   UNL     1       1.995  -3.156   0.224  0.00  0.00    +0.154 C 
ATOM      2  C   UNL     1       0.974  -2.045   0.105  0.00  0.00    +0.073 A 
ATOM      3  C   UNL     1       1.163  -0.742  -0.041  0.00  0.00    +0.082 A 
ATOM      4  C   UNL     1      -0.184  -0.118  -0.071  0.00  0.00    +0.089 A 
ATOM      5  C   UNL     1      -1.091  -1.140   0.066  0.00  0.00    +0.069 A 
ATOM      6  N   UNL     1      -0.389  -2.302   0.152  0.00  0.00    -0.306 N 
ATOM      7  C   UNL     1      -0.877  -3.611   0.282  0.00  0.00    +0.068 A 
ATOM      8  C   UNL     1      -2.206  -3.863   0.565  0.00  0.00    +0.028 A 
ATOM      9  C   UNL     1      -2.642  -5.170   0.703  0.00  0.00    +0.002 A 
ATOM     10  C   UNL     1      -1.751  -6.218   0.560  0.00  0.00    +0.002 A 
ATOM     11  C   UNL     1      -0.422  -5.972   0.271  0.00  0.00    +0.025 A 
ATOM     12  C   UNL     1       0.024  -4.668   0.122  0.00  0.00    +0.052 A 
ATOM     13  N   UNL     1       1.357  -4.406  -0.215  0.00  0.00    -0.330 N 
ATOM     14  C   UNL     1      -0.297   1.336  -0.223  0.00  0.00    +0.266 A 
ATOM     15  O   UNL     1      -1.371   1.905  -0.257  0.00  0.00    -0.267 OA
ATOM     16  N   UNL     1       0.881   2.003  -0.330  0.00  0.00    -0.263 N 
ATOM     17  C   UNL     1       2.078   1.409  -0.300  0.00  0.00    +0.332 A 
ATOM     18  O   UNL     1       3.057   2.123  -0.406  0.00  0.00    -0.246 OA
ATOM     19  N   UNL     1       2.292   0.082  -0.162  0.00  0.00    -0.294 N 
ATOM     20  C   UNL     1       3.648  -0.474  -0.138  0.00  0.00    +0.154 C 
ATOM     21  C   UNL     1       0.838   3.459  -0.486  0.00  0.00    +0.157 C 
ATOM     22  H   UNL     1       1.927  -5.137  -0.808  0.00  0.00    +0.147 HD
ENDROOT
BRANCH   1  27
ATOM     23  C   UNL     1       3.703  -3.657   5.725  0.00  0.00    +0.044 C 
ATOM     24  C   UNL     1       3.260  -3.527   4.290  0.00  0.00    -0.047 A 
ATOM     25  C   UNL     1       2.125  -2.801   3.980  0.00  0.00    +0.004 A 
ATOM     26  C   UNL     1       1.717  -2.681   2.665  0.00  0.00    +0.010 A 
ATOM     27  C   UNL     1       2.442  -3.287   1.657  0.00  0.00    +0.020 A 
ATOM     28  C   UNL     1       3.578  -4.020   1.966  0.00  0.00    +0.122 A 
ATOM     29  C   UNL     1       3.989  -4.135   3.286  0.00  0.00    +0.049 A 
BRANCH  28  30
ATOM     30  O   UNL     1       4.290  -4.622   0.977  0.00  0.00    -0.506 OA
ATOM     31  H   UNL     1       5.190  -5.203   1.223  0.00  0.00    +0.292 HD
ENDBRANCH  28  30
ENDBRANCH   1  27
BRANCH   5  32
ATOM     32  C   UNL     1      -2.559  -1.002   0.112  0.00  0.00    -0.000 A 
ATOM     33  C   UNL     1      -3.356  -1.669  -0.822  0.00  0.00    +0.010 A 
ATOM     34  C   UNL     1      -4.728  -1.540  -0.770  0.00  0.00    +0.001 A 
ATOM     35  C   UNL     1      -5.315  -0.743   0.198  0.00  0.00    +0.000 A 
ATOM     36  C   UNL     1      -4.532  -0.076   1.122  0.00  0.00    +0.001 A 
ATOM     37  C   UNL     1      -3.159  -0.200   1.086  0.00  0.00    +0.010 A 
ENDBRANCH   5  32
TORSDOF 3
