REMARK  Name = ZINC34868406
REMARK  12 active torsions:
REMARK  status: ('A' for Active; 'I' for Inactive)
REMARK    1  A    between atoms: C_1  and  C_2
REMARK    2  A    between atoms: C_2  and  O_3
REMARK    3  A    between atoms: O_3  and  C_4
REMARK    4  A    between atoms: C_6  and  N_35
REMARK    5  A    between atoms: C_8  and  C_11
REMARK    6  A    between atoms: C_9  and  O_10
REMARK    7  A    between atoms: C_18  and  C_33
REMARK    8  A    between atoms: C_19  and  C_28
REMARK    9  A    between atoms: C_20  and  C_22
REMARK   10  A    between atoms: C_28  and  O_30
REMARK   11  A    between atoms: O_30  and  C_31
REMARK   12  A    between atoms: C_31  and  C_32
REMARK                            x       y       z     vdW  Elec       q    Type
REMARK                         _______ _______ _______ _____ _____    ______ ____
ROOT
ATOM      1  C   UNL     1       2.254  -4.316   3.719  0.00  0.00    +0.032 C 
ATOM      2  C   UNL     1       2.268  -5.662   3.907  0.00  0.00    +0.081 A 
ATOM      3  C   UNL     1       2.794  -6.441   5.036  0.00  0.00    +0.268 A 
ATOM      4  O   UNL     1       3.312  -5.891   5.990  0.00  0.00    -0.266 OA
ATOM      5  N   UNL     1       2.687  -7.775   4.983  0.00  0.00    -0.275 N 
ATOM      6  C   UNL     1       2.092  -8.346   3.882  0.00  0.00    +0.178 A 
ATOM      7  N   UNL     1       1.933  -9.636   3.721  0.00  0.00    -0.228 NA
ATOM      8  C   UNL     1       2.320 -10.561   4.591  0.00  0.00    +0.053 C 
ATOM      9  C   UNL     1       2.934 -10.204   5.758  0.00  0.00    +0.085 C 
ATOM     10  C   UNL     1       3.158  -8.732   6.023  0.00  0.00    +0.162 C 
ATOM     11  C   UNL     1       2.078 -12.017   4.289  0.00  0.00    +0.066 C 
ATOM     12  S   UNL     1       1.645  -6.962   2.853  0.00  0.00    -0.046 S 
ENDROOT
BRANCH   1  17
ATOM     13  C   UNL     1       1.048  -1.896   1.106  0.00  0.00    +0.164 A 
ATOM     14  C   UNL     1       0.074  -2.655   0.477  0.00  0.00    +0.082 A 
ATOM     15  C   UNL     1      -0.190  -3.948   0.900  0.00  0.00    +0.130 A 
ATOM     16  C   UNL     1       0.514  -4.493   1.951  0.00  0.00    +0.044 A 
ATOM     17  C   UNL     1       1.502  -3.740   2.598  0.00  0.00    +0.023 A 
ATOM     18  C   UNL     1       1.772  -2.433   2.165  0.00  0.00    +0.166 A 
BRANCH  15  19
ATOM     19  N   UNL     1      -1.234  -4.746   0.219  0.00  0.00    +0.057 N 
ATOM     20  O   UNL     1      -1.853  -4.271  -0.704  0.00  0.00    -0.126 OA
ATOM     21  O   UNL     1      -1.466  -5.875   0.586  0.00  0.00    -0.126 OA
ENDBRANCH  15  19
BRANCH  18  22
ATOM     22  O   UNL     1       2.731  -1.694   2.780  0.00  0.00    -0.503 OA
ATOM     23  H   UNL     1       2.407  -1.171   3.526  0.00  0.00    +0.292 HD
ENDBRANCH  18  22
BRANCH  13  24
ATOM     24  O   UNL     1       1.300  -0.628   0.684  0.00  0.00    -0.488 OA
BRANCH  24  26
ATOM     25  C   UNL     1       0.942   1.292  -0.740  0.00  0.00    +0.048 C 
ATOM     26  C   UNL     1       0.519  -0.141  -0.409  0.00  0.00    +0.226 C 
ENDBRANCH  24  26
ENDBRANCH  13  24
ENDBRANCH   1  17
BRANCH  10  27
ATOM     27  C   UNL     1       2.470  -8.385   7.318  0.00  0.00    -0.020 A 
ATOM     28  C   UNL     1       1.136  -8.021   7.317  0.00  0.00    +0.006 A 
ATOM     29  C   UNL     1       0.505  -7.703   8.505  0.00  0.00    +0.000 A 
ATOM     30  C   UNL     1       1.208  -7.749   9.695  0.00  0.00    +0.000 A 
ATOM     31  C   UNL     1       2.541  -8.114   9.696  0.00  0.00    +0.000 A 
ATOM     32  C   UNL     1       3.171  -8.436   8.509  0.00  0.00    +0.006 A 
ENDBRANCH  10  27
BRANCH   9  33
ATOM     33  C   UNL     1       3.347 -11.175   6.684  0.00  0.00    +0.339 C 
ATOM     34  O   UNL     1       3.158 -12.356   6.453  0.00  0.00    -0.245 OA
BRANCH  33  35
ATOM     35  O   UNL     1       3.953 -10.800   7.832  0.00  0.00    -0.462 OA
BRANCH  35  36
ATOM     36  C   UNL     1       4.346 -11.842   8.728  0.00  0.00    +0.229 C 
ATOM     37  C   UNL     1       5.010 -11.229   9.963  0.00  0.00    +0.048 C 
ENDBRANCH  35  36
ENDBRANCH  33  35
ENDBRANCH   9  33
TORSDOF 9
