REMARK  Name = ZINC14943662
REMARK  8 active torsions:
REMARK  status: ('A' for Active; 'I' for Inactive)
REMARK    1  A    between atoms: C_1  and  S_2
REMARK    2  A    between atoms: S_2  and  C_3
REMARK    3  A    between atoms: C_3  and  C_4
REMARK    4  A    between atoms: C_4  and  C_5
REMARK    5  A    between atoms: N_13  and  C_16
REMARK    6  A    between atoms: N_31  and  C_34
REMARK    7  A    between atoms: C_34  and  C_35
REMARK    8  A    between atoms: C_35  and  C_36
REMARK                            x       y       z     vdW  Elec       q    Type
REMARK                         _______ _______ _______ _____ _____    ______ ____
ROOT
ATOM      1  C   UNL     1       1.455  -2.508  -2.763  0.00  0.00    +0.068 C 
ATOM      2  C   UNL     1       1.738  -3.984  -3.114  0.00  0.00    +0.107 C 
ATOM      3  C   UNL     1       3.117  -3.964  -3.832  0.00  0.00    +0.123 C 
ATOM      4  C   UNL     1       2.781  -4.387  -5.244  0.00  0.00    +0.233 C 
ATOM      5  O   UNL     1       3.578  -4.498  -6.150  0.00  0.00    -0.274 OA
ATOM      6  N   UNL     1       1.467  -4.620  -5.338  0.00  0.00    -0.210 N 
ATOM      7  C   UNL     1       0.774  -4.431  -4.190  0.00  0.00    +0.232 C 
ATOM      8  O   UNL     1      -0.418  -4.589  -4.040  0.00  0.00    -0.274 OA
ATOM      9  C   UNL     1       3.547  -2.493  -3.804  0.00  0.00    +0.136 C 
ATOM     10  N   UNL     1       2.793  -1.862  -2.711  0.00  0.00    -0.295 NA
ATOM     11  C   UNL     1       5.032  -2.357  -3.618  0.00  0.00    +0.004 A 
ATOM     12  C   UNL     1       5.906  -2.767  -2.636  0.00  0.00    +0.008 A 
ATOM     13  C   UNL     1       7.255  -2.485  -2.748  0.00  0.00    +0.000 A 
ATOM     14  C   UNL     1       7.724  -1.791  -3.848  0.00  0.00    +0.002 A 
ATOM     15  C   UNL     1       6.853  -1.378  -4.835  0.00  0.00    +0.024 A 
ATOM     16  C   UNL     1       5.493  -1.658  -4.730  0.00  0.00    +0.042 A 
ATOM     17  N   UNL     1       4.429  -1.352  -5.582  0.00  0.00    -0.269 N 
ATOM     18  C   UNL     1       3.253  -1.808  -5.111  0.00  0.00    +0.245 C 
ATOM     19  O   UNL     1       2.167  -1.689  -5.637  0.00  0.00    -0.273 OA
ATOM     20  H   UNL     1       2.719  -0.864  -2.844  0.00  0.00    +0.123 HD
ENDROOT
BRANCH   6  21
ATOM     21  C   UNL     1       0.853  -5.033  -6.529  0.00  0.00    +0.044 A 
ATOM     22  C   UNL     1      -0.028  -4.186  -7.187  0.00  0.00    +0.025 A 
ATOM     23  C   UNL     1      -0.632  -4.595  -8.360  0.00  0.00    +0.022 A 
ATOM     24  C   UNL     1      -0.359  -5.848  -8.879  0.00  0.00    +0.041 A 
ATOM     25  C   UNL     1       0.518  -6.695  -8.224  0.00  0.00    +0.022 A 
ATOM     26  C   UNL     1       1.129  -6.288  -7.054  0.00  0.00    +0.025 A 
ATOM     27 CL   UNL     1      -1.119  -6.360 -10.354  0.00  0.00    -0.084 Cl
ENDBRANCH   6  21
BRANCH   1  28
ATOM     28  C   UNL     1       0.762  -2.407  -1.403  0.00  0.00    +0.030 C 
BRANCH  28  29
ATOM     29  C   UNL     1       0.413  -0.946  -1.114  0.00  0.00    +0.070 C 
BRANCH  29  31
ATOM     30  C   UNL     1      -0.750   0.944   0.687  0.00  0.00    +0.084 C 
ATOM     31  S   UNL     1      -0.408  -0.827   0.499  0.00  0.00    -0.164 S 
ENDBRANCH  29  31
ENDBRANCH  28  29
ENDBRANCH   1  28
BRANCH  17  32
ATOM     32  C   UNL     1       4.576  -0.619  -6.842  0.00  0.00    +0.115 C 
BRANCH  32  33
ATOM     33  C   UNL     1       4.829  -1.609  -7.981  0.00  0.00    +0.035 C 
BRANCH  33  34
ATOM     34  C   UNL     1       4.983  -0.844  -9.297  0.00  0.00    +0.110 C 
ATOM     35 CL   UNL     1       5.281  -2.011 -10.639  0.00  0.00    -0.125 Cl
ENDBRANCH  33  34
ENDBRANCH  32  33
ENDBRANCH  17  32
TORSDOF 7
