REMARK  Name = ZINC57608506
REMARK  10 active torsions:
REMARK  status: ('A' for Active; 'I' for Inactive)
REMARK    1  A    between atoms: C_1  and  C_2
REMARK    2  A    between atoms: C_4  and  C_41
REMARK    3  A    between atoms: C_9  and  C_14
REMARK    4  A    between atoms: C_14  and  C_16
REMARK    5  A    between atoms: C_14  and  N_27
REMARK    6  A    between atoms: N_20  and  C_21
REMARK    7  A    between atoms: N_27  and  C_28
REMARK    8  A    between atoms: N_27  and  C_35
REMARK    9  A    between atoms: C_28  and  C_29
REMARK   10  A    between atoms: C_35  and  C_36
REMARK                            x       y       z     vdW  Elec       q    Type
REMARK                         _______ _______ _______ _____ _____    ______ ____
ROOT
ATOM      1  C   UNL     1      -0.052  -4.802   3.116  0.00  0.00    +0.163 C 
ENDROOT
BRANCH   1  10
ATOM      2  C   UNL     1       0.310   1.903  -0.129  0.00  0.00    +0.044 C 
ATOM      3  C   UNL     1       0.115   0.411  -0.213  0.00  0.00    -0.050 A 
ATOM      4  C   UNL     1      -0.133  -0.182  -1.444  0.00  0.00    +0.008 A 
ATOM      5  C   UNL     1      -0.315  -1.544  -1.544  0.00  0.00    -0.026 A 
ATOM      6  C   UNL     1      -0.250  -2.335  -0.401  0.00  0.00    +0.052 A 
ATOM      7  C   UNL     1       0.002  -1.730   0.844  0.00  0.00    -0.001 A 
ATOM      8  C   UNL     1       0.189  -0.346   0.921  0.00  0.00    +0.013 A 
ATOM      9  C   UNL     1       0.069  -2.571   2.041  0.00  0.00    +0.021 A 
ATOM     10  C   UNL     1      -0.115  -3.908   1.905  0.00  0.00    +0.042 A 
ATOM     11  C   UNL     1      -0.364  -4.465   0.632  0.00  0.00    +0.254 A 
ATOM     12  O   UNL     1      -0.526  -5.668   0.532  0.00  0.00    -0.268 OA
ATOM     13  N   UNL     1      -0.427  -3.700  -0.472  0.00  0.00    -0.322 N 
ATOM     14  H   UNL     1      -0.601  -4.116  -1.332  0.00  0.00    +0.169 HD
ATOM     15  C   UNL     1      -0.584  -2.175  -2.886  0.00  0.00    +0.046 C 
ENDBRANCH   1  10
BRANCH   1  16
ATOM     16  C   UNL     1       1.126  -5.733   2.993  0.00  0.00    +0.173 A 
ATOM     17  N   UNL     1       1.117  -6.945   2.494  0.00  0.00    -0.111 NA
ATOM     18  N   UNL     1       2.315  -7.414   2.564  0.00  0.00    -0.023 NA
ATOM     19  N   UNL     1       3.088  -6.532   3.095  0.00  0.00    -0.044 NA
ATOM     20  N   UNL     1       2.394  -5.480   3.368  0.00  0.00    -0.224 N 
BRANCH  20  21
ATOM     21  C   UNL     1       2.891  -4.244   3.976  0.00  0.00    +0.111 C 
ATOM     22  C   UNL     1       3.840  -3.542   3.003  0.00  0.00    +0.027 C 
ATOM     23  C   UNL     1       4.359  -2.251   3.638  0.00  0.00    +0.002 C 
ATOM     24  C   UNL     1       5.108  -2.583   4.931  0.00  0.00    +0.000 C 
ATOM     25  C   UNL     1       4.158  -3.284   5.904  0.00  0.00    +0.002 C 
ATOM     26  C   UNL     1       3.639  -4.576   5.269  0.00  0.00    +0.027 C 
ENDBRANCH  20  21
ENDBRANCH   1  16
BRANCH   1  27
ATOM     27  N   UNL     1      -1.290  -5.587   3.210  0.00  0.00    -0.277 NA
BRANCH  27  28
ATOM     28  C   UNL     1      -1.286  -6.436   4.409  0.00  0.00    +0.121 C 
BRANCH  28  29
ATOM     29  C   UNL     1      -1.082  -5.577   5.631  0.00  0.00    -0.033 A 
ATOM     30  C   UNL     1       0.191  -5.373   6.128  0.00  0.00    +0.005 A 
ATOM     31  C   UNL     1       0.378  -4.586   7.249  0.00  0.00    +0.000 A 
ATOM     32  C   UNL     1      -0.709  -4.002   7.872  0.00  0.00    +0.000 A 
ATOM     33  C   UNL     1      -1.983  -4.205   7.374  0.00  0.00    +0.000 A 
ATOM     34  C   UNL     1      -2.169  -4.989   6.251  0.00  0.00    +0.005 A 
ENDBRANCH  28  29
ENDBRANCH  27  28
BRANCH  27  35
ATOM     35  C   UNL     1      -2.470  -4.714   3.187  0.00  0.00    +0.160 C 
BRANCH  35  36
ATOM     36  C   UNL     1      -3.696  -5.534   2.876  0.00  0.00    +0.119 A 
ATOM     37  C   UNL     1      -4.546  -6.053   3.781  0.00  0.00    +0.046 A 
ATOM     38  C   UNL     1      -5.545  -6.742   3.056  0.00  0.00    +0.041 A 
ATOM     39  C   UNL     1      -5.246  -6.604   1.752  0.00  0.00    +0.195 A 
ATOM     40  O   UNL     1      -4.128  -5.866   1.649  0.00  0.00    -0.467 OA
ENDBRANCH  35  36
ENDBRANCH  27  35
ENDBRANCH   1  27
TORSDOF 8
