REMARK  Name = ZINC10273543
REMARK  7 active torsions:
REMARK  status: ('A' for Active; 'I' for Inactive)
REMARK    1  A    between atoms: C_1  and  O_2
REMARK    2  A    between atoms: O_2  and  C_3
REMARK    3  A    between atoms: C_3  and  C_5
REMARK    4  A    between atoms: C_6  and  C_20
REMARK    5  A    between atoms: C_11  and  C_13
REMARK    6  A    between atoms: C_20  and  S_21
REMARK    7  A    between atoms: S_21  and  C_24
REMARK                            x       y       z     vdW  Elec       q    Type
REMARK                         _______ _______ _______ _____ _____    ______ ____
ROOT
ATOM      1  C   UNL     1       3.086   0.813   1.289  0.00  0.00    +0.080 C 
ATOM      2  C   UNL     1       4.151   1.562   1.648  0.00  0.00    +0.045 C 
ATOM      3  N   UNL     1       4.814   2.328   0.733  0.00  0.00    -0.271 N 
ATOM      4  C   UNL     1       4.476   2.400  -0.560  0.00  0.00    +0.304 C 
ATOM      5  O   UNL     1       5.127   3.111  -1.300  0.00  0.00    -0.252 OA
ATOM      6  N   UNL     1       3.436   1.710  -1.069  0.00  0.00    -0.288 N 
ATOM      7  C   UNL     1       2.653   0.852  -0.163  0.00  0.00    +0.144 C 
ATOM      8  H   UNL     1       5.573   2.850   1.037  0.00  0.00    +0.156 HD
ATOM      9  H   UNL     1       3.208   1.776  -2.009  0.00  0.00    +0.151 HD
ENDROOT
BRANCH   7  10
ATOM     10  C   UNL     1       1.220   1.314  -0.208  0.00  0.00    -0.021 A 
ATOM     11  C   UNL     1       0.201   0.392  -0.358  0.00  0.00    +0.006 A 
ATOM     12  C   UNL     1      -1.114   0.815  -0.405  0.00  0.00    +0.002 A 
ATOM     13  C   UNL     1      -1.412   2.160  -0.292  0.00  0.00    +0.020 A 
ATOM     14  C   UNL     1      -0.393   3.083  -0.141  0.00  0.00    +0.041 A 
ATOM     15  C   UNL     1       0.924   2.659  -0.099  0.00  0.00    +0.025 A 
ATOM     16 CL   UNL     1      -0.766   4.774  -0.005  0.00  0.00    -0.084 Cl
ENDBRANCH   7  10
BRANCH   1  17
ATOM     17  C   UNL     1       2.397   0.019   2.236  0.00  0.00    +0.339 C 
ATOM     18  O   UNL     1       2.841  -0.107   3.362  0.00  0.00    -0.245 OA
BRANCH  17  20
ATOM     19  C   UNL     1       0.605  -1.383   2.897  0.00  0.00    +0.280 C 
ATOM     20  O   UNL     1       1.248  -0.598   1.891  0.00  0.00    -0.465 OA
ENDBRANCH  17  20
ENDBRANCH   1  17
BRANCH   2  21
ATOM     21  C   UNL     1       4.614   1.552   3.082  0.00  0.00    +0.223 C 
BRANCH  21  22
ATOM     22  S   UNL     1       6.033   0.434   3.251  0.00  0.00    +0.008 S 
ATOM     23  O   UNL     1       5.624  -0.911   3.044  0.00  0.00    -0.169 OA
ATOM     24  O   UNL     1       7.158   0.964   2.562  0.00  0.00    -0.169 OA
BRANCH  22  25
ATOM     25  C   UNL     1       6.472   0.514   4.955  0.00  0.00    +0.126 A 
ATOM     26  C   UNL     1       6.031  -0.246   5.987  0.00  0.00    +0.035 A 
ATOM     27  C   UNL     1       6.520  -0.003   7.256  0.00  0.00    +0.009 A 
ATOM     28  C   UNL     1       7.427   0.990   7.432  0.00  0.00    +0.047 A 
ATOM     29  S   UNL     1       7.620   1.613   5.771  0.00  0.00    -0.078 S 
ENDBRANCH  22  25
ENDBRANCH  21  22
ENDBRANCH   2  21
TORSDOF 6
