REMARK  Name = ZINC24745420
REMARK  9 active torsions:
REMARK  status: ('A' for Active; 'I' for Inactive)
REMARK    1  A    between atoms: C_1  and  C_2
REMARK    2  A    between atoms: C_2  and  C_3
REMARK    3  A    between atoms: C_3  and  S_4
REMARK    4  A    between atoms: S_4  and  N_7
REMARK    5  A    between atoms: N_7  and  C_8
REMARK    6  A    between atoms: C_12  and  C_14
REMARK    7  A    between atoms: N_16  and  N_17
REMARK    8  A    between atoms: C_18  and  C_20
REMARK    9  A    between atoms: C_29  and  O_30
REMARK                            x       y       z     vdW  Elec       q    Type
REMARK                         _______ _______ _______ _____ _____    ______ ____
ROOT
ATOM      1  C   UNL     1      -5.084   5.396   0.272  0.00  0.00    +0.260 C 
ATOM      2  O   UNL     1      -4.038   6.015   0.316  0.00  0.00    -0.269 OA
ATOM      3  N   UNL     1      -5.071   4.049   0.281  0.00  0.00    -0.230 N 
ATOM      4  H   UNL     1      -6.017   3.489   0.241  0.00  0.00    +0.173 HD
ENDROOT
BRANCH   1   9
ATOM      5  C   UNL     1      -7.596   8.191   0.139  0.00  0.00    +0.048 A 
ATOM      6  C   UNL     1      -8.788   7.477   0.088  0.00  0.00    +0.024 A 
ATOM      7  C   UNL     1      -8.771   6.095   0.098  0.00  0.00    +0.003 A 
ATOM      8  C   UNL     1      -7.572   5.415   0.152  0.00  0.00    +0.013 A 
ATOM      9  C   UNL     1      -6.370   6.123   0.208  0.00  0.00    +0.040 A 
ATOM     10  C   UNL     1      -6.386   7.518   0.199  0.00  0.00    +0.037 A 
BRANCH   5  11
ATOM     11  N   UNL     1      -7.618   9.588   0.128  0.00  0.00    -0.221 N 
ATOM     12  H   UNL     1      -7.000  10.153   0.841  0.00  0.00    +0.173 HD
BRANCH  11  13
ATOM     13  S   UNL     1      -8.575  10.393  -0.957  0.00  0.00    +0.043 S 
ATOM     14  O   UNL     1      -9.880   9.869  -0.749  0.00  0.00    -0.155 OA
ATOM     15  O   UNL     1      -8.303  11.770  -0.729  0.00  0.00    -0.155 OA
BRANCH  13  16
ATOM     16  C   UNL     1      -7.954   9.895  -2.587  0.00  0.00    +0.188 C 
BRANCH  16  18
ATOM     17  C   UNL     1      -8.165  10.259  -5.049  0.00  0.00    +0.005 C 
ATOM     18  C   UNL     1      -8.689  10.679  -3.675  0.00  0.00    +0.021 C 
ENDBRANCH  16  18
ENDBRANCH  13  16
ENDBRANCH  11  13
ENDBRANCH   5  11
ENDBRANCH   1   9
BRANCH   3  19
ATOM     19  N   UNL     1      -3.852   3.361   0.342  0.00  0.00    -0.230 N 
ATOM     20  C   UNL     1      -3.839   2.013   0.351  0.00  0.00    +0.264 C 
ATOM     21  O   UNL     1      -4.885   1.394   0.307  0.00  0.00    -0.269 OA
ATOM     22  H   UNL     1      -2.906   3.920   0.381  0.00  0.00    +0.173 HD
BRANCH  20  23
ATOM     23  C   UNL     1      -2.555   1.288   0.414  0.00  0.00    +0.080 A 
ATOM     24  C   UNL     1      -1.366   1.997   0.470  0.00  0.00    +0.025 A 
ATOM     25  C   UNL     1      -0.149   1.303   0.524  0.00  0.00    -0.017 A 
ATOM     26  C   UNL     1       1.077   1.991   0.577  0.00  0.00    +0.008 A 
ATOM     27  C   UNL     1       2.241   1.289   0.635  0.00  0.00    +0.001 A 
ATOM     28  C   UNL     1       2.239  -0.105   0.644  0.00  0.00    +0.001 A 
ATOM     29  C   UNL     1       1.073  -0.805   0.595  0.00  0.00    +0.008 A 
ATOM     30  C   UNL     1      -0.151  -0.116   0.533  0.00  0.00    -0.014 A 
ATOM     31  C   UNL     1      -1.370  -0.812   0.482  0.00  0.00    +0.054 A 
ATOM     32  C   UNL     1      -2.546  -0.123   0.424  0.00  0.00    +0.130 A 
BRANCH  32  33
ATOM     33  O   UNL     1      -3.720  -0.802   0.374  0.00  0.00    -0.506 OA
ATOM     34  H   UNL     1      -3.720  -1.902   0.381  0.00  0.00    +0.292 HD
ENDBRANCH  32  33
ENDBRANCH  20  23
ENDBRANCH   3  19
TORSDOF 8
