REMARK  Name = ZINC08914816
REMARK  4 active torsions:
REMARK  status: ('A' for Active; 'I' for Inactive)
REMARK    1  A    between atoms: C_9  and  C_12
REMARK    2  A    between atoms: N_14  and  N_15
REMARK    3  A    between atoms: C_16  and  C_17
REMARK    4  A    between atoms: C_19  and  O_25
REMARK                            x       y       z     vdW  Elec       q    Type
REMARK                         _______ _______ _______ _____ _____    ______ ____
ROOT
ATOM      1  C   UNL     1       0.328   1.747   1.611  0.00  0.00    +0.276 C 
ATOM      2  O   UNL     1      -0.794   2.174   1.438  0.00  0.00    -0.270 OA
ATOM      3  N   UNL     1       1.386   2.406   1.100  0.00  0.00    -0.204 N 
ATOM      4  H   UNL     1       2.275   2.023   1.169  0.00  0.00    +0.177 HD
ENDROOT
BRANCH   1  13
ATOM      5  C   UNL     1      -0.882  -3.809   4.433  0.00  0.00    +0.004 A 
ATOM      6  C   UNL     1      -1.834  -2.877   4.803  0.00  0.00    +0.004 A 
ATOM      7  C   UNL     1      -1.772  -1.588   4.309  0.00  0.00    +0.049 A 
ATOM      8  C   UNL     1      -0.753  -1.225   3.441  0.00  0.00    +0.163 A 
ATOM      9  C   UNL     1       0.206  -2.161   3.071  0.00  0.00    +0.162 A 
ATOM     10  C   UNL     1       0.136  -3.454   3.569  0.00  0.00    +0.049 A 
ATOM     11  O   UNL     1       1.218  -1.825   2.226  0.00  0.00    -0.484 OA
ATOM     12  C   UNL     1       1.043  -0.630   1.456  0.00  0.00    +0.283 C 
ATOM     13  C   UNL     1       0.537   0.475   2.392  0.00  0.00    +0.297 C 
ATOM     14  O   UNL     1      -0.705   0.047   2.961  0.00  0.00    -0.472 OA
ENDBRANCH   1  13
BRANCH   3  15
ATOM     15  N   UNL     1       1.203   3.643   0.469  0.00  0.00    -0.188 NA
ATOM     16  C   UNL     1       2.202   4.224  -0.122  0.00  0.00    +0.139 C 
BRANCH  16  17
ATOM     17  C   UNL     1       3.467   3.494  -0.321  0.00  0.00    +0.012 A 
ATOM     18  C   UNL     1       3.464   2.101  -0.427  0.00  0.00    +0.057 A 
ATOM     19  C   UNL     1       4.654   1.423  -0.619  0.00  0.00    +0.131 A 
ATOM     20  C   UNL     1       5.851   2.126  -0.693  0.00  0.00    +0.060 A 
ATOM     21  C   UNL     1       5.858   3.504  -0.583  0.00  0.00    +0.034 A 
ATOM     22  C   UNL     1       4.676   4.192  -0.397  0.00  0.00    +0.028 A 
ATOM     23 BR   UNL     1       4.691   6.077  -0.246  0.00  0.00    -0.050 Br
ATOM     24 BR   UNL     1       7.476   1.193  -0.948  0.00  0.00    -0.046 Br
BRANCH  19  25
ATOM     25  O   UNL     1       4.654   0.068  -0.729  0.00  0.00    -0.506 OA
ATOM     26  H   UNL     1       4.750  -0.395   0.114  0.00  0.00    +0.292 HD
ENDBRANCH  19  25
ENDBRANCH  16  17
ENDBRANCH   3  15
TORSDOF 4
