REMARK  Name = ZINC39470038
REMARK  10 active torsions:
REMARK  status: ('A' for Active; 'I' for Inactive)
REMARK    1  A    between atoms: C_1  and  C_2
REMARK    2  A    between atoms: C_2  and  C_3
REMARK    3  A    between atoms: C_2  and  S_4
REMARK    4  A    between atoms: S_4  and  C_7
REMARK    5  A    between atoms: P_16  and  S_32
REMARK    6  A    between atoms: C_24  and  C_25
REMARK    7  A    between atoms: C_25  and  C_26
REMARK    8  A    between atoms: S_32  and  C_35
REMARK    9  A    between atoms: C_35  and  C_36
REMARK   10  A    between atoms: C_35  and  C_37
REMARK                            x       y       z     vdW  Elec       q    Type
REMARK                         _______ _______ _______ _____ _____    ______ ____
ROOT
ATOM      1  C   UNL     1       2.849   0.338  -1.429  0.00  0.00    +0.088 C 
ATOM      2  C   UNL     1       4.056  -0.229  -1.396  0.00  0.00    +0.004 C 
ATOM      3  C   UNL     1       5.236   0.602  -0.970  0.00  0.00    +0.023 C 
ATOM      4  C   UNL     1       6.543   0.030  -1.509  0.00  0.00    +0.031 C 
ATOM      5  C   UNL     1       7.713   0.923  -1.070  0.00  0.00    +0.100 C 
ATOM      6  C   UNL     1       8.991   0.331  -1.677  0.00  0.00    +0.191 C 
ATOM      7  O   UNL     1      10.129   1.095  -1.240  0.00  0.00    -0.299 OA
ATOM      8  P   UNL     1      10.070   2.712  -1.413  0.00  0.00    +0.419 P 
ATOM      9  O   UNL     1      10.386   3.090  -2.809  0.00  0.00    -0.246 OA
ATOM     10  N   UNL     1       8.518   3.133  -1.044  0.00  0.00    -0.161 NA
ATOM     11  N   UNL     1       7.519   2.304  -1.515  0.00  0.00    -0.228 NA
ATOM     12  C   UNL     1       6.239   2.875  -1.056  0.00  0.00    +0.111 C 
ATOM     13  C   UNL     1       5.072   2.020  -1.531  0.00  0.00    +0.034 C 
ATOM     14  C   UNL     1       3.744   2.569  -1.087  0.00  0.00    -0.016 C 
ATOM     15  C   UNL     1       2.694   1.751  -1.044  0.00  0.00    -0.022 C 
ATOM     16  H   UNL     1       8.322   3.931  -0.527  0.00  0.00    +0.152 HD
ENDROOT
BRANCH   1  17
ATOM     17  S   UNL     1       1.446  -0.599  -1.937  0.00  0.00    -0.001 S 
ATOM     18  O   UNL     1       0.420  -0.242  -1.020  0.00  0.00    -0.169 OA
ATOM     19  O   UNL     1       1.913  -1.939  -2.014  0.00  0.00    -0.169 OA
BRANCH  17  21
ATOM     20  C   UNL     1       2.256  -0.167  -4.513  0.00  0.00    +0.032 C 
ATOM     21  C   UNL     1       1.047   0.020  -3.594  0.00  0.00    +0.130 C 
ATOM     22  C   UNL     1      -0.145  -0.757  -4.156  0.00  0.00    +0.032 C 
ENDBRANCH  17  21
ENDBRANCH   1  17
BRANCH   8  23
ATOM     23  S   UNL     1      11.427   3.643  -0.077  0.00  0.00    +0.058 S 
ATOM     24  O   UNL     1      11.351   5.027  -0.389  0.00  0.00    -0.164 OA
ATOM     25  O   UNL     1      11.052   3.169   1.209  0.00  0.00    -0.164 OA
BRANCH  23  26
ATOM     26  C   UNL     1      13.056   2.988  -0.534  0.00  0.00    +0.136 C 
ATOM     27  C   UNL     1      13.360   3.346  -1.990  0.00  0.00    +0.032 C 
ATOM     28  C   UNL     1      14.124   3.598   0.375  0.00  0.00    +0.032 C 
ENDBRANCH  23  26
ENDBRANCH   8  23
BRANCH  15  29
ATOM     29  C   UNL     1       1.352   2.271  -0.596  0.00  0.00    +0.071 C 
BRANCH  29  30
ATOM     30  C   UNL     1       0.578   2.759  -1.794  0.00  0.00    -0.043 A 
ATOM     31  C   UNL     1       0.975   3.907  -2.453  0.00  0.00    +0.004 A 
ATOM     32  C   UNL     1       0.265   4.355  -3.551  0.00  0.00    +0.000 A 
ATOM     33  C   UNL     1      -0.842   3.653  -3.991  0.00  0.00    +0.000 A 
ATOM     34  C   UNL     1      -1.238   2.504  -3.333  0.00  0.00    +0.000 A 
ATOM     35  C   UNL     1      -0.526   2.054  -2.237  0.00  0.00    +0.004 A 
ENDBRANCH  29  30
ENDBRANCH  15  29
TORSDOF 6
