REMARK  Name = ZINC13010074
REMARK  15 active torsions:
REMARK  status: ('A' for Active; 'I' for Inactive)
REMARK    1  A    between atoms: C_1  and  C_2
REMARK    2  A    between atoms: C_2  and  C_3
REMARK    3  A    between atoms: C_3  and  C_4
REMARK    4  A    between atoms: C_4  and  N_5
REMARK    5  A    between atoms: C_6  and  N_38
REMARK    6  A    between atoms: C_7  and  N_14
REMARK    7  A    between atoms: N_14  and  C_15
REMARK    8  A    between atoms: C_15  and  C_16
REMARK    9  A    between atoms: C_16  and  C_17
REMARK   10  A    between atoms: C_17  and  C_18
REMARK   11  A    between atoms: C_17  and  C_19
REMARK   12  A    between atoms: C_20  and  C_22
REMARK   13  A    between atoms: C_25  and  C_37
REMARK   14  A    between atoms: C_26  and  S_28
REMARK   15  A    between atoms: S_28  and  N_31
REMARK                            x       y       z     vdW  Elec       q    Type
REMARK                         _______ _______ _______ _____ _____    ______ ____
ROOT
ATOM      1  N   UNL     1      -6.214  -3.481   3.432  0.00  0.00    -0.260 N 
ATOM      2  C   UNL     1      -5.508  -2.698   4.272  0.00  0.00    +0.251 C 
ATOM      3  O   UNL     1      -6.018  -2.296   5.301  0.00  0.00    -0.270 OA
ENDROOT
BRANCH   1   6
ATOM      4  N   UNL     1      -5.645  -3.882  -0.175  0.00  0.00    -0.280 N 
ATOM      5  C   UNL     1      -6.216  -3.476   1.008  0.00  0.00    +0.127 A 
ATOM      6  C   UNL     1      -5.652  -3.880   2.202  0.00  0.00    +0.140 A 
ATOM      7  C   UNL     1      -4.506  -4.697   2.169  0.00  0.00    +0.277 A 
ATOM      8  O   UNL     1      -3.988  -5.069   3.209  0.00  0.00    -0.266 OA
ATOM      9  N   UNL     1      -3.987  -5.066   0.982  0.00  0.00    -0.273 N 
ATOM     10  H   UNL     1      -3.197  -5.630   0.959  0.00  0.00    +0.173 HD
ATOM     11  C   UNL     1      -4.553  -4.668  -0.170  0.00  0.00    +0.331 A 
ATOM     12  O   UNL     1      -4.066  -5.020  -1.228  0.00  0.00    -0.246 OA
BRANCH   5  13
ATOM     13  N   UNL     1      -7.335  -2.678   1.003  0.00  0.00    -0.343 N 
ATOM     14  H   UNL     1      -7.686  -2.341   0.164  0.00  0.00    +0.144 HD
ATOM     15  H   UNL     1      -7.773  -2.451   1.838  0.00  0.00    +0.144 HD
ENDBRANCH   5  13
BRANCH   4  16
ATOM     16  C   UNL     1      -6.233  -3.461  -1.449  0.00  0.00    +0.128 C 
BRANCH  16  17
ATOM     17  C   UNL     1      -7.280  -4.485  -1.891  0.00  0.00    +0.021 C 
BRANCH  17  19
ATOM     18  C   UNL     1      -8.941  -5.069  -3.663  0.00  0.00    +0.004 C 
ATOM     19  C   UNL     1      -7.894  -4.045  -3.222  0.00  0.00    -0.002 C 
ENDBRANCH  17  19
ENDBRANCH  16  17
ENDBRANCH   4  16
ENDBRANCH   1   6
BRANCH   2  20
ATOM     20  C   UNL     1      -4.115  -2.329   3.945  0.00  0.00    +0.039 A 
ATOM     21  C   UNL     1      -3.707  -2.244   2.612  0.00  0.00    +0.013 A 
ATOM     22  C   UNL     1      -2.406  -1.899   2.313  0.00  0.00    +0.006 A 
ATOM     23  C   UNL     1      -1.505  -1.638   3.330  0.00  0.00    -0.024 A 
ATOM     24  C   UNL     1      -1.902  -1.720   4.652  0.00  0.00    +0.109 A 
ATOM     25  C   UNL     1      -3.203  -2.059   4.965  0.00  0.00    +0.041 A 
ATOM     26  C   UNL     1      -0.084  -1.262   2.996  0.00  0.00    +0.046 C 
BRANCH  24  27
ATOM     27  S   UNL     1      -0.747  -1.385   5.940  0.00  0.00    +0.061 S 
ATOM     28  O   UNL     1      -1.434  -1.594   7.166  0.00  0.00    -0.153 OA
ATOM     29  O   UNL     1       0.446  -2.082   5.607  0.00  0.00    -0.153 OA
BRANCH  27  30
ATOM     30  N   UNL     1      -0.388   0.230   5.867  0.00  0.00    -0.172 NA
ATOM     31  C   UNL     1       0.798   0.710   5.140  0.00  0.00    +0.137 C 
ATOM     32  C   UNL     1       0.362   1.832   4.192  0.00  0.00    +0.177 C 
ATOM     33  O   UNL     1      -0.372   2.813   4.929  0.00  0.00    -0.377 OA
ATOM     34  C   UNL     1      -1.582   2.324   5.511  0.00  0.00    +0.177 C 
ATOM     35  C   UNL     1      -1.248   1.227   6.523  0.00  0.00    +0.137 C 
ENDBRANCH  27  30
ENDBRANCH  24  27
ENDBRANCH   2  20
BRANCH   1  36
ATOM     36  C   UNL     1      -7.564  -3.916   3.796  0.00  0.00    +0.114 C 
BRANCH  36  37
ATOM     37  C   UNL     1      -7.479  -5.174   4.662  0.00  0.00    +0.022 C 
BRANCH  37  38
ATOM     38  C   UNL     1      -8.888  -5.703   4.934  0.00  0.00    -0.016 C 
ATOM     39  C   UNL     1      -8.798  -7.034   5.683  0.00  0.00    +0.007 C 
ATOM     40  C   UNL     1      -9.657  -4.691   5.786  0.00  0.00    +0.007 C 
ENDBRANCH  37  38
ENDBRANCH  36  37
ENDBRANCH   1  36
TORSDOF 11
