REMARK  Name = ZINC21900679
REMARK  7 active torsions:
REMARK  status: ('A' for Active; 'I' for Inactive)
REMARK    1  A    between atoms: C_1  and  C_2
REMARK    2  A    between atoms: C_6  and  C_19
REMARK    3  A    between atoms: N_8  and  C_9
REMARK    4  A    between atoms: C_14  and  C_15
REMARK    5  A    between atoms: N_21  and  N_22
REMARK    6  A    between atoms: C_23  and  C_25
REMARK    7  A    between atoms: C_26  and  C_34
REMARK                            x       y       z     vdW  Elec       q    Type
REMARK                         _______ _______ _______ _____ _____    ______ ____
ROOT
ATOM      1  C   UNL     1       4.397   4.241  -1.372  0.00  0.00    +0.066 C 
ATOM      2  C   UNL     1       3.380   3.382  -0.667  0.00  0.00    +0.044 A 
ATOM      3  C   UNL     1       3.385   2.042  -0.863  0.00  0.00    +0.076 A 
ATOM      4  C   UNL     1       2.414   1.268  -0.175  0.00  0.00    +0.213 A 
ATOM      5  O   UNL     1       2.363   0.055  -0.299  0.00  0.00    -0.285 OA
ATOM      6  C   UNL     1       1.469   1.991   0.691  0.00  0.00    +0.194 A 
ATOM      7  N   UNL     1       1.575   3.299   0.791  0.00  0.00    -0.158 NA
ATOM      8  N   UNL     1       2.471   3.961   0.156  0.00  0.00    -0.236 N 
ENDROOT
BRANCH   8   9
ATOM      9  C   UNL     1       2.513   5.349   0.320  0.00  0.00    +0.077 A 
ATOM     10  C   UNL     1       3.397   5.917   1.229  0.00  0.00    +0.028 A 
ATOM     11  C   UNL     1       3.441   7.288   1.384  0.00  0.00    +0.002 A 
ATOM     12  C   UNL     1       2.595   8.096   0.645  0.00  0.00    +0.001 A 
ATOM     13  C   UNL     1       1.709   7.534  -0.256  0.00  0.00    +0.014 A 
ATOM     14  C   UNL     1       1.666   6.163  -0.420  0.00  0.00    +0.080 A 
BRANCH  14  15
ATOM     15  C   UNL     1       0.700   5.552  -1.403  0.00  0.00    +0.419 C 
ATOM     16  F   UNL     1      -0.039   6.565  -2.022  0.00  0.00    -0.166 F 
ATOM     17  F   UNL     1       1.411   4.835  -2.371  0.00  0.00    -0.166 F 
ATOM     18  F   UNL     1      -0.168   4.688  -0.727  0.00  0.00    -0.166 F 
ENDBRANCH  14  15
ENDBRANCH   8   9
BRANCH   6  19
ATOM     19  C   UNL     1       0.424   1.262   1.438  0.00  0.00    +0.284 C 
ATOM     20  O   UNL     1       0.336   0.053   1.336  0.00  0.00    -0.267 OA
ATOM     21  N   UNL     1      -0.435   1.936   2.227  0.00  0.00    -0.229 N 
ATOM     22  H   UNL     1      -0.356   3.030   2.318  0.00  0.00    +0.173 HD
BRANCH  21  23
ATOM     23  N   UNL     1      -1.430   1.245   2.931  0.00  0.00    -0.228 N 
ATOM     24  C   UNL     1      -2.289   1.919   3.720  0.00  0.00    +0.296 C 
ATOM     25  O   UNL     1      -2.201   3.128   3.821  0.00  0.00    -0.265 OA
ATOM     26  H   UNL     1      -1.510   0.151   2.839  0.00  0.00    +0.173 HD
BRANCH  24  27
ATOM     27  C   UNL     1      -3.333   1.194   4.458  0.00  0.00    +0.195 A 
ATOM     28  C   UNL     1      -4.247   1.766   5.284  0.00  0.00    +0.008 A 
ATOM     29  C   UNL     1      -5.075   0.673   5.790  0.00  0.00    +0.024 A 
ATOM     30  C   UNL     1      -6.166   0.600   6.660  0.00  0.00    +0.012 A 
ATOM     31  C   UNL     1      -6.728  -0.613   6.941  0.00  0.00    +0.001 A 
ATOM     32  C   UNL     1      -6.223  -1.772   6.369  0.00  0.00    +0.004 A 
ATOM     33  C   UNL     1      -5.148  -1.722   5.508  0.00  0.00    +0.047 A 
ATOM     34  C   UNL     1      -4.559  -0.499   5.207  0.00  0.00    +0.136 A 
ATOM     35  O   UNL     1      -3.524  -0.141   4.423  0.00  0.00    -0.450 OA
ATOM     36  C   UNL     1      -4.381   3.231   5.611  0.00  0.00    +0.048 C 
ENDBRANCH  24  27
ENDBRANCH  21  23
ENDBRANCH   6  19
TORSDOF 5
