REMARK  Name = ZINC28059579
REMARK  6 active torsions:
REMARK  status: ('A' for Active; 'I' for Inactive)
REMARK    1  A    between atoms: C_1  and  O_2
REMARK    2  A    between atoms: O_2  and  C_3
REMARK    3  A    between atoms: C_6  and  C_11
REMARK    4  A    between atoms: C_8  and  O_9
REMARK    5  A    between atoms: O_9  and  C_10
REMARK    6  A    between atoms: C_22  and  C_24
REMARK                            x       y       z     vdW  Elec       q    Type
REMARK                         _______ _______ _______ _____ _____    ______ ____
ROOT
ATOM      1  C   UNL     1      -1.089  -0.968   0.016  0.00  0.00    +0.174 C 
ATOM      2  C   UNL     1      -0.570  -2.347  -0.306  0.00  0.00    +0.026 C 
ATOM      3  C   UNL     1       0.734  -2.633  -0.325  0.00  0.00    +0.050 C 
ATOM      4  C   UNL     1       1.148  -4.013  -0.674  0.00  0.00    +0.038 A 
ATOM      5  C   UNL     1       2.427  -4.480  -0.397  0.00  0.00    +0.013 A 
ATOM      6  C   UNL     1       2.769  -5.773  -0.742  0.00  0.00    +0.001 A 
ATOM      7  C   UNL     1       1.847  -6.599  -1.359  0.00  0.00    +0.004 A 
ATOM      8  C   UNL     1       0.571  -6.143  -1.638  0.00  0.00    +0.046 A 
ATOM      9  C   UNL     1       0.214  -4.851  -1.297  0.00  0.00    +0.131 A 
ATOM     10  O   UNL     1      -1.029  -4.368  -1.549  0.00  0.00    -0.479 OA
ATOM     11  C   UNL     1      -1.568  -3.442  -0.606  0.00  0.00    +0.241 C 
ATOM     12  N   UNL     1       1.714  -1.675  -0.042  0.00  0.00    -0.282 N 
ATOM     13  C   UNL     1       1.316  -0.348  -0.018  0.00  0.00    +0.240 A 
ATOM     14  N   UNL     1       0.002  -0.004   0.002  0.00  0.00    -0.201 N 
ATOM     15  N   UNL     1      -0.017   1.390   0.010  0.00  0.00    -0.042 NA
ATOM     16  N   UNL     1       1.218   1.775   0.000  0.00  0.00    -0.021 NA
ATOM     17  N   UNL     1       2.007   0.755  -0.015  0.00  0.00    -0.092 NA
ATOM     18  H   UNL     1       2.751  -1.988   0.150  0.00  0.00    +0.155 HD
ENDROOT
BRANCH   1  22
ATOM     19  C   UNL     1      -2.885  -1.014   3.897  0.00  0.00    +0.162 A 
ATOM     20  C   UNL     1      -1.545  -1.331   3.747  0.00  0.00    +0.050 A 
ATOM     21  C   UNL     1      -0.969  -1.320   2.491  0.00  0.00    +0.010 A 
ATOM     22  C   UNL     1      -1.724  -0.983   1.383  0.00  0.00    -0.015 A 
ATOM     23  C   UNL     1      -3.062  -0.665   1.526  0.00  0.00    +0.055 A 
ATOM     24  C   UNL     1      -3.647  -0.679   2.782  0.00  0.00    +0.162 A 
BRANCH  19  26
ATOM     25  C   UNL     1      -2.613  -1.381   6.231  0.00  0.00    +0.277 C 
ATOM     26  O   UNL     1      -3.455  -1.028   5.132  0.00  0.00    -0.491 OA
ENDBRANCH  19  26
BRANCH  24  27
ATOM     27  O   UNL     1      -4.963  -0.367   2.924  0.00  0.00    -0.491 OA
ATOM     28  C   UNL     1      -5.683  -0.034   1.735  0.00  0.00    +0.277 C 
ENDBRANCH  24  27
ENDBRANCH   1  22
BRANCH  11  29
ATOM     29  C   UNL     1      -1.905  -4.170   0.669  0.00  0.00    +0.034 A 
ATOM     30  C   UNL     1      -2.986  -4.026   1.475  0.00  0.00    +0.015 A 
ATOM     31  C   UNL     1      -3.089  -4.814   2.606  0.00  0.00    +0.008 A 
ATOM     32  C   UNL     1      -2.102  -5.701   2.881  0.00  0.00    +0.045 A 
ATOM     33  S   UNL     1      -0.982  -5.442   1.515  0.00  0.00    -0.098 S 
ENDBRANCH  11  29
TORSDOF 4
