REMARK  Name = ZINC03044164
REMARK  8 active torsions:
REMARK  status: ('A' for Active; 'I' for Inactive)
REMARK    1  A    between atoms: C_1  and  C_2
REMARK    2  A    between atoms: C_5  and  C_31
REMARK    3  A    between atoms: C_6  and  N_8
REMARK    4  A    between atoms: N_8  and  C_9
REMARK    5  A    between atoms: C_9  and  N_11
REMARK    6  A    between atoms: N_11  and  N_12
REMARK    7  A    between atoms: N_20  and  C_23
REMARK    8  A    between atoms: C_23  and  C_24
REMARK                            x       y       z     vdW  Elec       q    Type
REMARK                         _______ _______ _______ _____ _____    ______ ____
ROOT
ATOM      1  N   UNL     1       0.285  -4.220   4.701  0.00  0.00    -0.175 NA
ATOM      2  C   UNL     1       0.398  -4.886   5.825  0.00  0.00    +0.153 C 
ATOM      3  C   UNL     1       0.442  -6.357   6.002  0.00  0.00    +0.029 A 
ATOM      4  C   UNL     1       0.382  -7.425   5.114  0.00  0.00    +0.027 A 
ATOM      5  C   UNL     1       0.448  -8.719   5.592  0.00  0.00    +0.019 A 
ATOM      6  C   UNL     1       0.574  -8.950   6.953  0.00  0.00    +0.017 A 
ATOM      7  C   UNL     1       0.634  -7.896   7.842  0.00  0.00    +0.025 A 
ATOM      8  C   UNL     1       0.569  -6.586   7.378  0.00  0.00    +0.046 A 
ATOM      9  N   UNL     1       0.606  -5.367   8.046  0.00  0.00    -0.261 N 
ATOM     10  C   UNL     1       0.517  -4.335   7.189  0.00  0.00    +0.272 C 
ATOM     11  O   UNL     1       0.528  -3.155   7.486  0.00  0.00    -0.268 OA
ATOM     12 BR   UNL     1       0.367 -10.176   4.390  0.00  0.00    -0.050 Br
ENDROOT
BRANCH   1  13
ATOM     13  N   UNL     1       0.267  -2.819   4.716  0.00  0.00    -0.217 N 
ATOM     14  H   UNL     1       0.337  -2.342   5.558  0.00  0.00    +0.176 HD
BRANCH  13  15
ATOM     15  C   UNL     1       0.150  -2.134   3.561  0.00  0.00    +0.154 C 
ATOM     16  S   UNL     1       0.127  -0.423   3.580  0.00  0.00    -0.017 S 
BRANCH  15  17
ATOM     17  N   UNL     1       0.052  -2.797   2.392  0.00  0.00    -0.295 N 
ATOM     18  H   UNL     1      -0.015  -3.765   2.387  0.00  0.00    +0.154 HD
BRANCH  17  24
ATOM     19  C   UNL     1       1.921   0.767  -0.432  0.00  0.00    +0.044 C 
ATOM     20  C   UNL     1       0.941  -0.357  -0.210  0.00  0.00    -0.049 A 
ATOM     21  C   UNL     1       0.036  -0.690  -1.201  0.00  0.00    +0.004 A 
ATOM     22  C   UNL     1      -0.864  -1.720  -1.002  0.00  0.00    +0.005 A 
ATOM     23  C   UNL     1      -0.861  -2.421   0.188  0.00  0.00    -0.029 A 
ATOM     24  C   UNL     1       0.047  -2.090   1.185  0.00  0.00    +0.036 A 
ATOM     25  C   UNL     1       0.953  -1.057   0.980  0.00  0.00    +0.027 A 
ATOM     26  C   UNL     1      -1.843  -3.544   0.405  0.00  0.00    +0.045 C 
ENDBRANCH  17  24
ENDBRANCH  15  17
ENDBRANCH  13  15
ENDBRANCH   1  13
BRANCH   9  27
ATOM     27  C   UNL     1       0.733  -5.225   9.498  0.00  0.00    +0.149 C 
BRANCH  27  28
ATOM     28  C   UNL     1       2.192  -5.149   9.870  0.00  0.00    -0.030 A 
ATOM     29  C   UNL     1       2.895  -6.307  10.148  0.00  0.00    +0.005 A 
ATOM     30  C   UNL     1       4.233  -6.238  10.489  0.00  0.00    +0.000 A 
ATOM     31  C   UNL     1       4.868  -5.011  10.551  0.00  0.00    +0.000 A 
ATOM     32  C   UNL     1       4.165  -3.854  10.271  0.00  0.00    +0.000 A 
ATOM     33  C   UNL     1       2.828  -3.924   9.926  0.00  0.00    +0.005 A 
ENDBRANCH  27  28
ENDBRANCH   9  27
TORSDOF 6
