REMARK  Name = ZINC12314259
REMARK  2 active torsions:
REMARK  status: ('A' for Active; 'I' for Inactive)
REMARK    1  A    between atoms: C_4  and  C_7
REMARK    2  A    between atoms: C_7  and  C_8
REMARK                            x       y       z     vdW  Elec       q    Type
REMARK                         _______ _______ _______ _____ _____    ______ ____
ROOT
ATOM      1  C   UNL     1       6.971   0.730   1.972  0.00  0.00    +0.165 C 
ATOM      2  C   UNL     1       7.784   1.741   1.212  0.00  0.00    +0.234 C 
ATOM      3  O   UNL     1       8.900   1.435   0.850  0.00  0.00    -0.274 OA
ATOM      4  N   UNL     1       7.327   2.963   0.918  0.00  0.00    -0.312 N 
ATOM      5  C   UNL     1       5.986   3.416   1.277  0.00  0.00    +0.123 C 
ATOM      6  C   UNL     1       5.404   2.520   2.371  0.00  0.00    +0.126 C 
ATOM      7  N   UNL     1       5.553   1.114   1.960  0.00  0.00    -0.299 N 
ATOM      8  C   UNL     1       4.808   0.280   2.768  0.00  0.00    +0.165 A 
ATOM      9  C   UNL     1       3.576  -0.327   2.247  0.00  0.00    +0.164 A 
ATOM     10  N   UNL     1       2.852  -1.129   2.999  0.00  0.00    -0.203 NA
ATOM     11  C   UNL     1       3.243  -1.390   4.254  0.00  0.00    +0.244 A 
ATOM     12  C   UNL     1       4.483  -0.773   4.781  0.00  0.00    +0.244 A 
ATOM     13  N   UNL     1       5.205   0.040   4.000  0.00  0.00    -0.203 NA
ATOM     14  N   UNL     1       4.543  -1.244   6.004  0.00  0.00    -0.027 NA
ATOM     15  O   UNL     1       3.589  -1.969   6.198  0.00  0.00    -0.238 OA
ATOM     16  N   UNL     1       2.818  -2.101   5.270  0.00  0.00    -0.027 NA
ATOM     17  N   UNL     1       3.175  -0.057   0.954  0.00  0.00    -0.312 N 
ATOM     18  C   UNL     1       2.427  -1.186   0.388  0.00  0.00    +0.106 C 
ATOM     19  C   UNL     1       2.126  -0.913  -1.087  0.00  0.00    +0.019 C 
ATOM     20  C   UNL     1       1.308   0.376  -1.206  0.00  0.00    +0.003 C 
ATOM     21  C   UNL     1       2.090   1.528  -0.567  0.00  0.00    +0.019 C 
ATOM     22  C   UNL     1       2.391   1.184   0.894  0.00  0.00    +0.106 C 
ATOM     23  H   UNL     1       7.912   3.575   0.446  0.00  0.00    +0.149 HD
ENDROOT
BRANCH   1  24
ATOM     24  C   UNL     1       7.131  -0.644   1.319  0.00  0.00    +0.067 C 
BRANCH  24  28
ATOM     25  C   UNL     1       5.356  -3.621   3.816  0.00  0.00    +0.000 A 
ATOM     26  C   UNL     1       4.738  -3.250   2.637  0.00  0.00    +0.000 A 
ATOM     27  C   UNL     1       5.312  -2.286   1.829  0.00  0.00    +0.004 A 
ATOM     28  C   UNL     1       6.505  -1.694   2.200  0.00  0.00    -0.045 A 
ATOM     29  C   UNL     1       7.126  -2.070   3.377  0.00  0.00    +0.004 A 
ATOM     30  C   UNL     1       6.549  -3.030   4.187  0.00  0.00    +0.000 A 
ENDBRANCH  24  28
ENDBRANCH   1  24
TORSDOF 2
