REMARK  Name = ZINC12715970
REMARK  9 active torsions:
REMARK  status: ('A' for Active; 'I' for Inactive)
REMARK    1  A    between atoms: C_4  and  C_7
REMARK    2  A    between atoms: C_10  and  C_13
REMARK    3  A    between atoms: N_15  and  C_16
REMARK    4  A    between atoms: N_15  and  C_23
REMARK    5  A    between atoms: C_16  and  C_17
REMARK    6  A    between atoms: C_23  and  C_25
REMARK    7  A    between atoms: C_23  and  C_32
REMARK    8  A    between atoms: N_34  and  C_35
REMARK    9  A    between atoms: C_35  and  C_36
REMARK                            x       y       z     vdW  Elec       q    Type
REMARK                         _______ _______ _______ _____ _____    ______ ____
ROOT
ATOM      1  C   UNL     1       7.277  -4.418  -0.006  0.00  0.00    +0.264 C 
ATOM      2  O   UNL     1       8.063  -5.339  -0.125  0.00  0.00    -0.268 OA
ATOM      3  N   UNL     1       5.984  -4.669   0.279  0.00  0.00    -0.278 N 
ENDROOT
BRANCH   1   7
ATOM      4  C   UNL     1       7.753  -0.812  -0.248  0.00  0.00    +0.047 A 
ATOM      5  C   UNL     1       9.019  -1.248  -0.572  0.00  0.00    +0.028 A 
ATOM      6  C   UNL     1       9.011  -2.641  -0.525  0.00  0.00    +0.033 A 
ATOM      7  C   UNL     1       7.736  -3.036  -0.172  0.00  0.00    +0.102 A 
ATOM      8  N   UNL     1       6.973  -1.903   0.001  0.00  0.00    -0.351 N 
ATOM      9  H   UNL     1       6.037  -1.884   0.256  0.00  0.00    +0.166 HD
BRANCH   4  13
ATOM     10  C   UNL     1       6.496   3.240  -0.044  0.00  0.00    +0.000 A 
ATOM     11  C   UNL     1       7.828   2.943  -0.272  0.00  0.00    +0.001 A 
ATOM     12  C   UNL     1       8.243   1.629  -0.340  0.00  0.00    +0.010 A 
ATOM     13  C   UNL     1       7.315   0.598  -0.176  0.00  0.00    -0.002 A 
ATOM     14  C   UNL     1       5.973   0.905   0.054  0.00  0.00    +0.010 A 
ATOM     15  C   UNL     1       5.572   2.224   0.119  0.00  0.00    +0.001 A 
ENDBRANCH   4  13
ENDBRANCH   1   7
BRANCH   3  16
ATOM     16  C   UNL     1       5.012  -3.572   0.301  0.00  0.00    +0.140 C 
BRANCH  16  17
ATOM     17  C   UNL     1       5.080  -2.857   1.651  0.00  0.00    +0.136 C 
ATOM     18  C   UNL     1       3.944  -1.809   1.763  0.00  0.00    +0.035 C 
ATOM     19  C   UNL     1       3.788  -1.706   3.304  0.00  0.00    +0.031 C 
ATOM     20  C   UNL     1       4.089  -3.150   3.761  0.00  0.00    +0.160 C 
ATOM     21  O   UNL     1       4.843  -3.786   2.720  0.00  0.00    -0.375 OA
ENDBRANCH  16  17
ENDBRANCH   3  16
BRANCH   3  22
ATOM     22  C   UNL     1       5.550  -6.038   0.568  0.00  0.00    +0.193 C 
BRANCH  22  23
ATOM     23  C   UNL     1       4.921  -6.087   1.937  0.00  0.00    -0.018 A 
ATOM     24  C   UNL     1       3.588  -5.756   2.097  0.00  0.00    +0.009 A 
ATOM     25  C   UNL     1       3.010  -5.801   3.352  0.00  0.00    +0.038 A 
ATOM     26  C   UNL     1       3.767  -6.178   4.449  0.00  0.00    +0.123 A 
ATOM     27  C   UNL     1       5.101  -6.510   4.287  0.00  0.00    +0.038 A 
ATOM     28  C   UNL     1       5.676  -6.469   3.030  0.00  0.00    +0.009 A 
ATOM     29  F   UNL     1       3.203  -6.223   5.676  0.00  0.00    -0.205 F 
ENDBRANCH  22  23
BRANCH  22  30
ATOM     30  C   UNL     1       4.541  -6.473  -0.464  0.00  0.00    +0.238 C 
ATOM     31  O   UNL     1       4.171  -5.694  -1.316  0.00  0.00    -0.273 OA
ATOM     32  N   UNL     1       4.051  -7.729  -0.439  0.00  0.00    -0.311 N 
ATOM     33  H   UNL     1       4.347  -8.351   0.243  0.00  0.00    +0.149 HD
BRANCH  32  34
ATOM     34  C   UNL     1       3.071  -8.152  -1.442  0.00  0.00    +0.135 C 
BRANCH  34  35
ATOM     35  C   UNL     1       2.681  -9.610  -1.191  0.00  0.00    +0.135 C 
ATOM     36  C   UNL     1       1.742 -10.102  -2.313  0.00  0.00    +0.035 C 
ATOM     37  C   UNL     1       0.722 -10.974  -1.530  0.00  0.00    +0.031 C 
ATOM     38  C   UNL     1       0.637 -10.197  -0.192  0.00  0.00    +0.160 C 
ATOM     39  O   UNL     1       1.971  -9.716   0.049  0.00  0.00    -0.375 OA
ENDBRANCH  34  35
ENDBRANCH  32  34
ENDBRANCH  22  30
ENDBRANCH   3  22
TORSDOF 9
