REMARK  Name = ZINC37053109
REMARK  6 active torsions:
REMARK  status: ('A' for Active; 'I' for Inactive)
REMARK    1  A    between atoms: C_1  and  C_2
REMARK    2  A    between atoms: C_4  and  N_19
REMARK    3  A    between atoms: C_6  and  S_8
REMARK    4  A    between atoms: S_8  and  N_11
REMARK    5  A    between atoms: N_11  and  C_12
REMARK    6  A    between atoms: C_15  and  O_18
REMARK                            x       y       z     vdW  Elec       q    Type
REMARK                         _______ _______ _______ _____ _____    ______ ____
ROOT
ATOM      1  S   UNL     1       0.056  -2.967   2.717  0.00  0.00    +0.059 S 
ATOM      2  O   UNL     1      -0.502  -2.101   3.696  0.00  0.00    -0.153 OA
ATOM      3  O   UNL     1      -0.479  -4.256   2.447  0.00  0.00    -0.153 OA
ENDROOT
BRANCH   1   9
ATOM      4  C   UNL     1      -0.018   1.503   0.010  0.00  0.00    +0.044 C 
ATOM      5  C   UNL     1       0.002  -0.004   0.002  0.00  0.00    -0.047 A 
ATOM      6  C   UNL     1       0.006  -0.687  -1.198  0.00  0.00    +0.026 A 
ATOM      7  C   UNL     1       0.025  -2.076  -1.205  0.00  0.00    +0.027 A 
ATOM      8  C   UNL     1       0.041  -2.773  -0.004  0.00  0.00    +0.051 A 
ATOM      9  C   UNL     1       0.037  -2.084   1.193  0.00  0.00    +0.107 A 
ATOM     10  C   UNL     1       0.023  -0.701   1.196  0.00  0.00    +0.032 A 
BRANCH   7  11
ATOM     11  N   UNL     1       0.028  -2.770  -2.417  0.00  0.00    -0.358 N 
ATOM     12  H   UNL     1       0.017  -2.282  -3.256  0.00  0.00    +0.142 HD
ATOM     13  H   UNL     1       0.042  -3.740  -2.421  0.00  0.00    +0.142 HD
ENDBRANCH   7  11
ENDBRANCH   1   9
BRANCH   1  14
ATOM     14  N   UNL     1       1.643  -3.191   3.134  0.00  0.00    -0.187 NA
ATOM     15  H   UNL     1       2.014  -4.087   3.168  0.00  0.00    +0.148 HD
BRANCH  14  16
ATOM     16  C   UNL     1       2.487  -2.037   3.450  0.00  0.00    +0.077 C 
ATOM     17  C   UNL     1       2.501  -1.815   4.964  0.00  0.00    +0.023 C 
ATOM     18  C   UNL     1       3.383  -0.609   5.295  0.00  0.00    +0.033 C 
ATOM     19  C   UNL     1       4.808  -0.870   4.805  0.00  0.00    +0.115 C 
ATOM     20  C   UNL     1       4.794  -1.091   3.291  0.00  0.00    +0.033 C 
ATOM     21  C   UNL     1       3.913  -2.297   2.960  0.00  0.00    +0.023 C 
BRANCH  19  22
ATOM     22  O   UNL     1       5.329  -2.032   5.452  0.00  0.00    -0.392 OA
ATOM     23  H   UNL     1       6.232  -2.258   5.188  0.00  0.00    +0.210 HD
ENDBRANCH  19  22
ENDBRANCH  14  16
ENDBRANCH   1  14
TORSDOF 5
