REMARK  Name = ZINC39972176
REMARK  12 active torsions:
REMARK  status: ('A' for Active; 'I' for Inactive)
REMARK    1  A    between atoms: C_1  and  C_2
REMARK    2  A    between atoms: C_5  and  C_8
REMARK    3  A    between atoms: C_11  and  N_17
REMARK    4  A    between atoms: C_12  and  C_13
REMARK    5  A    between atoms: C_13  and  O_15
REMARK    6  A    between atoms: O_15  and  C_16
REMARK    7  A    between atoms: C_18  and  C_20
REMARK    8  A    between atoms: C_20  and  N_21
REMARK    9  A    between atoms: N_24  and  C_27
REMARK   10  A    between atoms: C_27  and  C_28
REMARK   11  A    between atoms: C_31  and  S_34
REMARK   12  A    between atoms: S_34  and  C_35
REMARK                            x       y       z     vdW  Elec       q    Type
REMARK                         _______ _______ _______ _____ _____    ______ ____
ROOT
ATOM      1  N   UNL     1       1.707  -7.349   1.306  0.00  0.00    -0.278 N 
ATOM      2  C   UNL     1       1.484  -8.662   1.096  0.00  0.00    +0.232 C 
ATOM      3  O   UNL     1       0.598  -9.013   0.346  0.00  0.00    -0.274 OA
ATOM      4  H   UNL     1       2.416  -7.068   1.906  0.00  0.00    +0.155 HD
ENDROOT
BRANCH   1   8
ATOM      5  C   UNL     1       0.061  -4.255  -0.021  0.00  0.00    +0.005 A 
ATOM      6  C   UNL     1      -0.809  -4.988  -0.763  0.00  0.00    +0.056 A 
ATOM      7  S   UNL     1      -0.342  -6.666  -0.401  0.00  0.00    -0.080 S 
ATOM      8  C   UNL     1       0.925  -6.402   0.666  0.00  0.00    +0.086 A 
ATOM      9  C   UNL     1       1.016  -5.022   0.759  0.00  0.00    +0.095 A 
BRANCH   5  14
ATOM     10  C   UNL     1      -0.018   1.503   0.010  0.00  0.00    +0.044 C 
ATOM     11  C   UNL     1       0.002  -0.004   0.002  0.00  0.00    -0.050 A 
ATOM     12  C   UNL     1       0.006  -0.686  -1.201  0.00  0.00    +0.004 A 
ATOM     13  C   UNL     1       0.025  -2.066  -1.215  0.00  0.00    +0.009 A 
ATOM     14  C   UNL     1       0.041  -2.772  -0.013  0.00  0.00    -0.017 A 
ATOM     15  C   UNL     1       0.037  -2.079   1.196  0.00  0.00    +0.009 A 
ATOM     16  C   UNL     1       0.023  -0.699   1.198  0.00  0.00    +0.004 A 
ENDBRANCH   5  14
BRANCH   9  17
ATOM     17  C   UNL     1       2.018  -4.372   1.602  0.00  0.00    +0.342 C 
ATOM     18  O   UNL     1       1.762  -4.115   2.764  0.00  0.00    -0.245 OA
BRANCH  17  19
ATOM     19  O   UNL     1       3.227  -4.057   1.093  0.00  0.00    -0.464 OA
ATOM     20  C   UNL     1       4.158  -3.424   1.973  0.00  0.00    +0.280 C 
ENDBRANCH  17  19
ENDBRANCH   9  17
ENDBRANCH   1   8
BRANCH   2  21
ATOM     21  C   UNL     1       2.335  -9.692   1.792  0.00  0.00    +0.180 C 
BRANCH  21  22
ATOM     22  N   UNL     1       1.894 -11.037   1.400  0.00  0.00    -0.298 NA
ATOM     23  C   UNL     1       0.540 -11.315   1.899  0.00  0.00    +0.066 C 
ATOM     24  C   UNL     1       0.096 -12.699   1.419  0.00  0.00    -0.063 C 
ATOM     25  N   UNL     1       1.037 -13.713   1.914  0.00  0.00    +0.384 N 
ATOM     26  C   UNL     1       2.380 -13.437   1.387  0.00  0.00    -0.063 C 
ATOM     27  C   UNL     1       2.842 -12.059   1.867  0.00  0.00    +0.066 C 
ATOM     28  H   UNL     1       1.059 -13.687   2.922  0.00  0.00    -0.081 HD
BRANCH  25  29
ATOM     29  C   UNL     1       0.600 -15.043   1.468  0.00  0.00    -0.043 C 
BRANCH  29  30
ATOM     30  C   UNL     1       1.493 -16.094   2.076  0.00  0.00    -0.064 A 
ATOM     31  C   UNL     1       2.638 -16.495   1.411  0.00  0.00    +0.003 A 
ATOM     32  C   UNL     1       3.458 -17.459   1.965  0.00  0.00    +0.015 A 
ATOM     33  C   UNL     1       3.132 -18.025   3.192  0.00  0.00    +0.008 A 
ATOM     34  C   UNL     1       1.981 -17.619   3.857  0.00  0.00    +0.015 A 
ATOM     35  C   UNL     1       1.168 -16.652   3.299  0.00  0.00    +0.003 A 
BRANCH  33  36
ATOM     36  S   UNL     1       4.175 -19.255   3.902  0.00  0.00    -0.129 S 
ATOM     37  C   UNL     1       3.354 -19.678   5.463  0.00  0.00    +0.090 C 
ENDBRANCH  33  36
ENDBRANCH  29  30
ENDBRANCH  25  29
ENDBRANCH  21  22
ENDBRANCH   2  21
TORSDOF 9
