REMARK  Name = ZINC15906479
REMARK  8 active torsions:
REMARK  status: ('A' for Active; 'I' for Inactive)
REMARK    1  A    between atoms: C_1  and  C_2
REMARK    2  A    between atoms: C_7  and  C_9
REMARK    3  A    between atoms: C_7  and  C_10
REMARK    4  A    between atoms: N_11  and  S_13
REMARK    5  A    between atoms: S_13  and  C_16
REMARK    6  A    between atoms: C_19  and  C_22
REMARK    7  A    between atoms: N_24  and  N_25
REMARK    8  A    between atoms: C_29  and  N_36
REMARK                            x       y       z     vdW  Elec       q    Type
REMARK                         _______ _______ _______ _____ _____    ______ ____
ROOT
ATOM      1  C   UNL     1      -0.634  -2.543  -4.124  0.00  0.00    +0.106 A 
ATOM      2  C   UNL     1      -1.882  -3.120  -4.277  0.00  0.00    +0.029 A 
ATOM      3  C   UNL     1      -2.661  -2.806  -5.372  0.00  0.00    +0.015 A 
ATOM      4  C   UNL     1      -2.188  -1.903  -6.325  0.00  0.00    +0.038 A 
ATOM      5  C   UNL     1      -0.927  -1.324  -6.164  0.00  0.00    +0.015 A 
ATOM      6  C   UNL     1      -0.161  -1.643  -5.062  0.00  0.00    +0.029 A 
ENDROOT
BRANCH   4   7
ATOM      7  C   UNL     1      -3.016  -1.562  -7.500  0.00  0.00    +0.263 C 
ATOM      8  O   UNL     1      -4.112  -2.068  -7.638  0.00  0.00    -0.268 OA
ATOM      9  N   UNL     1      -2.556  -0.690  -8.419  0.00  0.00    -0.202 N 
ATOM     10  H   UNL     1      -1.681  -0.286  -8.309  0.00  0.00    +0.178 HD
BRANCH   9  11
ATOM     11  N   UNL     1      -3.341  -0.367  -9.533  0.00  0.00    -0.174 NA
ATOM     12  C   UNL     1      -2.894   0.481 -10.427  0.00  0.00    +0.153 C 
ATOM     13  C   UNL     1      -3.581   0.944 -11.656  0.00  0.00    +0.030 A 
ATOM     14  C   UNL     1      -4.819   0.656 -12.220  0.00  0.00    +0.044 A 
ATOM     15  C   UNL     1      -5.188   1.260 -13.405  0.00  0.00    +0.127 A 
ATOM     16  C   UNL     1      -4.328   2.149 -14.028  0.00  0.00    +0.034 A 
ATOM     17  C   UNL     1      -3.097   2.441 -13.476  0.00  0.00    +0.026 A 
ATOM     18  C   UNL     1      -2.708   1.842 -12.283  0.00  0.00    +0.043 A 
ATOM     19  N   UNL     1      -1.546   1.958 -11.527  0.00  0.00    -0.280 N 
ATOM     20  C   UNL     1      -1.598   1.189 -10.426  0.00  0.00    +0.269 C 
ATOM     21  O   UNL     1      -0.730   1.092  -9.579  0.00  0.00    -0.268 OA
ATOM     22  H   UNL     1      -0.795   2.524 -11.763  0.00  0.00    +0.155 HD
BRANCH  15  23
ATOM     23  N   UNL     1      -6.504   0.958 -14.011  0.00  0.00    +0.056 N 
ATOM     24  O   UNL     1      -7.255   0.181 -13.467  0.00  0.00    -0.126 OA
ATOM     25  O   UNL     1      -6.828   1.486 -15.048  0.00  0.00    -0.126 OA
ENDBRANCH  15  23
ENDBRANCH   9  11
ENDBRANCH   4   7
BRANCH   1  26
ATOM     26  S   UNL     1       0.354  -2.950  -2.723  0.00  0.00    +0.061 S 
ATOM     27  O   UNL     1       1.703  -2.689  -3.088  0.00  0.00    -0.153 OA
ATOM     28  O   UNL     1      -0.081  -4.227  -2.276  0.00  0.00    -0.153 OA
BRANCH  26  38
ATOM     29  C   UNL     1      -0.019   1.532   0.011  0.00  0.00    +0.012 C 
ATOM     30  C   UNL     1       0.002  -0.004   0.002  0.00  0.00    -0.016 C 
ATOM     31  C   UNL     1      -1.426  -0.615  -0.029  0.00  0.00    +0.028 C 
ATOM     32  C   UNL     1      -1.084  -2.048  -0.507  0.00  0.00    +0.081 C 
ATOM     33  C   UNL     1      -0.495  -2.791   0.691  0.00  0.00    +0.027 C 
ATOM     34  C   UNL     1       0.724  -2.107   1.283  0.00  0.00    -0.033 C 
ATOM     35  C   UNL     1       0.726  -0.591   1.212  0.00  0.00    +0.014 C 
ATOM     36  C   UNL     1       1.999  -2.669   0.639  0.00  0.00    +0.011 C 
ATOM     37  C   UNL     1       0.781  -2.494   2.782  0.00  0.00    +0.011 C 
ATOM     38  N   UNL     1      -0.028  -1.873  -1.524  0.00  0.00    -0.173 NA
ATOM     39  C   UNL     1       0.625  -0.576  -1.292  0.00  0.00    +0.116 C 
ENDBRANCH  26  38
ENDBRANCH   1  26
TORSDOF 5
