REMARK  Name = ZINC63270120
REMARK  8 active torsions:
REMARK  status: ('A' for Active; 'I' for Inactive)
REMARK    1  A    between atoms: C_1  and  C_2
REMARK    2  A    between atoms: C_6  and  O_8
REMARK    3  A    between atoms: O_8  and  C_9
REMARK    4  A    between atoms: C_9  and  C_10
REMARK    5  A    between atoms: C_10  and  C_12
REMARK    6  A    between atoms: C_13  and  C_33
REMARK    7  A    between atoms: C_15  and  C_20
REMARK    8  A    between atoms: C_20  and  C_21
REMARK                            x       y       z     vdW  Elec       q    Type
REMARK                         _______ _______ _______ _____ _____    ______ ____
ROOT
ATOM      1  C   UNL     1      -0.018   1.503   0.010  0.00  0.00    +0.044 C 
ATOM      2  C   UNL     1       0.002  -0.004   0.002  0.00  0.00    -0.044 A 
ATOM      3  C   UNL     1       0.006  -0.688  -1.197  0.00  0.00    +0.050 A 
ATOM      4  C   UNL     1       0.022  -2.079  -1.212  0.00  0.00    +0.139 A 
ATOM      5  C   UNL     1       0.031  -2.781  -0.021  0.00  0.00    +0.040 A 
ATOM      6  C   UNL     1       0.033  -2.088   1.185  0.00  0.00    +0.128 A 
ATOM      7  C   UNL     1       0.023  -0.702   1.194  0.00  0.00    +0.049 A 
ATOM      8  C   UNL     1       0.026  -4.288   0.017  0.00  0.00    +0.037 C 
ATOM      9  C   UNL     1       0.512  -4.843  -1.326  0.00  0.00    +0.114 C 
ATOM     10  C   UNL     1      -0.164  -4.045  -2.423  0.00  0.00    +0.317 C 
ATOM     11  O   UNL     1      -0.849  -4.579  -3.263  0.00  0.00    -0.250 OA
ATOM     12  O   UNL     1       0.036  -2.712  -2.417  0.00  0.00    -0.425 OA
ATOM     13  C   UNL     1      -1.395  -4.786   0.286  0.00  0.00    +0.013 C 
ENDROOT
BRANCH   6  14
ATOM     14  O   UNL     1       0.049  -2.772   2.359  0.00  0.00    -0.487 OA
BRANCH  14  15
ATOM     15  C   UNL     1       0.050  -1.999   3.561  0.00  0.00    +0.259 C 
BRANCH  15  16
ATOM     16  C   UNL     1       0.068  -2.922   4.752  0.00  0.00    -0.043 C 
ATOM     17  C   UNL     1       0.080  -4.220   4.575  0.00  0.00    +0.011 C 
ATOM     18  C   UNL     1       0.073  -2.352   6.147  0.00  0.00    +0.042 C 
ENDBRANCH  15  16
ENDBRANCH  14  15
ENDBRANCH   6  14
BRANCH   9  19
ATOM     19  C   UNL     1       2.031  -4.690  -1.431  0.00  0.00    +0.111 C 
BRANCH  19  20
ATOM     20  C   UNL     1       2.515  -5.348  -2.698  0.00  0.00    +0.217 C 
ATOM     21  O   UNL     1       1.723  -5.886  -3.443  0.00  0.00    -0.276 OA
ATOM     22  N   UNL     1       3.828  -5.338  -3.003  0.00  0.00    -0.295 N 
ATOM     23  C   UNL     1       4.320  -5.969  -4.237  0.00  0.00    +0.114 C 
ATOM     24  C   UNL     1       4.920  -4.891  -5.149  0.00  0.00    +0.074 C 
ATOM     25  C   UNL     1       5.800  -3.988  -4.322  0.00  0.00    +0.039 A 
ATOM     26  H   UNL     1       6.880  -2.703  -1.690  0.00  0.00    +0.166 HD
ATOM     27  C   UNL     1       5.748  -3.897  -2.976  0.00  0.00    +0.054 A 
ATOM     28  N   UNL     1       6.683  -2.984  -2.597  0.00  0.00    -0.348 N 
ATOM     29  C   UNL     1       7.284  -2.543  -3.726  0.00  0.00    +0.171 A 
ATOM     30  N   UNL     1       6.749  -3.151  -4.753  0.00  0.00    -0.349 N 
ATOM     31  C   UNL     1       4.807  -4.690  -2.111  0.00  0.00    +0.162 C 
ATOM     32  H   UNL     1       7.000  -3.016  -5.680  0.00  0.00    +0.166 HD
ENDBRANCH  19  20
ENDBRANCH   9  19
TORSDOF 5
