REMARK  Name = ZINC43615404
REMARK  11 active torsions:
REMARK  status: ('A' for Active; 'I' for Inactive)
REMARK    1  A    between atoms: C_1  and  C_2
REMARK    2  A    between atoms: C_2  and  O_3
REMARK    3  A    between atoms: O_3  and  C_4
REMARK    4  A    between atoms: C_4  and  C_6
REMARK    5  A    between atoms: C_6  and  C_8
REMARK    6  A    between atoms: C_6  and  C_9
REMARK    7  A    between atoms: C_9  and  N_10
REMARK    8  A    between atoms: N_13  and  C_16
REMARK    9  A    between atoms: C_16  and  C_17
REMARK   10  A    between atoms: C_16  and  C_18
REMARK   11  A    between atoms: C_16  and  C_19
REMARK                            x       y       z     vdW  Elec       q    Type
REMARK                         _______ _______ _______ _____ _____    ______ ____
ROOT
ATOM      1  N   UNL     1       2.295  -4.465   3.523  0.00  0.00    -0.305 NA
ATOM      2  C   UNL     1       3.717  -4.131   3.363  0.00  0.00    +0.066 C 
ATOM      3  C   UNL     1       4.504  -4.676   4.557  0.00  0.00    -0.062 C 
ATOM      4  N   UNL     1       4.331  -6.133   4.633  0.00  0.00    +0.385 N 
ATOM      5  C   UNL     1       2.909  -6.450   4.817  0.00  0.00    -0.062 C 
ATOM      6  C   UNL     1       2.109  -5.919   3.626  0.00  0.00    +0.066 C 
ATOM      7  H   UNL     1       4.662  -6.555   3.778  0.00  0.00    -0.081 HD
ENDROOT
BRANCH   4   8
ATOM      8  C   UNL     1       5.101  -6.658   5.768  0.00  0.00    -0.074 C 
ATOM      9  C   UNL     1       4.601  -6.017   7.064  0.00  0.00    -0.010 C 
ATOM     10  C   UNL     1       4.921  -8.175   5.848  0.00  0.00    -0.010 C 
ATOM     11  C   UNL     1       6.583  -6.329   5.575  0.00  0.00    -0.010 C 
ENDBRANCH   4   8
BRANCH   1  12
ATOM     12  C   UNL     1       1.496  -3.909   2.423  0.00  0.00    +0.098 C 
BRANCH  12  13
ATOM     13  C   UNL     1       1.516  -2.381   2.500  0.00  0.00    +0.109 C 
ATOM     14  C   UNL     1       0.814  -1.926   3.781  0.00  0.00    +0.020 C 
BRANCH  13  15
ATOM     15  C   UNL     1       0.801  -1.808   1.304  0.00  0.00    +0.311 C 
ATOM     16  O   UNL     1       0.324  -2.546   0.475  0.00  0.00    -0.251 OA
BRANCH  15  17
ATOM     17  O   UNL     1       0.693  -0.477   1.160  0.00  0.00    -0.465 OA
BRANCH  17  19
ATOM     18  C   UNL     1      -0.019   1.526   0.010  0.00  0.00    +0.048 C 
ATOM     19  C   UNL     1       0.002  -0.004   0.002  0.00  0.00    +0.229 C 
ENDBRANCH  17  19
ENDBRANCH  15  17
ENDBRANCH  13  15
ENDBRANCH  12  13
ENDBRANCH   1  12
TORSDOF 6
