REMARK  Name = ZINC31169578
REMARK  6 active torsions:
REMARK  status: ('A' for Active; 'I' for Inactive)
REMARK    1  A    between atoms: C_3  and  C_26
REMARK    2  A    between atoms: C_6  and  C_7
REMARK    3  A    between atoms: C_7  and  N_8
REMARK    4  A    between atoms: N_8  and  C_9
REMARK    5  A    between atoms: C_12  and  C_14
REMARK    6  A    between atoms: C_17  and  C_19
REMARK                            x       y       z     vdW  Elec       q    Type
REMARK                         _______ _______ _______ _____ _____    ______ ____
ROOT
ATOM      1  N   UNL     1      -0.614   1.201  -1.423  0.00  0.00    -0.290 N 
ATOM      2  C   UNL     1      -1.272   0.199  -2.038  0.00  0.00    +0.254 C 
ATOM      3  O   UNL     1      -1.829   0.400  -3.101  0.00  0.00    -0.269 OA
ENDROOT
BRANCH   2   4
ATOM      4  C   UNL     1      -1.318  -1.132  -1.427  0.00  0.00    +0.075 A 
ATOM      5  C   UNL     1      -1.781  -2.323  -1.966  0.00  0.00    +0.021 A 
ATOM      6  C   UNL     1      -1.720  -3.455  -1.203  0.00  0.00    +0.017 A 
ATOM      7  C   UNL     1      -1.211  -3.367   0.082  0.00  0.00    +0.020 A 
ATOM      8  S   UNL     1      -0.800  -1.635   0.206  0.00  0.00    -0.084 S 
BRANCH   7   9
ATOM      9  C   UNL     1      -1.048  -4.434   1.092  0.00  0.00    -0.011 A 
ATOM     10  C   UNL     1      -1.441  -5.742   0.799  0.00  0.00    +0.010 A 
ATOM     11  C   UNL     1      -1.282  -6.734   1.743  0.00  0.00    +0.020 A 
ATOM     12  C   UNL     1      -0.745  -6.434   2.984  0.00  0.00    +0.041 A 
ATOM     13  C   UNL     1      -0.359  -5.138   3.282  0.00  0.00    +0.020 A 
ATOM     14  C   UNL     1      -0.508  -4.138   2.344  0.00  0.00    +0.010 A 
ATOM     15 CL   UNL     1      -0.555  -7.687   4.170  0.00  0.00    -0.084 Cl
ENDBRANCH   7   9
ENDBRANCH   2   4
BRANCH   1  16
ATOM     16  C   UNL     1      -0.462   2.496  -2.090  0.00  0.00    +0.077 C 
ATOM     17  C   UNL     1      -1.397   2.801  -3.262  0.00  0.00    +0.024 C 
ATOM     18  C   UNL     1       0.079   2.495  -3.521  0.00  0.00    +0.024 C 
ENDBRANCH   1  16
BRANCH   1  19
ATOM     19  C   UNL     1      -0.048   0.994  -0.087  0.00  0.00    +0.143 C 
BRANCH  19  25
ATOM     20  C   UNL     1      -0.820   2.791   1.474  0.00  0.00    +0.006 A 
ATOM     21  C   UNL     1      -1.695   3.284   2.421  0.00  0.00    +0.013 A 
ATOM     22  C   UNL     1      -2.761   2.497   2.858  0.00  0.00    +0.037 A 
ATOM     23  C   UNL     1      -2.938   1.217   2.329  0.00  0.00    +0.013 A 
ATOM     24  C   UNL     1      -2.060   0.738   1.379  0.00  0.00    +0.006 A 
ATOM     25  C   UNL     1      -1.004   1.524   0.951  0.00  0.00    -0.030 A 
BRANCH  22  26
ATOM     26  C   UNL     1      -3.699   3.016   3.875  0.00  0.00    +0.242 C 
ATOM     27  O   UNL     1      -4.627   2.328   4.254  0.00  0.00    -0.270 OA
ATOM     28  N   UNL     1      -3.525   4.252   4.384  0.00  0.00    -0.325 N 
ATOM     29  H   UNL     1      -4.223   4.639   5.141  0.00  0.00    +0.145 HD
ATOM     30  H   UNL     1      -2.685   4.874   4.041  0.00  0.00    +0.145 HD
ENDBRANCH  22  26
ENDBRANCH  19  25
ENDBRANCH   1  19
TORSDOF 6
