REMARK  Name = ZINC36504382
REMARK  9 active torsions:
REMARK  status: ('A' for Active; 'I' for Inactive)
REMARK    1  A    between atoms: C_4  and  C_7
REMARK    2  A    between atoms: N_9  and  C_10
REMARK    3  A    between atoms: C_10  and  C_11
REMARK    4  A    between atoms: N_13  and  C_14
REMARK    5  A    between atoms: N_13  and  C_20
REMARK    6  A    between atoms: C_14  and  C_15
REMARK    7  A    between atoms: C_20  and  C_22
REMARK    8  A    between atoms: C_20  and  C_27
REMARK    9  A    between atoms: N_29  and  C_30
REMARK                            x       y       z     vdW  Elec       q    Type
REMARK                         _______ _______ _______ _____ _____    ______ ____
ROOT
ATOM      1  C   UNL     1       3.539  -4.470  -0.324  0.00  0.00    +0.234 C 
ATOM      2  O   UNL     1       2.753  -5.327  -0.669  0.00  0.00    -0.274 OA
ATOM      3  N   UNL     1       4.790  -4.812   0.041  0.00  0.00    -0.275 N 
ENDROOT
BRANCH   1   4
ATOM      4  C   UNL     1       3.116  -3.024  -0.303  0.00  0.00    +0.200 C 
BRANCH   4   7
ATOM      5  C   UNL     1       1.169  -1.695  -0.920  0.00  0.00    +0.244 C 
ATOM      6  O   UNL     1       1.764  -0.703  -0.544  0.00  0.00    -0.270 OA
ATOM      7  N   UNL     1       1.759  -2.904  -0.842  0.00  0.00    -0.303 N 
ATOM      8  H   UNL     1       1.284  -3.696  -1.141  0.00  0.00    +0.150 HD
BRANCH   5  12
ATOM      9  C   UNL     1      -2.765  -1.347  -2.483  0.00  0.00    +0.000 A 
ATOM     10  C   UNL     1      -2.091  -0.217  -2.055  0.00  0.00    +0.001 A 
ATOM     11  C   UNL     1      -0.814  -0.323  -1.547  0.00  0.00    +0.013 A 
ATOM     12  C   UNL     1      -0.200  -1.574  -1.464  0.00  0.00    +0.037 A 
ATOM     13  C   UNL     1      -0.885  -2.710  -1.897  0.00  0.00    +0.013 A 
ATOM     14  C   UNL     1      -2.163  -2.591  -2.403  0.00  0.00    +0.001 A 
ENDBRANCH   5  12
ENDBRANCH   4   7
ENDBRANCH   1   4
BRANCH   3  15
ATOM     15  C   UNL     1       5.715  -3.787   0.533  0.00  0.00    +0.183 C 
BRANCH  15  16
ATOM     16  C   UNL     1       5.458  -3.539   1.997  0.00  0.00    +0.122 A 
ATOM     17  C   UNL     1       6.252  -3.925   3.012  0.00  0.00    +0.046 A 
ATOM     18  C   UNL     1       5.633  -3.488   4.205  0.00  0.00    +0.041 A 
ATOM     19  C   UNL     1       4.497  -2.861   3.849  0.00  0.00    +0.195 A 
ATOM     20  O   UNL     1       4.399  -2.891   2.509  0.00  0.00    -0.466 OA
ENDBRANCH  15  16
ENDBRANCH   3  15
BRANCH   3  21
ATOM     21  C   UNL     1       5.226  -6.207  -0.053  0.00  0.00    +0.229 C 
BRANCH  21  22
ATOM     22  C   UNL     1       5.689  -6.682   1.300  0.00  0.00    +0.134 A 
ATOM     23  C   UNL     1       5.017  -7.515   2.114  0.00  0.00    +0.047 A 
ATOM     24  C   UNL     1       5.812  -7.690   3.269  0.00  0.00    +0.041 A 
ATOM     25  C   UNL     1       6.924  -6.953   3.093  0.00  0.00    +0.195 A 
ATOM     26  O   UNL     1       6.846  -6.349   1.895  0.00  0.00    -0.465 OA
ENDBRANCH  21  22
BRANCH  21  27
ATOM     27  C   UNL     1       6.362  -6.313  -1.038  0.00  0.00    +0.241 C 
ATOM     28  O   UNL     1       6.767  -5.321  -1.606  0.00  0.00    -0.273 OA
ATOM     29  N   UNL     1       6.927  -7.511  -1.289  0.00  0.00    -0.311 N 
ATOM     30  H   UNL     1       6.603  -8.305  -0.836  0.00  0.00    +0.149 HD
BRANCH  29  31
ATOM     31  C   UNL     1       8.031  -7.614  -2.247  0.00  0.00    +0.073 C 
ATOM     32  C   UNL     1       7.466  -7.748  -3.663  0.00  0.00    +0.022 C 
ATOM     33  C   UNL     1       8.619  -7.856  -4.663  0.00  0.00    +0.002 C 
ATOM     34  C   UNL     1       9.467  -9.086  -4.333  0.00  0.00    +0.000 C 
ATOM     35  C   UNL     1      10.031  -8.952  -2.917  0.00  0.00    +0.002 C 
ATOM     36  C   UNL     1       8.879  -8.844  -1.917  0.00  0.00    +0.022 C 
ENDBRANCH  29  31
ENDBRANCH  21  27
ENDBRANCH   3  21
TORSDOF 9
