REMARK  Name = ZINC36005345
REMARK  15 active torsions:
REMARK  status: ('A' for Active; 'I' for Inactive)
REMARK    1  A    between atoms: C_1  and  C_2
REMARK    2  A    between atoms: C_2  and  N_3
REMARK    3  A    between atoms: C_4  and  C_24
REMARK    4  A    between atoms: C_5  and  C_19
REMARK    5  A    between atoms: C_6  and  C_11
REMARK    6  A    between atoms: C_14  and  C_18
REMARK    7  A    between atoms: C_16  and  C_17
REMARK    8  A    between atoms: C_19  and  O_21
REMARK    9  A    between atoms: O_21  and  C_22
REMARK   10  A    between atoms: C_22  and  C_23
REMARK   11  A    between atoms: C_24  and  N_25
REMARK   12  A    between atoms: C_32  and  C_34
REMARK   13  A    between atoms: C_34  and  C_35
REMARK   14  A    between atoms: C_35  and  C_36
REMARK   15  A    between atoms: C_35  and  C_37
REMARK                            x       y       z     vdW  Elec       q    Type
REMARK                         _______ _______ _______ _____ _____    ______ ____
ROOT
ATOM      1  N   UNL     1      -1.097  -0.235   0.032  0.00  0.00    -0.261 N 
ATOM      2  C   UNL     1      -1.615  -0.617   1.237  0.00  0.00    +0.010 C 
ATOM      3  C   UNL     1      -2.745  -1.353   1.308  0.00  0.00    +0.076 C 
ATOM      4  C   UNL     1      -3.417  -1.740   0.007  0.00  0.00    +0.144 C 
ATOM      5  N   UNL     1      -2.779  -1.279  -1.238  0.00  0.00    -0.288 N 
ATOM      6  C   UNL     1      -1.652  -0.545  -1.146  0.00  0.00    +0.307 C 
ATOM      7  O   UNL     1      -1.120  -0.156  -2.167  0.00  0.00    -0.252 OA
ATOM      8  H   UNL     1      -3.162  -1.495  -2.102  0.00  0.00    +0.151 HD
ENDROOT
BRANCH   4   9
ATOM      9  C   UNL     1      -3.499  -3.244  -0.044  0.00  0.00    -0.020 A 
ATOM     10  C   UNL     1      -2.706  -4.009   0.791  0.00  0.00    +0.006 A 
ATOM     11  C   UNL     1      -2.780  -5.388   0.744  0.00  0.00    +0.004 A 
ATOM     12  C   UNL     1      -3.649  -6.003  -0.138  0.00  0.00    -0.050 A 
ATOM     13  C   UNL     1      -4.443  -5.240  -0.973  0.00  0.00    +0.007 A 
ATOM     14  C   UNL     1      -4.371  -3.860  -0.923  0.00  0.00    -0.045 A 
ATOM     15  C   UNL     1      -5.240  -3.027  -1.829  0.00  0.00    +0.044 C 
ATOM     16  C   UNL     1      -3.730  -7.507  -0.190  0.00  0.00    +0.044 C 
ENDBRANCH   4   9
BRANCH   1  18
ATOM     17  C   UNL     1      -0.227   2.050   0.017  0.00  0.00    +0.025 C 
ATOM     18  C   UNL     1       0.132   0.563   0.029  0.00  0.00    +0.111 C 
ENDBRANCH   1  18
BRANCH   3  19
ATOM     19  C   UNL     1      -3.282  -1.750   2.555  0.00  0.00    +0.339 C 
ATOM     20  O   UNL     1      -2.736  -1.410   3.588  0.00  0.00    -0.245 OA
BRANCH  19  21
ATOM     21  O   UNL     1      -4.399  -2.505   2.599  0.00  0.00    -0.462 OA
BRANCH  21  22
ATOM     22  C   UNL     1      -4.950  -2.775   3.890  0.00  0.00    +0.229 C 
ATOM     23  C   UNL     1      -6.132  -3.736   3.750  0.00  0.00    +0.048 C 
ENDBRANCH  21  22
ENDBRANCH  19  21
ENDBRANCH   3  19
BRANCH   2  24
ATOM     24  C   UNL     1      -0.914  -0.210   2.507  0.00  0.00    -0.026 C 
BRANCH  24  25
ATOM     25  N   UNL     1      -0.114  -1.336   3.007  0.00  0.00    +0.384 N 
ATOM     26  C   UNL     1       0.321  -1.025   4.367  0.00  0.00    -0.077 C 
ATOM     27  C   UNL     1       0.482  -2.311   5.146  0.00  0.00    +0.000 C 
ATOM     28  C   UNL     1       1.945  -2.783   5.058  0.00  0.00    +0.106 C 
ATOM     29  N   UNL     1       2.491  -2.570   3.703  0.00  0.00    -0.303 N 
ATOM     30  C   UNL     1       1.723  -2.843   2.506  0.00  0.00    +0.089 C 
ATOM     31  C   UNL     1       0.932  -1.581   2.090  0.00  0.00    -0.059 C 
ATOM     32  C   UNL     1       3.749  -2.103   3.575  0.00  0.00    +0.216 C 
ATOM     33  O   UNL     1       4.219  -1.920   2.472  0.00  0.00    -0.276 OA
ATOM     34  H   UNL     1      -0.704  -2.153   3.043  0.00  0.00    -0.081 HD
BRANCH  32  35
ATOM     35  C   UNL     1       4.572  -1.810   4.803  0.00  0.00    +0.099 C 
BRANCH  35  36
ATOM     36  C   UNL     1       5.950  -1.296   4.382  0.00  0.00    -0.008 C 
ATOM     37  C   UNL     1       5.798   0.047   3.666  0.00  0.00    +0.008 C 
ATOM     38  C   UNL     1       6.828  -1.117   5.622  0.00  0.00    +0.008 C 
ENDBRANCH  35  36
ENDBRANCH  32  35
ENDBRANCH  24  25
ENDBRANCH   2  24
TORSDOF 9
