REMARK  Name = ZINC63385006
REMARK  6 active torsions:
REMARK  status: ('A' for Active; 'I' for Inactive)
REMARK    1  A    between atoms: C_1  and  C_2
REMARK    2  A    between atoms: C_14  and  C_19
REMARK    3  A    between atoms: C_16  and  C_18
REMARK    4  A    between atoms: C_19  and  C_20
REMARK    5  A    between atoms: C_20  and  C_21
REMARK    6  A    between atoms: N_23  and  C_24
REMARK                            x       y       z     vdW  Elec       q    Type
REMARK                         _______ _______ _______ _____ _____    ______ ____
ROOT
ATOM      1  C   UNL     1      -1.911  -2.862   5.535  0.00  0.00    +0.024 C 
ENDROOT
BRANCH   1  15
ATOM      2  C   UNL     1      -0.018   1.503   0.010  0.00  0.00    +0.047 C 
ATOM      3  C   UNL     1       0.002  -0.004   0.002  0.00  0.00    -0.005 A 
ATOM      4  C   UNL     1       0.009  -0.802  -1.074  0.00  0.00    +0.199 A 
ATOM      5  O   UNL     1       0.028  -2.092  -0.694  0.00  0.00    -0.463 OA
ATOM      6  C   UNL     1       0.033  -2.197   0.651  0.00  0.00    +0.139 A 
ATOM      7  C   UNL     1       0.025  -0.892   1.171  0.00  0.00    +0.024 A 
ATOM      8  C   UNL     1       0.039  -0.690   2.549  0.00  0.00    +0.019 A 
ATOM      9  C   UNL     1       0.059  -1.762   3.403  0.00  0.00    -0.001 A 
ATOM     10  C   UNL     1       0.064  -3.056   2.897  0.00  0.00    +0.139 A 
ATOM     11  C   UNL     1       0.048  -3.273   1.526  0.00  0.00    +0.093 A 
ATOM     12  O   UNL     1       0.063  -4.144   3.715  0.00  0.00    -0.425 OA
ATOM     13  C   UNL     1       0.281  -3.937   5.029  0.00  0.00    +0.316 C 
ATOM     14  O   UNL     1       0.978  -4.678   5.680  0.00  0.00    -0.250 OA
ATOM     15  C   UNL     1      -0.391  -2.729   5.652  0.00  0.00    +0.106 C 
ATOM     16  C   UNL     1       0.084  -1.490   4.887  0.00  0.00    +0.033 C 
ATOM     17  C   UNL     1      -0.841  -0.312   5.202  0.00  0.00    +0.013 C 
ENDBRANCH   1  15
BRANCH   1  18
ATOM     18  C   UNL     1      -2.383  -4.056   6.367  0.00  0.00    +0.097 C 
BRANCH  18  19
ATOM     19  C   UNL     1      -3.880  -4.188   6.252  0.00  0.00    +0.216 C 
ATOM     20  O   UNL     1      -4.507  -3.403   5.572  0.00  0.00    -0.276 OA
ATOM     21  N   UNL     1      -4.522  -5.176   6.905  0.00  0.00    -0.278 N 
ATOM     22  H   UNL     1      -4.020  -5.804   7.449  0.00  0.00    +0.152 HD
BRANCH  21  23
ATOM     23  C   UNL     1      -5.977  -5.304   6.794  0.00  0.00    +0.269 C 
ATOM     24  N   UNL     1      -6.637  -4.314   7.654  0.00  0.00    -0.348 N 
ATOM     25  C   UNL     1      -7.355  -4.967   8.521  0.00  0.00    +0.061 A 
ATOM     26  C   UNL     1      -8.226  -4.537   9.623  0.00  0.00    +0.027 A 
ATOM     27  C   UNL     1      -8.857  -5.462  10.373  0.00  0.00    +0.002 A 
ATOM     28  C   UNL     1      -8.719  -6.843  10.147  0.00  0.00    +0.002 A 
ATOM     29  C   UNL     1      -7.944  -7.345   9.164  0.00  0.00    +0.027 A 
ATOM     30  C   UNL     1      -7.208  -6.429   8.282  0.00  0.00    +0.061 A 
ATOM     31  N   UNL     1      -6.405  -6.623   7.276  0.00  0.00    -0.348 N 
ATOM     32  H   UNL     1      -6.553  -3.350   7.588  0.00  0.00    +0.163 HD
ATOM     33  H   UNL     1      -6.140  -7.482   6.911  0.00  0.00    +0.163 HD
ENDBRANCH  21  23
ENDBRANCH  18  19
ENDBRANCH   1  18
TORSDOF 4
