REMARK  Name = ZINC32510718
REMARK  10 active torsions:
REMARK  status: ('A' for Active; 'I' for Inactive)
REMARK    1  A    between atoms: C_1  and  C_2
REMARK    2  A    between atoms: C_2  and  N_3
REMARK    3  A    between atoms: N_3  and  C_4
REMARK    4  A    between atoms: N_3  and  C_16
REMARK    5  A    between atoms: C_4  and  C_5
REMARK    6  A    between atoms: N_7  and  C_8
REMARK    7  A    between atoms: C_13  and  C_14
REMARK    8  A    between atoms: C_16  and  C_17
REMARK    9  A    between atoms: C_20  and  C_30
REMARK   10  A    between atoms: C_23  and  C_25
REMARK                            x       y       z     vdW  Elec       q    Type
REMARK                         _______ _______ _______ _____ _____    ______ ____
ROOT
ATOM      1  C   UNL     1       0.456  -2.955  -0.217  0.00  0.00    +0.021 C 
ENDROOT
BRANCH   1   2
ATOM      2  C   UNL     1       1.619  -2.051  -0.535  0.00  0.00    +0.219 C 
ATOM      3  O   UNL     1       2.756  -2.459  -0.412  0.00  0.00    -0.276 OA
ATOM      4  N   UNL     1       1.398  -0.790  -0.955  0.00  0.00    -0.186 N 
ATOM      5  C   UNL     1       2.438   0.193  -1.298  0.00  0.00    +0.143 C 
ATOM      6  C   UNL     1       1.635   1.443  -1.707  0.00  0.00    +0.090 C 
ATOM      7  C   UNL     1       0.192   1.019  -1.547  0.00  0.00    +0.104 C 
ATOM      8  N   UNL     1       0.146  -0.205  -1.136  0.00  0.00    -0.178 NA
BRANCH   7   9
ATOM      9  C   UNL     1      -0.974   1.864  -1.821  0.00  0.00    +0.150 A 
ATOM     10  C   UNL     1      -2.281   1.493  -1.693  0.00  0.00    +0.051 A 
ATOM     11  C   UNL     1      -3.056   2.609  -2.057  0.00  0.00    +0.042 A 
ATOM     12  C   UNL     1      -2.199   3.594  -2.394  0.00  0.00    +0.196 A 
ATOM     13  O   UNL     1      -0.943   3.141  -2.251  0.00  0.00    -0.462 OA
ENDBRANCH   7   9
BRANCH   5  14
ATOM     14  C   UNL     1       3.303   0.487  -0.100  0.00  0.00    +0.013 A 
ATOM     15  C   UNL     1       4.643   0.689  -0.043  0.00  0.00    +0.013 A 
ATOM     16  C   UNL     1       5.230   0.951   1.180  0.00  0.00    +0.008 A 
ATOM     17  C   UNL     1       4.451   0.988   2.289  0.00  0.00    +0.045 A 
ATOM     18  S   UNL     1       2.832   0.654   1.614  0.00  0.00    -0.100 S 
ENDBRANCH   5  14
ENDBRANCH   1   2
BRANCH   1  19
ATOM     19  N   UNL     1       0.959  -4.266   0.216  0.00  0.00    +0.391 N 
ATOM     20  H   UNL     1       1.671  -4.623  -0.542  0.00  0.00    -0.080 HD
BRANCH  19  22
ATOM     21  C   UNL     1       0.746  -3.561   2.552  0.00  0.00    -0.017 C 
ATOM     22  C   UNL     1       1.676  -4.158   1.494  0.00  0.00    -0.081 C 
ENDBRANCH  19  22
BRANCH  19  23
ATOM     23  C   UNL     1      -0.133  -5.244   0.307  0.00  0.00    +0.020 C 
BRANCH  23  24
ATOM     24  C   UNL     1       0.443  -6.636   0.356  0.00  0.00    +0.201 C 
ATOM     25  O   UNL     1       1.636  -6.804   0.218  0.00  0.00    -0.278 OA
ATOM     26  N   UNL     1      -0.368  -7.694   0.554  0.00  0.00    -0.287 N 
ATOM     27  H   UNL     1      -1.458  -7.552   0.595  0.00  0.00    +0.155 HD
BRANCH  26  28
ATOM     28  C   UNL     1       0.176  -8.974   0.707  0.00  0.00    +0.038 A 
ATOM     29  C   UNL     1       1.391  -9.289   0.112  0.00  0.00    +0.043 A 
ATOM     30  C   UNL     1       1.926 -10.554   0.266  0.00  0.00    +0.043 A 
ATOM     31  C   UNL     1       1.252 -11.506   1.010  0.00  0.00    +0.020 A 
ATOM     32  C   UNL     1       0.042 -11.195   1.603  0.00  0.00    +0.006 A 
ATOM     33  C   UNL     1      -0.494  -9.930   1.458  0.00  0.00    -0.029 A 
ATOM     34  C   UNL     1      -1.810  -9.590   2.110  0.00  0.00    +0.045 C 
ATOM     35 CL   UNL     1       3.445 -10.949  -0.477  0.00  0.00    -0.083 Cl
ENDBRANCH  26  28
ENDBRANCH  23  24
ENDBRANCH  19  23
ENDBRANCH   1  19
TORSDOF 8
