REMARK  Name = ZINC40783701
REMARK  5 active torsions:
REMARK  status: ('A' for Active; 'I' for Inactive)
REMARK    1  A    between atoms: C_4  and  C_7
REMARK    2  A    between atoms: C_7  and  C_8
REMARK    3  A    between atoms: C_7  and  N_14
REMARK    4  A    between atoms: C_16  and  N_33
REMARK    5  A    between atoms: C_17  and  N_21
REMARK                            x       y       z     vdW  Elec       q    Type
REMARK                         _______ _______ _______ _____ _____    ______ ____
ROOT
ATOM      1  N   UNL     1       3.625  -1.891  -0.856  0.00  0.00    -0.317 N 
ATOM      2  C   UNL     1       4.761  -2.404  -1.472  0.00  0.00    +0.145 A 
ATOM      3  C   UNL     1       4.668  -3.505  -2.325  0.00  0.00    +0.105 A 
ATOM      4  C   UNL     1       5.839  -3.980  -2.917  0.00  0.00    +0.147 A 
ATOM      5  N   UNL     1       6.991  -3.371  -2.648  0.00  0.00    -0.219 NA
ATOM      6  C   UNL     1       7.035  -2.334  -1.835  0.00  0.00    +0.225 A 
ATOM      7  N   UNL     1       5.952  -1.851  -1.260  0.00  0.00    -0.219 NA
ATOM      8  H   UNL     1       2.760  -2.300  -1.016  0.00  0.00    +0.148 HD
ENDROOT
BRANCH   4   9
ATOM      9  N   UNL     1       5.803  -5.073  -3.775  0.00  0.00    -0.311 N 
ATOM     10  C   UNL     1       5.716  -4.880  -5.229  0.00  0.00    +0.125 C 
ATOM     11  C   UNL     1       6.883  -5.623  -5.893  0.00  0.00    +0.125 C 
ATOM     12  N   UNL     1       6.931  -6.992  -5.361  0.00  0.00    -0.314 N 
ATOM     13  C   UNL     1       7.017  -7.185  -3.907  0.00  0.00    +0.125 C 
ATOM     14  C   UNL     1       5.856  -6.443  -3.244  0.00  0.00    +0.125 C 
ATOM     15  C   UNL     1       6.895  -8.085  -6.219  0.00  0.00    +0.099 A 
ATOM     16  C   UNL     1       6.951  -7.885  -7.595  0.00  0.00    +0.042 A 
ATOM     17  C   UNL     1       6.914  -8.981  -8.437  0.00  0.00    +0.005 A 
ATOM     18  C   UNL     1       6.822 -10.247  -7.872  0.00  0.00    +0.018 A 
ATOM     19  C   UNL     1       6.769 -10.373  -6.499  0.00  0.00    +0.084 A 
ATOM     20  N   UNL     1       6.812  -9.309  -5.720  0.00  0.00    -0.350 N 
ATOM     21  H   UNL     1       6.778  -9.426  -4.757  0.00  0.00    +0.166 HD
ENDBRANCH   4   9
BRANCH   3  22
ATOM     22  N   UNL     1       3.430  -4.117  -2.581  0.00  0.00    -0.353 N 
ATOM     23  H   UNL     1       2.636  -3.824  -2.107  0.00  0.00    +0.143 HD
ATOM     24  H   UNL     1       3.369  -4.834  -3.232  0.00  0.00    +0.143 HD
ENDBRANCH   3  22
BRANCH   1  25
ATOM     25  C   UNL     1       3.735  -0.731   0.033  0.00  0.00    +0.132 C 
BRANCH  25  29
ATOM     26  C   UNL     1      -0.007   1.325   0.156  0.00  0.00    +0.000 A 
ATOM     27  C   UNL     1       1.174   2.042   0.123  0.00  0.00    +0.000 A 
ATOM     28  C   UNL     1       2.385   1.376   0.083  0.00  0.00    +0.006 A 
ATOM     29  C   UNL     1       2.415  -0.006   0.077  0.00  0.00    -0.023 A 
ATOM     30  C   UNL     1       1.233  -0.723   0.111  0.00  0.00    +0.006 A 
ATOM     31  C   UNL     1       0.022  -0.057   0.150  0.00  0.00    +0.000 A 
ENDBRANCH  25  29
BRANCH  25  32
ATOM     32  C   UNL     1       4.100  -1.195   1.419  0.00  0.00    -0.023 A 
ATOM     33  C   UNL     1       3.532  -2.344   1.937  0.00  0.00    +0.006 A 
ATOM     34  C   UNL     1       3.867  -2.768   3.208  0.00  0.00    +0.000 A 
ATOM     35  C   UNL     1       4.771  -2.045   3.963  0.00  0.00    +0.000 A 
ATOM     36  C   UNL     1       5.340  -0.896   3.446  0.00  0.00    +0.000 A 
ATOM     37  C   UNL     1       5.008  -0.474   2.172  0.00  0.00    +0.006 A 
ENDBRANCH  25  32
ENDBRANCH   1  25
TORSDOF 5
