REMARK  Name = ZINC03526018
REMARK  8 active torsions:
REMARK  status: ('A' for Active; 'I' for Inactive)
REMARK    1  A    between atoms: C_1  and  C_2
REMARK    2  A    between atoms: C_3  and  C_15
REMARK    3  A    between atoms: N_5  and  C_7
REMARK    4  A    between atoms: N_16  and  N_17
REMARK    5  A    between atoms: C_18  and  C_20
REMARK    6  A    between atoms: C_20  and  C_21
REMARK    7  A    between atoms: C_21  and  N_59
REMARK    8  A    between atoms: N_24  and  C_27
REMARK                            x       y       z     vdW  Elec       q    Type
REMARK                         _______ _______ _______ _____ _____    ______ ____
ROOT
ATOM      1  N   UNL     1      -0.014   1.395   0.125  0.00  0.00    -0.207 N 
ATOM      2  C   UNL     1      -1.190   2.053   0.177  0.00  0.00    +0.230 C 
ATOM      3  O   UNL     1      -2.232   1.431   0.196  0.00  0.00    -0.274 OA
ATOM      4  H   UNL     1       0.819   1.892   0.107  0.00  0.00    +0.177 HD
ENDROOT
BRANCH   1   6
ATOM      5  C   UNL     1       1.136  -0.638   0.036  0.00  0.00    +0.143 C 
ATOM      6  N   UNL     1       0.004  -0.005   0.092  0.00  0.00    -0.188 NA
BRANCH   5   9
ATOM      7  C   UNL     1       3.730  -2.455  -0.113  0.00  0.00    +0.068 C 
ATOM      8  C   UNL     1       2.302  -2.934  -0.066  0.00  0.00    +0.070 A 
ATOM      9  C   UNL     1       1.155  -2.112   0.001  0.00  0.00    +0.054 A 
ATOM     10  C   UNL     1       0.055  -2.947   0.020  0.00  0.00    +0.142 A 
ATOM     11  N   UNL     1       0.513  -4.216  -0.027  0.00  0.00    -0.219 N 
ATOM     12  N   UNL     1       1.911  -4.180  -0.076  0.00  0.00    -0.170 NA
ATOM     13 CL   UNL     1      -1.608  -2.454   0.092  0.00  0.00    -0.061 Cl
BRANCH  11  14
ATOM     14  C   UNL     1      -0.278  -5.374  -0.027  0.00  0.00    +0.085 A 
ATOM     15  C   UNL     1      -1.300  -5.518   0.902  0.00  0.00    +0.029 A 
ATOM     16  C   UNL     1      -2.078  -6.660   0.900  0.00  0.00    +0.002 A 
ATOM     17  C   UNL     1      -1.839  -7.659  -0.026  0.00  0.00    +0.002 A 
ATOM     18  C   UNL     1      -0.823  -7.519  -0.953  0.00  0.00    +0.022 A 
ATOM     19  C   UNL     1      -0.045  -6.376  -0.960  0.00  0.00    +0.066 A 
ATOM     20 CL   UNL     1       1.227  -6.198  -2.128  0.00  0.00    -0.081 Cl
ENDBRANCH  11  14
ENDBRANCH   5   9
ENDBRANCH   1   6
BRANCH   2  21
ATOM     21  C   UNL     1      -1.210   3.559   0.214  0.00  0.00    +0.079 C 
BRANCH  21  22
ATOM     22  C   UNL     1      -2.658   4.049   0.270  0.00  0.00    -0.069 C 
BRANCH  22  28
ATOM     23  C   UNL     1      -2.092   6.022   1.556  0.00  0.00    -0.060 C 
ATOM     24  C   UNL     1      -2.058   7.551   1.519  0.00  0.00    +0.086 C 
ATOM     25  N   UNL     1      -3.423   8.065   1.335  0.00  0.00    -0.333 N 
ATOM     26  C   UNL     1      -4.008   7.560   0.085  0.00  0.00    +0.086 C 
ATOM     27  C   UNL     1      -4.042   6.030   0.122  0.00  0.00    -0.060 C 
ATOM     28  N   UNL     1      -2.662   5.527   0.284  0.00  0.00    +0.382 N 
ATOM     29  H   UNL     1      -2.088   5.870  -0.495  0.00  0.00    -0.082 HD
BRANCH  25  30
ATOM     30  C   UNL     1      -3.441   9.461   1.369  0.00  0.00    +0.030 A 
ATOM     31  C   UNL     1      -3.964  10.176   0.299  0.00  0.00    +0.023 A 
ATOM     32  C   UNL     1      -3.985  11.556   0.337  0.00  0.00    +0.002 A 
ATOM     33  C   UNL     1      -3.477  12.227   1.434  0.00  0.00    +0.000 A 
ATOM     34  C   UNL     1      -2.950  11.518   2.499  0.00  0.00    +0.002 A 
ATOM     35  C   UNL     1      -2.931  10.138   2.469  0.00  0.00    +0.023 A 
ENDBRANCH  25  30
ENDBRANCH  22  28
ENDBRANCH  21  22
ENDBRANCH   2  21
TORSDOF 7
