REMARK  Name = ZINC28114165
REMARK  2 active torsions:
REMARK  status: ('A' for Active; 'I' for Inactive)
REMARK    1  A    between atoms: C_1  and  C_2
REMARK    2  A    between atoms: C_10  and  C_13
REMARK                            x       y       z     vdW  Elec       q    Type
REMARK                         _______ _______ _______ _____ _____    ______ ____
ROOT
ATOM      1  C   UNL     1      -1.035  -0.974  -0.073  0.00  0.00    +0.073 C 
ATOM      2  C   UNL     1       0.219  -0.139  -0.045  0.00  0.00    +0.126 A 
ATOM      3  C   UNL     1       0.126   1.262  -0.054  0.00  0.00    +0.293 A 
ATOM      4  O   UNL     1      -0.965   1.807  -0.089  0.00  0.00    -0.264 OA
ATOM      5  N   UNL     1       1.275   2.012  -0.028  0.00  0.00    -0.202 N 
ATOM      6  C   UNL     1       2.437   1.294   0.005  0.00  0.00    +0.212 A 
ATOM      7  N   UNL     1       2.468  -0.018   0.011  0.00  0.00    -0.122 NA
ATOM      8  N   UNL     1       1.393  -0.725  -0.013  0.00  0.00    -0.146 NA
ATOM      9  S   UNL     1       3.729   2.519   0.034  0.00  0.00    -0.056 S 
ATOM     10  C   UNL     1       2.655   4.006   0.000  0.00  0.00    +0.185 C 
ATOM     11  N   UNL     1       1.323   3.370  -0.031  0.00  0.00    -0.262 N 
ATOM     12  H   UNL     1       0.416   3.992  -0.056  0.00  0.00    +0.168 HD
ENDROOT
BRANCH  10  13
ATOM     13  C   UNL     1       2.897   4.827  -1.240  0.00  0.00    +0.021 A 
ATOM     14  C   UNL     1       2.722   4.261  -2.490  0.00  0.00    +0.048 A 
ATOM     15  C   UNL     1       2.941   5.017  -3.628  0.00  0.00    +0.020 A 
ATOM     16  C   UNL     1       3.342   6.335  -3.516  0.00  0.00    +0.003 A 
ATOM     17  C   UNL     1       3.522   6.899  -2.267  0.00  0.00    +0.020 A 
ATOM     18  C   UNL     1       3.299   6.146  -1.129  0.00  0.00    +0.048 A 
ATOM     19 CL   UNL     1       3.525   6.856   0.440  0.00  0.00    -0.083 Cl
ATOM     20 CL   UNL     1       2.224   2.604  -2.630  0.00  0.00    -0.083 Cl
ENDBRANCH  10  13
TORSDOF 1
