REMARK  Name = ZINC09301942
REMARK  13 active torsions:
REMARK  status: ('A' for Active; 'I' for Inactive)
REMARK    1  A    between atoms: C_1  and  C_2
REMARK    2  A    between atoms: C_2  and  C_3
REMARK    3  A    between atoms: C_3  and  O_4
REMARK    4  A    between atoms: O_4  and  C_5
REMARK    5  A    between atoms: C_8  and  C_14
REMARK    6  A    between atoms: C_10  and  O_11
REMARK    7  A    between atoms: O_11  and  C_12
REMARK    8  A    between atoms: C_12  and  C_13
REMARK    9  A    between atoms: C_22  and  C_30
REMARK   10  A    between atoms: C_24  and  C_25
REMARK   11  A    between atoms: C_24  and  C_27
REMARK   12  A    between atoms: C_32  and  C_33
REMARK   13  A    between atoms: C_32  and  N_68
REMARK                            x       y       z     vdW  Elec       q    Type
REMARK                         _______ _______ _______ _____ _____    ______ ____
ROOT
ATOM      1  C   UNL     1       1.583   8.091  -3.274  0.00  0.00    +0.064 C 
ATOM      2  C   UNL     1       0.238   7.631  -2.710  0.00  0.00    +0.010 C 
ATOM      3  C   UNL     1       0.378   7.000  -1.344  0.00  0.00    -0.069 C 
ATOM      4  C   UNL     1      -0.926   5.081  -1.999  0.00  0.00    -0.051 C 
ATOM      5  C   UNL     1      -0.973   5.585  -3.420  0.00  0.00    -0.044 C 
ATOM      6  C   UNL     1      -0.414   6.740  -3.729  0.00  0.00    -0.051 C 
ATOM      7  C   UNL     1      -0.407   7.208  -5.138  0.00  0.00    +0.163 C 
ATOM      8  C   UNL     1       0.425   8.220  -5.494  0.00  0.00    +0.065 C 
ATOM      9  C   UNL     1       1.334   8.923  -4.532  0.00  0.00    +0.188 C 
ATOM     10  N   UNL     1       0.434   8.620  -6.801  0.00  0.00    -0.304 NA
ATOM     11  H   UNL     1      -0.144   8.183  -7.446  0.00  0.00    +0.186 HD
ATOM     12  N   UNL     1       0.361   5.531  -1.424  0.00  0.00    +0.385 N 
ATOM     13  H   UNL     1       1.128   5.218  -2.031  0.00  0.00    -0.081 HD
ENDROOT
BRANCH   1  17
ATOM     14  C   UNL     1       3.629  10.468  -0.365  0.00  0.00    +0.162 A 
ATOM     15  C   UNL     1       4.317   9.503  -1.084  0.00  0.00    +0.050 A 
ATOM     16  C   UNL     1       3.653   8.737  -2.024  0.00  0.00    +0.008 A 
ATOM     17  C   UNL     1       2.302   8.929  -2.248  0.00  0.00    -0.037 A 
ATOM     18  C   UNL     1       1.611   9.893  -1.538  0.00  0.00    +0.053 A 
ATOM     19  C   UNL     1       2.270  10.662  -0.592  0.00  0.00    +0.162 A 
BRANCH  14  20
ATOM     20  O   UNL     1       4.280  11.222   0.559  0.00  0.00    -0.488 OA
BRANCH  20  21
ATOM     21  C   UNL     1       5.675  10.967   0.739  0.00  0.00    +0.229 C 
BRANCH  21  23
ATOM     22  C   UNL     1       7.724  11.633   2.003  0.00  0.00    +0.007 C 
ATOM     23  C   UNL     1       6.231  11.906   1.812  0.00  0.00    +0.038 C 
ENDBRANCH  21  23
ENDBRANCH  20  21
ENDBRANCH  14  20
BRANCH  19  24
ATOM     24  O   UNL     1       1.590  11.607   0.111  0.00  0.00    -0.489 OA
BRANCH  24  25
ATOM     25  C   UNL     1       0.197  11.751  -0.174  0.00  0.00    +0.226 C 
ATOM     26  C   UNL     1      -0.392  12.854   0.708  0.00  0.00    +0.048 C 
ENDBRANCH  24  25
ENDBRANCH  19  24
ENDBRANCH   1  17
BRANCH   9  27
ATOM     27  C   UNL     1       2.622   9.187  -5.195  0.00  0.00    +0.091 C 
ATOM     28  N   UNL     1       3.616   9.390  -5.707  0.00  0.00    -0.195 NA
ENDBRANCH   9  27
BRANCH   9  29
ATOM     29  C   UNL     1       0.725  10.206  -4.146  0.00  0.00    +0.091 C 
ATOM     30  N   UNL     1       0.254  11.196  -3.848  0.00  0.00    -0.195 NA
ENDBRANCH   9  29
BRANCH   7  31
ATOM     31  C   UNL     1      -1.267   6.601  -6.108  0.00  0.00    +0.076 C 
ATOM     32  N   UNL     1      -1.949   6.118  -6.878  0.00  0.00    -0.196 NA
ENDBRANCH   7  31
BRANCH  12  33
ATOM     33  C   UNL     1       0.547   4.947  -0.077  0.00  0.00    -0.043 C 
BRANCH  33  34
ATOM     34  C   UNL     1       0.726   3.457  -0.209  0.00  0.00    -0.064 A 
ATOM     35  C   UNL     1       1.990   2.925  -0.382  0.00  0.00    +0.002 A 
ATOM     36  C   UNL     1       2.155   1.558  -0.504  0.00  0.00    +0.000 A 
ATOM     37  C   UNL     1       1.055   0.723  -0.453  0.00  0.00    +0.000 A 
ATOM     38  C   UNL     1      -0.210   1.254  -0.285  0.00  0.00    +0.000 A 
ATOM     39  C   UNL     1      -0.374   2.621  -0.158  0.00  0.00    +0.002 A 
ENDBRANCH  33  34
ENDBRANCH  12  33
TORSDOF 11
