REMARK  Name = ZINC21662722
REMARK  12 active torsions:
REMARK  status: ('A' for Active; 'I' for Inactive)
REMARK    1  A    between atoms: C_1  and  C_2
REMARK    2  A    between atoms: C_2  and  C_3
REMARK    3  A    between atoms: C_3  and  C_4
REMARK    4  A    between atoms: C_4  and  N_5
REMARK    5  A    between atoms: C_6  and  C_8
REMARK    6  A    between atoms: C_14  and  C_16
REMARK    7  A    between atoms: C_20  and  N_22
REMARK    8  A    between atoms: N_22  and  S_23
REMARK    9  A    between atoms: S_23  and  C_26
REMARK   10  A    between atoms: C_28  and  C_34
REMARK   11  A    between atoms: C_29  and  C_33
REMARK   12  A    between atoms: C_31  and  C_32
REMARK                            x       y       z     vdW  Elec       q    Type
REMARK                         _______ _______ _______ _____ _____    ______ ____
ROOT
ATOM      1  C   UNL     1       3.214  -3.293  -3.464  0.00  0.00    +0.039 A 
ATOM      2  C   UNL     1       2.374  -4.077  -4.257  0.00  0.00    +0.013 A 
ATOM      3  C   UNL     1       2.839  -4.602  -5.446  0.00  0.00    +0.003 A 
ATOM      4  C   UNL     1       4.140  -4.364  -5.850  0.00  0.00    +0.024 A 
ATOM      5  C   UNL     1       4.986  -3.590  -5.064  0.00  0.00    +0.049 A 
ATOM      6  C   UNL     1       4.526  -3.053  -3.871  0.00  0.00    +0.037 A 
ENDROOT
BRANCH   1  12
ATOM      7  C   UNL     1       0.670  -4.173  -2.261  0.00  0.00    +0.162 C 
ATOM      8  C   UNL     1      -0.504  -4.389  -1.282  0.00  0.00    +0.033 C 
ATOM      9  C   UNL     1      -0.481  -3.098  -0.422  0.00  0.00    +0.021 C 
ATOM     10  C   UNL     1       1.039  -2.816  -0.326  0.00  0.00    +0.109 C 
ATOM     11  N   UNL     1       1.578  -3.195  -1.644  0.00  0.00    -0.286 N 
ATOM     12  C   UNL     1       2.716  -2.724  -2.193  0.00  0.00    +0.247 C 
ATOM     13  O   UNL     1       3.332  -1.832  -1.644  0.00  0.00    -0.270 OA
BRANCH   7  15
ATOM     14  N   UNL     1       0.745  -6.523  -3.030  0.00  0.00    -0.314 N 
ATOM     15  C   UNL     1       1.395  -5.475  -2.486  0.00  0.00    +0.234 C 
ATOM     16  O   UNL     1       2.563  -5.580  -2.177  0.00  0.00    -0.274 OA
ATOM     17  H   UNL     1      -0.314  -6.428  -3.311  0.00  0.00    +0.149 HD
BRANCH  14  18
ATOM     18  C   UNL     1       1.450  -7.788  -3.249  0.00  0.00    +0.104 C 
BRANCH  18  19
ATOM     19  C   UNL     1       0.492  -8.805  -3.874  0.00  0.00    +0.018 C 
BRANCH  19  21
ATOM     20  C   UNL     1       0.270 -11.142  -4.728  0.00  0.00    +0.004 C 
ATOM     21  C   UNL     1       1.228 -10.126  -4.103  0.00  0.00    -0.002 C 
ENDBRANCH  19  21
ENDBRANCH  18  19
ENDBRANCH  14  18
ENDBRANCH   7  15
ENDBRANCH   1  12
BRANCH   5  22
ATOM     22  N   UNL     1       6.299  -3.352  -5.477  0.00  0.00    -0.216 N 
ATOM     23  H   UNL     1       6.719  -2.337  -5.417  0.00  0.00    +0.174 HD
BRANCH  22  24
ATOM     24  S   UNL     1       7.223  -4.598  -6.057  0.00  0.00    +0.073 S 
ATOM     25  O   UNL     1       6.445  -5.253  -7.049  0.00  0.00    -0.150 OA
ATOM     26  O   UNL     1       8.508  -4.056  -6.331  0.00  0.00    -0.150 OA
BRANCH  24  27
ATOM     27  C   UNL     1       7.432  -5.748  -4.739  0.00  0.00    +0.112 A 
ATOM     28  C   UNL     1       6.942  -7.035  -4.861  0.00  0.00    +0.032 A 
ATOM     29  C   UNL     1       7.106  -7.938  -3.827  0.00  0.00    -0.046 A 
ATOM     30  C   UNL     1       7.761  -7.554  -2.672  0.00  0.00    -0.047 A 
ATOM     31  C   UNL     1       8.252  -6.268  -2.550  0.00  0.00    +0.009 A 
ATOM     32  C   UNL     1       8.091  -5.366  -3.586  0.00  0.00    -0.024 A 
ATOM     33  C   UNL     1       8.632  -3.965  -3.456  0.00  0.00    +0.046 C 
ATOM     34  C   UNL     1       7.940  -8.538  -1.545  0.00  0.00    +0.044 C 
ATOM     35  C   UNL     1       6.571  -9.340  -3.959  0.00  0.00    +0.044 C 
ENDBRANCH  24  27
ENDBRANCH  22  24
ENDBRANCH   5  22
TORSDOF 8
