REMARK  Name = ZINC63079608
REMARK  6 active torsions:
REMARK  status: ('A' for Active; 'I' for Inactive)
REMARK    1  A    between atoms: C_1  and  C_2
REMARK    2  A    between atoms: C_8  and  O_10
REMARK    3  A    between atoms: O_10  and  C_11
REMARK    4  A    between atoms: C_11  and  C_12
REMARK    5  A    between atoms: N_18  and  C_21
REMARK    6  A    between atoms: N_22  and  C_23
REMARK                            x       y       z     vdW  Elec       q    Type
REMARK                         _______ _______ _______ _____ _____    ______ ____
ROOT
ATOM      1  C   UNL     1       0.131   0.633   4.715  0.00  0.00    +0.159 A 
ATOM      2  N   UNL     1      -0.038   1.933   4.877  0.00  0.00    -0.214 NA
ATOM      3  C   UNL     1      -0.740   2.414   5.897  0.00  0.00    +0.133 A 
ATOM      4  C   UNL     1      -1.305   1.502   6.810  0.00  0.00    +0.078 A 
ATOM      5  C   UNL     1      -2.088   1.623   7.978  0.00  0.00    +0.148 A 
ATOM      6  N   UNL     1      -2.336   0.429   8.434  0.00  0.00    -0.177 NA
ATOM      7  N   UNL     1      -1.738  -0.527   7.603  0.00  0.00    -0.249 N 
ATOM      8  C   UNL     1      -1.096   0.126   6.593  0.00  0.00    +0.163 A 
ATOM      9  N   UNL     1      -0.381  -0.257   5.537  0.00  0.00    -0.210 NA
ATOM     10  C   UNL     1      -1.793  -1.980   7.787  0.00  0.00    +0.174 C 
ATOM     11  N   UNL     1      -0.911   3.775   6.059  0.00  0.00    -0.331 N 
ATOM     12  C   UNL     1      -0.315   4.708   5.099  0.00  0.00    +0.127 C 
ATOM     13  H   UNL     1      -1.426   4.113   6.808  0.00  0.00    +0.147 HD
ENDROOT
BRANCH   1  14
ATOM     14  C   UNL     1       0.938   0.149   3.537  0.00  0.00    +0.236 C 
BRANCH  14  15
ATOM     15  O   UNL     1       0.073  -0.050   2.417  0.00  0.00    -0.369 OA
BRANCH  15  22
ATOM     16  C   UNL     1      -0.019   1.526   0.010  0.00  0.00    +0.010 C 
ATOM     17  C   UNL     1       0.002  -0.004   0.002  0.00  0.00    +0.015 C 
ATOM     18  C   UNL     1       0.718  -0.497  -1.257  0.00  0.00    +0.006 C 
ATOM     19  C   UNL     1       0.739  -2.027  -1.265  0.00  0.00    +0.000 C 
ATOM     20  C   UNL     1       1.479  -2.534  -0.026  0.00  0.00    +0.003 C 
ATOM     21  C   UNL     1       0.763  -2.041   1.233  0.00  0.00    +0.032 C 
ATOM     22  C   UNL     1       0.742  -0.511   1.242  0.00  0.00    +0.122 C 
ENDBRANCH  15  22
ENDBRANCH  14  15
ENDBRANCH   1  14
TORSDOF 3
