REMARK  Name = ZINC40155389
REMARK  6 active torsions:
REMARK  status: ('A' for Active; 'I' for Inactive)
REMARK    1  A    between atoms: C_1  and  N_2
REMARK    2  A    between atoms: C_11  and  C_13
REMARK    3  A    between atoms: N_15  and  C_16
REMARK    4  A    between atoms: C_16  and  C_17
REMARK    5  A    between atoms: C_17  and  C_19
REMARK    6  A    between atoms: C_17  and  N_26
REMARK                            x       y       z     vdW  Elec       q    Type
REMARK                         _______ _______ _______ _____ _____    ______ ____
ROOT
ATOM      1  C   UNL     1      -0.123  -2.667   4.833  0.00  0.00    +0.244 C 
ATOM      2  O   UNL     1      -0.601  -3.783   4.766  0.00  0.00    -0.270 OA
ATOM      3  N   UNL     1       0.506  -2.270   5.957  0.00  0.00    -0.313 N 
ATOM      4  H   UNL     1       0.887  -1.379   6.011  0.00  0.00    +0.149 HD
ENDROOT
BRANCH   1  15
ATOM      5  C   UNL     1      -0.596   2.292   0.607  0.00  0.00    +0.130 C 
ATOM      6  N   UNL     1      -0.540   0.839   0.433  0.00  0.00    -0.323 N 
ATOM      7  C   UNL     1      -0.591   0.233  -0.905  0.00  0.00    +0.200 C 
ATOM      8  C   UNL     1      -1.495  -0.973  -0.866  0.00  0.00    +0.235 C 
ATOM      9  O   UNL     1      -2.098  -1.304  -1.865  0.00  0.00    -0.274 OA
ATOM     10  N   UNL     1      -1.640  -1.687   0.267  0.00  0.00    -0.283 N 
ATOM     11  C   UNL     1      -0.992  -1.296   1.445  0.00  0.00    +0.055 A 
ATOM     12  C   UNL     1      -0.430  -0.014   1.533  0.00  0.00    +0.051 A 
ATOM     13  C   UNL     1       0.215   0.396   2.690  0.00  0.00    +0.026 A 
ATOM     14  C   UNL     1       0.315  -0.464   3.763  0.00  0.00    +0.015 A 
ATOM     15  C   UNL     1      -0.233  -1.747   3.685  0.00  0.00    +0.039 A 
ATOM     16  C   UNL     1      -0.897  -2.160   2.517  0.00  0.00    +0.038 A 
ATOM     17  H   UNL     1      -2.199  -2.479   0.267  0.00  0.00    +0.155 HD
ENDBRANCH   1  15
BRANCH   3  18
ATOM     18  C   UNL     1       0.615  -3.183   7.097  0.00  0.00    +0.094 C 
BRANCH  18  19
ATOM     19  C   UNL     1       1.475  -2.539   8.186  0.00  0.00    -0.019 C 
BRANCH  19  20
ATOM     20  C   UNL     1       0.772  -1.320   8.726  0.00  0.00    -0.041 A 
ATOM     21  C   UNL     1       1.062  -0.070   8.212  0.00  0.00    +0.003 A 
ATOM     22  C   UNL     1       0.417   1.048   8.707  0.00  0.00    +0.000 A 
ATOM     23  C   UNL     1      -0.519   0.917   9.716  0.00  0.00    +0.001 A 
ATOM     24  C   UNL     1      -0.809  -0.332  10.231  0.00  0.00    +0.020 A 
ATOM     25  C   UNL     1      -0.168  -1.452   9.732  0.00  0.00    +0.043 A 
ATOM     26 CL   UNL     1      -0.538  -3.023  10.374  0.00  0.00    -0.083 Cl
ENDBRANCH  19  20
BRANCH  19  27
ATOM     27  N   UNL     1       2.771  -2.145   7.618  0.00  0.00    +0.385 N 
ATOM     28  C   UNL     1       3.657  -1.611   8.684  0.00  0.00    -0.078 C 
ATOM     29  C   UNL     1       5.075  -1.782   8.085  0.00  0.00    -0.020 C 
ATOM     30  C   UNL     1       4.972  -3.128   7.331  0.00  0.00    -0.020 C 
ATOM     31  C   UNL     1       3.468  -3.328   7.069  0.00  0.00    -0.078 C 
ATOM     32  H   UNL     1       2.639  -1.453   6.896  0.00  0.00    -0.081 HD
ENDBRANCH  19  27
ENDBRANCH  18  19
ENDBRANCH   3  18
TORSDOF 5
