REMARK  Name = ZINC04222467
REMARK  8 active torsions:
REMARK  status: ('A' for Active; 'I' for Inactive)
REMARK    1  A    between atoms: C_1  and  C_2
REMARK    2  A    between atoms: C_5  and  O_37
REMARK    3  A    between atoms: C_7  and  C_34
REMARK    4  A    between atoms: C_7  and  C_35
REMARK    5  A    between atoms: C_17  and  C_19
REMARK    6  A    between atoms: C_23  and  C_25
REMARK    7  A    between atoms: C_25  and  C_26
REMARK    8  A    between atoms: C_35  and  O_36
REMARK                            x       y       z     vdW  Elec       q    Type
REMARK                         _______ _______ _______ _____ _____    ______ ____
ROOT
ATOM      1  C   UNL     1      -1.797   1.194   3.621  0.00  0.00    +0.012 C 
ATOM      2  C   UNL     1      -2.676   1.631   2.447  0.00  0.00    -0.019 C 
ATOM      3  C   UNL     1      -2.845   3.153   2.471  0.00  0.00    +0.010 C 
ATOM      4  C   UNL     1      -1.494   3.841   2.283  0.00  0.00    +0.032 C 
ATOM      5  C   UNL     1      -0.918   3.432   0.924  0.00  0.00    +0.123 C 
ATOM      6  C   UNL     1      -0.705   1.919   0.917  0.00  0.00    +0.021 C 
ATOM      7  C   UNL     1      -2.039   1.196   1.125  0.00  0.00    +0.011 C 
ATOM      8  C   UNL     1      -1.726  -0.316   1.198  0.00  0.00    +0.049 C 
ATOM      9  C   UNL     1      -2.911  -1.030   1.744  0.00  0.00    +0.015 A 
ATOM     10  C   UNL     1      -3.986  -0.492   2.376  0.00  0.00    +0.058 A 
ATOM     11  N   UNL     1      -4.920  -1.353   2.773  0.00  0.00    -0.229 NA
ATOM     12  C   UNL     1      -4.813  -2.650   2.567  0.00  0.00    +0.165 A 
ATOM     13  S   UNL     1      -3.287  -2.763   1.742  0.00  0.00    -0.057 S 
ATOM     14  N   UNL     1      -5.694  -3.666   2.917  0.00  0.00    -0.264 N 
ATOM     15  C   UNL     1      -5.402  -4.946   2.613  0.00  0.00    +0.222 C 
ATOM     16  O   UNL     1      -4.370  -5.211   2.034  0.00  0.00    -0.275 OA
ATOM     17  C   UNL     1      -4.072   1.011   2.591  0.00  0.00    +0.054 C 
ATOM     18  C   UNL     1      -0.105   1.499  -0.426  0.00  0.00    +0.016 C 
ATOM     19  H   UNL     1      -6.520  -3.454   3.380  0.00  0.00    +0.157 HD
ENDROOT
BRANCH  15  20
ATOM     20  C   UNL     1      -6.357  -6.048   2.993  0.00  0.00    +0.075 C 
ATOM     21  C   UNL     1      -6.209  -6.516   4.450  0.00  0.00    +0.013 C 
ATOM     22  C   UNL     1      -6.416  -7.948   3.928  0.00  0.00    +0.001 C 
ATOM     23  C   UNL     1      -5.879  -7.449   2.576  0.00  0.00    +0.013 C 
ENDBRANCH  15  20
BRANCH   5  24
ATOM     24  O   UNL     1       0.331   4.093   0.714  0.00  0.00    -0.391 OA
ATOM     25  H   UNL     1       0.269   5.058   0.707  0.00  0.00    +0.210 HD
ENDBRANCH   5  24
BRANCH  17  26
ATOM     26  C   UNL     1      -4.614   1.295   3.994  0.00  0.00    +0.106 C 
BRANCH  26  27
ATOM     27  C   UNL     1      -6.055   0.863   4.072  0.00  0.00    +0.219 C 
ATOM     28  O   UNL     1      -6.596   0.376   3.102  0.00  0.00    -0.275 OA
ATOM     29  N   UNL     1      -6.743   1.017   5.221  0.00  0.00    -0.265 N 
ATOM     30  C   UNL     1      -8.073   0.619   5.293  0.00  0.00    +0.164 A 
ATOM     31  N   UNL     1      -8.904   0.687   6.315  0.00  0.00    -0.233 NA
ATOM     32  C   UNL     1     -10.147   0.260   6.215  0.00  0.00    +0.120 A 
ATOM     33  C   UNL     1     -10.559  -0.256   5.031  0.00  0.00    +0.068 A 
ATOM     34  S   UNL     1      -9.069  -0.090   4.059  0.00  0.00    -0.061 S 
ATOM     35  H   UNL     1      -6.311   1.407   5.997  0.00  0.00    +0.157 HD
ENDBRANCH  26  27
ENDBRANCH  17  26
BRANCH   6  36
ATOM     36  C   UNL     1       0.259   1.539   2.043  0.00  0.00    +0.165 C 
BRANCH  36  37
ATOM     37  O   UNL     1       1.554   2.075   1.763  0.00  0.00    -0.394 OA
ATOM     38  H   UNL     1       2.217   1.872   2.437  0.00  0.00    +0.209 HD
ENDBRANCH  36  37
ENDBRANCH   6  36
TORSDOF 6
