REMARK  Name = ZINC09350993
REMARK  9 active torsions:
REMARK  status: ('A' for Active; 'I' for Inactive)
REMARK    1  A    between atoms: C_4  and  S_20
REMARK    2  A    between atoms: C_5  and  C_7
REMARK    3  A    between atoms: C_7  and  O_9
REMARK    4  A    between atoms: O_9  and  C_10
REMARK    5  A    between atoms: C_10  and  C_11
REMARK    6  A    between atoms: N_13  and  C_14
REMARK    7  A    between atoms: S_20  and  C_21
REMARK    8  A    between atoms: C_21  and  C_22
REMARK    9  A    between atoms: N_24  and  C_25
REMARK                            x       y       z     vdW  Elec       q    Type
REMARK                         _______ _______ _______ _____ _____    ______ ____
ROOT
ATOM      1  C   UNL     1       1.716  -0.107  -4.717  0.00  0.00    +0.001 A 
ATOM      2  C   UNL     1       2.024  -0.317  -3.381  0.00  0.00    +0.001 A 
ATOM      3  C   UNL     1       1.238   0.231  -2.389  0.00  0.00    +0.015 A 
ATOM      4  C   UNL     1       0.122   0.990  -2.724  0.00  0.00    +0.022 A 
ATOM      5  C   UNL     1      -0.192   1.204  -4.076  0.00  0.00    +0.072 A 
ATOM      6  C   UNL     1       0.619   0.646  -5.069  0.00  0.00    +0.016 A 
ENDROOT
BRANCH   5   7
ATOM      7  C   UNL     1      -1.367   2.010  -4.445  0.00  0.00    +0.341 C 
ATOM      8  O   UNL     1      -2.070   2.493  -3.579  0.00  0.00    -0.245 OA
BRANCH   7   9
ATOM      9  O   UNL     1      -1.665   2.213  -5.744  0.00  0.00    -0.452 OA
BRANCH   9  10
ATOM     10  C   UNL     1      -2.838   3.018  -6.034  0.00  0.00    +0.328 C 
BRANCH  10  11
ATOM     11  C   UNL     1      -3.010   3.135  -7.526  0.00  0.00    +0.251 C 
ATOM     12  O   UNL     1      -2.222   2.593  -8.272  0.00  0.00    -0.272 OA
ATOM     13  N   UNL     1      -4.041   3.842  -8.032  0.00  0.00    -0.310 N 
ATOM     14  H   UNL     1      -4.671   4.275  -7.436  0.00  0.00    +0.149 HD
BRANCH  13  15
ATOM     15  C   UNL     1      -4.208   3.955  -9.483  0.00  0.00    +0.073 C 
ATOM     16  C   UNL     1      -3.351   5.109 -10.007  0.00  0.00    +0.022 C 
ATOM     17  C   UNL     1      -3.526   5.228 -11.522  0.00  0.00    +0.002 C 
ATOM     18  C   UNL     1      -4.997   5.498 -11.846  0.00  0.00    +0.000 C 
ATOM     19  C   UNL     1      -5.854   4.344 -11.322  0.00  0.00    +0.002 C 
ATOM     20  C   UNL     1      -5.679   4.225  -9.807  0.00  0.00    +0.022 C 
ENDBRANCH  13  15
ENDBRANCH  10  11
ENDBRANCH   9  10
ENDBRANCH   7   9
ENDBRANCH   5   7
BRANCH   4  21
ATOM     21  S   UNL     1      -0.888   1.685  -1.458  0.00  0.00    -0.115 S 
BRANCH  21  22
ATOM     22  C   UNL     1      -0.013   1.086   0.008  0.00  0.00    +0.170 C 
BRANCH  22  23
ATOM     23  C   UNL     1      -0.718   1.572   1.248  0.00  0.00    +0.224 C 
ATOM     24  O   UNL     1      -1.714   2.256   1.150  0.00  0.00    -0.275 OA
ATOM     25  N   UNL     1      -0.242   1.246   2.466  0.00  0.00    -0.309 N 
ATOM     26  H   UNL     1       0.555   0.699   2.544  0.00  0.00    +0.149 HD
BRANCH  25  27
ATOM     27  C   UNL     1      -0.927   1.718   3.671  0.00  0.00    +0.035 C 
ATOM     28  C   UNL     1      -0.948   3.248   3.679  0.00  0.00    +0.029 C 
ATOM     29  C   UNL     1      -1.664   3.742   4.938  0.00  0.00    -0.008 C 
ATOM     30  C   UNL     1      -0.924   3.235   6.178  0.00  0.00    +0.007 C 
ATOM     31  C   UNL     1      -0.903   1.705   6.169  0.00  0.00    -0.008 C 
ATOM     32  C   UNL     1      -0.187   1.212   4.911  0.00  0.00    +0.029 C 
ATOM     33  C   UNL     1      -2.339   1.175   6.180  0.00  0.00    +0.007 C 
ATOM     34  C   UNL     1      -3.079   1.682   4.941  0.00  0.00    -0.008 C 
ATOM     35  C   UNL     1      -3.100   3.212   4.949  0.00  0.00    +0.007 C 
ATOM     36  C   UNL     1      -2.363   1.189   3.682  0.00  0.00    +0.029 C 
ENDBRANCH  25  27
ENDBRANCH  22  23
ENDBRANCH  21  22
ENDBRANCH   4  21
TORSDOF 9
