REMARK  Name = ZINC05883905
REMARK  8 active torsions:
REMARK  status: ('A' for Active; 'I' for Inactive)
REMARK    1  A    between atoms: C_1  and  C_2
REMARK    2  A    between atoms: C_2  and  C_3
REMARK    3  A    between atoms: C_3  and  O_4
REMARK    4  A    between atoms: O_4  and  C_5
REMARK    5  A    between atoms: C_8  and  C_11
REMARK    6  A    between atoms: C_18  and  N_31
REMARK    7  A    between atoms: C_19  and  C_29
REMARK    8  A    between atoms: C_20  and  C_22
REMARK                            x       y       z     vdW  Elec       q    Type
REMARK                         _______ _______ _______ _____ _____    ______ ____
ROOT
ATOM      1  C   UNL     1      -6.403  -4.597   0.024  0.00  0.00    +0.074 A 
ATOM      2  C   UNL     1      -6.707  -5.704   0.743  0.00  0.00    +0.054 A 
ATOM      3  C   UNL     1      -8.050  -6.040   0.481  0.00  0.00    +0.245 A 
ATOM      4  N   UNL     1      -8.533  -5.172  -0.362  0.00  0.00    -0.135 NA
ATOM      5  N   UNL     1      -7.527  -4.243  -0.669  0.00  0.00    -0.273 N 
ATOM      6  H   UNL     1      -7.613  -3.485  -1.268  0.00  0.00    +0.189 HD
ATOM      7  O   UNL     1      -8.651  -7.113   1.063  0.00  0.00    -0.421 OA
ATOM      8  C   UNL     1      -8.018  -7.690   2.104  0.00  0.00    +0.201 C 
ATOM      9  C   UNL     1      -6.734  -7.456   2.444  0.00  0.00    +0.098 C 
ATOM     10  C   UNL     1      -5.843  -6.507   1.681  0.00  0.00    +0.103 C 
ENDROOT
BRANCH  10  11
ATOM     11  C   UNL     1      -4.825  -7.289   0.891  0.00  0.00    -0.016 A 
ATOM     12  C   UNL     1      -5.236  -8.120  -0.134  0.00  0.00    +0.006 A 
ATOM     13  C   UNL     1      -4.303  -8.838  -0.859  0.00  0.00    +0.000 A 
ATOM     14  C   UNL     1      -2.958  -8.724  -0.559  0.00  0.00    +0.001 A 
ATOM     15  C   UNL     1      -2.546  -7.893   0.466  0.00  0.00    +0.020 A 
ATOM     16  C   UNL     1      -3.479  -7.171   1.188  0.00  0.00    +0.045 A 
ATOM     17 CL   UNL     1      -2.962  -6.122   2.471  0.00  0.00    -0.083 Cl
ENDBRANCH  10  11
BRANCH   1  21
ATOM     18  C   UNL     1      -2.659  -2.587  -0.050  0.00  0.00    +0.121 A 
ATOM     19  C   UNL     1      -3.308  -2.887  -1.240  0.00  0.00    +0.046 A 
ATOM     20  C   UNL     1      -4.522  -3.538  -1.220  0.00  0.00    +0.013 A 
ATOM     21  C   UNL     1      -5.099  -3.897  -0.002  0.00  0.00    +0.000 A 
ATOM     22  C   UNL     1      -4.444  -3.595   1.192  0.00  0.00    +0.013 A 
ATOM     23  C   UNL     1      -3.228  -2.947   1.164  0.00  0.00    +0.046 A 
BRANCH  18  24
ATOM     24  O   UNL     1      -1.462  -1.944  -0.074  0.00  0.00    -0.492 OA
BRANCH  24  25
ATOM     25  C   UNL     1      -0.934  -1.603  -1.357  0.00  0.00    +0.229 C 
BRANCH  25  27
ATOM     26  C   UNL     1       0.974  -0.525  -2.557  0.00  0.00    +0.007 C 
ATOM     27  C   UNL     1       0.409  -0.891  -1.183  0.00  0.00    +0.038 C 
ENDBRANCH  25  27
ENDBRANCH  24  25
ENDBRANCH  18  24
ENDBRANCH   1  21
BRANCH   8  28
ATOM     28  N   UNL     1      -8.730  -8.578   2.871  0.00  0.00    -0.328 N 
ATOM     29  H   UNL     1      -9.656  -8.771   2.657  0.00  0.00    +0.145 HD
ATOM     30  H   UNL     1      -8.307  -9.013   3.629  0.00  0.00    +0.145 HD
ENDBRANCH   8  28
BRANCH   9  31
ATOM     31  C   UNL     1      -6.191  -8.138   3.580  0.00  0.00    +0.101 C 
ATOM     32  N   UNL     1      -5.761  -8.679   4.481  0.00  0.00    -0.191 NA
ENDBRANCH   9  31
TORSDOF 7
