REMARK  Name = ZINC48862633
REMARK  4 active torsions:
REMARK  status: ('A' for Active; 'I' for Inactive)
REMARK    1  A    between atoms: C_5  and  N_8
REMARK    2  A    between atoms: C_6  and  N_7
REMARK    3  A    between atoms: C_12  and  C_14
REMARK    4  A    between atoms: C_14  and  O_15
REMARK                            x       y       z     vdW  Elec       q    Type
REMARK                         _______ _______ _______ _____ _____    ______ ____
ROOT
ATOM      1  C   UNL     1      -0.017   1.382   0.010  0.00  0.00    +0.030 A 
ATOM      2  C   UNL     1       1.170   2.091   0.002  0.00  0.00    -0.024 A 
ATOM      3  C   UNL     1       2.384   1.417  -0.013  0.00  0.00    +0.038 A 
ATOM      4  C   UNL     1       2.409   0.029  -0.021  0.00  0.00    +0.048 A 
ATOM      5  C   UNL     1       1.220  -0.684  -0.013  0.00  0.00    +0.053 A 
ATOM      6  C   UNL     1       0.002  -0.004   0.002  0.00  0.00    +0.046 A 
ATOM      7  N   UNL     1       3.584   2.140  -0.021  0.00  0.00    -0.285 N 
ATOM      8  C   UNL     1       3.604   3.432   0.356  0.00  0.00    +0.218 C 
ATOM      9  O   UNL     1       4.648   4.048   0.330  0.00  0.00    -0.275 OA
ATOM     10  C   UNL     1       2.345   4.121   0.808  0.00  0.00    +0.101 C 
ATOM     11  C   UNL     1       1.149   3.598   0.010  0.00  0.00    +0.046 C 
ATOM     12  H   UNL     1       4.406   1.707  -0.300  0.00  0.00    +0.155 HD
ENDROOT
BRANCH   5  13
ATOM     13  N   UNL     1       1.242  -2.084  -0.020  0.00  0.00    -0.323 N 
ATOM     14  C   UNL     1       1.250  -2.936  -1.223  0.00  0.00    +0.105 C 
ATOM     15  C   UNL     1       0.662  -4.290  -0.753  0.00  0.00    +0.021 C 
ATOM     16  C   UNL     1       1.256  -4.409   0.676  0.00  0.00    +0.026 C 
ATOM     17  C   UNL     1       1.267  -2.947   1.170  0.00  0.00    +0.099 C 
BRANCH  17  18
ATOM     18  C   UNL     1       2.537  -2.679   1.980  0.00  0.00    +0.178 C 
BRANCH  18  19
ATOM     19  O   UNL     1       3.681  -3.064   1.215  0.00  0.00    -0.393 OA
ATOM     20  H   UNL     1       4.523  -2.922   1.667  0.00  0.00    +0.209 HD
ENDBRANCH  18  19
ENDBRANCH  17  18
ENDBRANCH   5  13
BRANCH   6  21
ATOM     21  N   UNL     1      -1.202  -0.722   0.009  0.00  0.00    -0.357 N 
ATOM     22  H   UNL     1      -2.049  -0.249   0.020  0.00  0.00    +0.142 HD
ATOM     23  H   UNL     1      -1.189  -1.692   0.004  0.00  0.00    +0.142 HD
ENDBRANCH   6  21
TORSDOF 4
