REMARK  Name = ZINC35688679
REMARK  9 active torsions:
REMARK  status: ('A' for Active; 'I' for Inactive)
REMARK    1  A    between atoms: C_1  and  C_2
REMARK    2  A    between atoms: C_2  and  C_3
REMARK    3  A    between atoms: C_3  and  C_5
REMARK    4  A    between atoms: C_3  and  N_17
REMARK    5  A    between atoms: N_15  and  C_16
REMARK    6  A    between atoms: C_21  and  C_24
REMARK    7  A    between atoms: C_25  and  C_27
REMARK    8  A    between atoms: C_28  and  C_29
REMARK    9  A    between atoms: C_32  and  N_35
REMARK                            x       y       z     vdW  Elec       q    Type
REMARK                         _______ _______ _______ _____ _____    ______ ____
ROOT
ATOM      1  N   UNL     1      -2.178  -0.194   1.061  0.00  0.00    +0.388 N 
ATOM      2  C   UNL     1      -3.551  -0.617   0.760  0.00  0.00    -0.059 C 
ATOM      3  C   UNL     1      -4.460  -0.284   1.948  0.00  0.00    +0.090 C 
ATOM      4  N   UNL     1      -4.319   1.148   2.255  0.00  0.00    -0.299 N 
ATOM      5  C   UNL     1      -2.962   1.693   2.412  0.00  0.00    +0.057 C 
ATOM      6  C   UNL     1      -2.124   1.266   1.202  0.00  0.00    -0.055 C 
ATOM      7  C   UNL     1      -3.026   3.220   2.486  0.00  0.00    +0.026 C 
ATOM      8  C   UNL     1      -5.403   1.938   2.389  0.00  0.00    +0.240 C 
ATOM      9  O   UNL     1      -5.266   3.137   2.547  0.00  0.00    -0.271 OA
ATOM     10  H   UNL     1      -1.877  -0.625   1.923  0.00  0.00    -0.081 HD
ENDROOT
BRANCH   8  11
ATOM     11  C   UNL     1      -6.745   1.354   2.344  0.00  0.00    +0.068 C 
ATOM     12  C   UNL     1      -7.829   2.154   2.371  0.00  0.00    +0.013 C 
BRANCH  12  13
ATOM     13  C   UNL     1      -9.178   1.566   2.326  0.00  0.00    -0.025 A 
ATOM     14  C   UNL     1      -9.339   0.179   2.260  0.00  0.00    +0.010 A 
ATOM     15  C   UNL     1     -10.606  -0.364   2.219  0.00  0.00    +0.033 A 
ATOM     16  C   UNL     1     -11.717   0.461   2.241  0.00  0.00    +0.126 A 
ATOM     17  C   UNL     1     -11.566   1.835   2.305  0.00  0.00    +0.033 A 
ATOM     18  C   UNL     1     -10.306   2.393   2.354  0.00  0.00    +0.010 A 
BRANCH  16  19
ATOM     19  N   UNL     1     -13.073  -0.130   2.196  0.00  0.00    +0.056 N 
ATOM     20  O   UNL     1     -13.209  -1.330   2.139  0.00  0.00    -0.126 OA
ATOM     21  O   UNL     1     -14.046   0.588   2.215  0.00  0.00    -0.126 OA
ENDBRANCH  16  19
ENDBRANCH  12  13
ENDBRANCH   8  11
BRANCH   1  22
ATOM     22  C   UNL     1      -1.288  -0.612  -0.030  0.00  0.00    -0.001 C 
BRANCH  22  23
ATOM     23  C   UNL     1      -1.224  -2.117  -0.077  0.00  0.00    +0.099 A 
ATOM     24  N   UNL     1      -1.953  -2.791   0.759  0.00  0.00    -0.235 NA
ATOM     25  C   UNL     1      -1.947  -4.148   0.775  0.00  0.00    +0.078 A 
ATOM     26  C   UNL     1      -2.732  -4.873   1.673  0.00  0.00    +0.028 A 
ATOM     27  C   UNL     1      -2.695  -6.250   1.654  0.00  0.00    +0.002 A 
ATOM     28  C   UNL     1      -1.886  -6.927   0.751  0.00  0.00    +0.001 A 
ATOM     29  C   UNL     1      -1.103  -6.233  -0.146  0.00  0.00    +0.015 A 
ATOM     30  C   UNL     1      -1.126  -4.840  -0.142  0.00  0.00    +0.065 A 
ATOM     31  C   UNL     1      -0.312  -4.047  -1.076  0.00  0.00    +0.262 A 
ATOM     32  O   UNL     1       0.416  -4.581  -1.891  0.00  0.00    -0.267 OA
ATOM     33  N   UNL     1      -0.410  -2.699  -0.997  0.00  0.00    -0.301 N 
ATOM     34  C   UNL     1       0.374  -1.860  -1.906  0.00  0.00    +0.153 C 
ENDBRANCH  22  23
BRANCH  22  36
ATOM     35  C   UNL     1       0.705  -0.676   1.476  0.00  0.00    +0.002 C 
ATOM     36  C   UNL     1       0.114  -0.050   0.211  0.00  0.00    -0.011 C 
ENDBRANCH  22  36
ENDBRANCH   1  22
TORSDOF 6
