REMARK  Name = ZINC59166298
REMARK  6 active torsions:
REMARK  status: ('A' for Active; 'I' for Inactive)
REMARK    1  A    between atoms: C_10  and  C_11
REMARK    2  A    between atoms: C_11  and  C_12
REMARK    3  A    between atoms: N_14  and  N_15
REMARK    4  A    between atoms: N_23  and  C_26
REMARK    5  A    between atoms: C_26  and  C_27
REMARK    6  A    between atoms: C_27  and  N_28
REMARK                            x       y       z     vdW  Elec       q    Type
REMARK                         _______ _______ _______ _____ _____    ______ ____
ROOT
ATOM      1  N   UNL     1       6.823   1.550   2.919  0.00  0.00    -0.175 NA
ATOM      2  C   UNL     1       7.920   2.230   3.150  0.00  0.00    +0.153 C 
ATOM      3  C   UNL     1       8.454   2.663   4.462  0.00  0.00    +0.028 A 
ATOM      4  C   UNL     1       8.008   2.507   5.770  0.00  0.00    +0.012 A 
ATOM      5  C   UNL     1       8.742   3.038   6.812  0.00  0.00    +0.001 A 
ATOM      6  C   UNL     1       9.917   3.723   6.554  0.00  0.00    +0.002 A 
ATOM      7  C   UNL     1      10.368   3.883   5.259  0.00  0.00    +0.024 A 
ATOM      8  C   UNL     1       9.642   3.356   4.197  0.00  0.00    +0.046 A 
ATOM      9  N   UNL     1       9.867   3.374   2.825  0.00  0.00    -0.267 N 
ATOM     10  C   UNL     1       8.897   2.725   2.159  0.00  0.00    +0.271 C 
ATOM     11  O   UNL     1       8.832   2.576   0.953  0.00  0.00    -0.268 OA
ENDROOT
BRANCH   1  14
ATOM     12  C   UNL     1       5.341   0.519   1.367  0.00  0.00    +0.237 C 
ATOM     13  O   UNL     1       4.634   0.178   2.291  0.00  0.00    -0.274 OA
ATOM     14  N   UNL     1       6.469   1.218   1.605  0.00  0.00    -0.206 N 
ATOM     15  H   UNL     1       7.035   1.490   0.866  0.00  0.00    +0.177 HD
BRANCH  12  16
ATOM     16  C   UNL     1       4.960   0.161  -0.046  0.00  0.00    +0.133 C 
BRANCH  16  26
ATOM     17  C   UNL     1      -0.016   1.357   0.009  0.00  0.00    +0.001 A 
ATOM     18  C   UNL     1       1.169   2.091   0.002  0.00  0.00    +0.001 A 
ATOM     19  C   UNL     1       2.378   1.468  -0.013  0.00  0.00    +0.009 A 
ATOM     20  C   UNL     1       2.438   0.064  -0.021  0.00  0.00    -0.014 A 
ATOM     21  C   UNL     1       1.233  -0.683  -0.013  0.00  0.00    -0.018 A 
ATOM     22  C   UNL     1       0.002  -0.004   0.002  0.00  0.00    +0.008 A 
ATOM     23  C   UNL     1       1.292  -2.087  -0.021  0.00  0.00    +0.008 A 
ATOM     24  C   UNL     1       2.502  -2.709  -0.036  0.00  0.00    +0.001 A 
ATOM     25  C   UNL     1       3.687  -1.976  -0.043  0.00  0.00    +0.005 A 
ATOM     26  C   UNL     1       3.668  -0.615  -0.037  0.00  0.00    -0.031 A 
ENDBRANCH  16  26
ENDBRANCH  12  16
ENDBRANCH   1  14
BRANCH   9  27
ATOM     27  C   UNL     1      11.021   4.014   2.187  0.00  0.00    +0.095 C 
BRANCH  27  28
ATOM     28  C   UNL     1      12.164   3.003   2.070  0.00  0.00    -0.059 C 
BRANCH  28  29
ATOM     29  N   UNL     1      13.320   3.645   1.430  0.00  0.00    +0.381 N 
ATOM     30  C   UNL     1      12.973   4.013   0.052  0.00  0.00    -0.079 C 
ATOM     31  C   UNL     1      14.147   4.753  -0.593  0.00  0.00    -0.019 C 
ATOM     32  C   UNL     1      15.377   3.841  -0.601  0.00  0.00    -0.004 C 
ATOM     33  C   UNL     1      15.685   3.404   0.835  0.00  0.00    -0.019 C 
ATOM     34  C   UNL     1      14.455   2.713   1.427  0.00  0.00    -0.079 C 
ATOM     35  H   UNL     1      13.570   4.476   1.945  0.00  0.00    -0.082 HD
ENDBRANCH  28  29
ENDBRANCH  27  28
ENDBRANCH   9  27
TORSDOF 6
