REMARK  Name = ZINC36547718
REMARK  12 active torsions:
REMARK  status: ('A' for Active; 'I' for Inactive)
REMARK    1  A    between atoms: C_1  and  C_2
REMARK    2  A    between atoms: C_5  and  S_8
REMARK    3  A    between atoms: S_8  and  C_11
REMARK    4  A    between atoms: C_11  and  N_12
REMARK    5  A    between atoms: C_13  and  C_15
REMARK    6  A    between atoms: C_15  and  C_17
REMARK    7  A    between atoms: C_15  and  N_26
REMARK    8  A    between atoms: C_17  and  C_19
REMARK    9  A    between atoms: C_17  and  C_20
REMARK   10  A    between atoms: N_26  and  C_27
REMARK   11  A    between atoms: C_34  and  C_36
REMARK   12  A    between atoms: C_36  and  O_37
REMARK                            x       y       z     vdW  Elec       q    Type
REMARK                         _______ _______ _______ _____ _____    ______ ____
ROOT
ATOM      1  C   UNL     1       3.274  -5.086   3.436  0.00  0.00    +0.174 C 
ENDROOT
BRANCH   1   3
ATOM      2  N   UNL     1       2.675  -3.577   1.571  0.00  0.00    -0.295 N 
ATOM      3  C   UNL     1       3.137  -4.779   1.967  0.00  0.00    +0.236 C 
ATOM      4  O   UNL     1       3.442  -5.614   1.142  0.00  0.00    -0.274 OA
ATOM      5  H   UNL     1       2.431  -2.909   2.231  0.00  0.00    +0.150 HD
BRANCH   2   6
ATOM      6  C   UNL     1       2.542  -3.278   0.142  0.00  0.00    +0.278 C 
BRANCH   6   7
ATOM      7  S   UNL     1       0.843  -3.623  -0.391  0.00  0.00    +0.013 S 
ATOM      8  O   UNL     1       0.427  -4.894   0.090  0.00  0.00    -0.168 OA
ATOM      9  O   UNL     1       0.680  -3.279  -1.760  0.00  0.00    -0.168 OA
BRANCH   7  14
ATOM     10  C   UNL     1      -2.566   0.349   2.610  0.00  0.00    +0.044 C 
ATOM     11  C   UNL     1      -1.714  -0.643   1.861  0.00  0.00    -0.050 A 
ATOM     12  C   UNL     1      -1.200  -0.314   0.620  0.00  0.00    +0.005 A 
ATOM     13  C   UNL     1      -0.419  -1.224  -0.068  0.00  0.00    +0.027 A 
ATOM     14  C   UNL     1      -0.152  -2.463   0.486  0.00  0.00    +0.090 A 
ATOM     15  C   UNL     1      -0.665  -2.791   1.727  0.00  0.00    +0.027 A 
ATOM     16  C   UNL     1      -1.443  -1.879   2.416  0.00  0.00    +0.005 A 
ENDBRANCH   7  14
ENDBRANCH   6   7
ENDBRANCH   2   6
ENDBRANCH   1   3
BRANCH   1  17
ATOM     17  N   UNL     1       2.975  -6.501   3.669  0.00  0.00    -0.256 N 
ATOM     18  C   UNL     1       2.258  -6.869   4.750  0.00  0.00    +0.246 C 
ATOM     19  O   UNL     1       2.101  -8.045   5.002  0.00  0.00    -0.273 OA
BRANCH  17  20
ATOM     20  C   UNL     1       3.432  -7.471   2.769  0.00  0.00    +0.055 A 
ATOM     21  C   UNL     1       4.553  -8.231   3.076  0.00  0.00    +0.025 A 
ATOM     22  C   UNL     1       5.002  -9.187   2.186  0.00  0.00    +0.002 A 
ATOM     23  C   UNL     1       4.337  -9.388   0.991  0.00  0.00    +0.002 A 
ATOM     24  C   UNL     1       3.221  -8.633   0.681  0.00  0.00    +0.022 A 
ATOM     25  C   UNL     1       2.762  -7.679   1.570  0.00  0.00    +0.062 A 
ATOM     26 CL   UNL     1       1.356  -6.737   1.185  0.00  0.00    -0.082 Cl
ENDBRANCH  17  20
BRANCH  18  27
ATOM     27  C   UNL     1       1.653  -5.820   5.646  0.00  0.00    +0.252 C 
BRANCH  27  28
ATOM     28  O   UNL     1       1.063  -6.449   6.786  0.00  0.00    -0.386 OA
ATOM     29  H   UNL     1       0.654  -5.831   7.407  0.00  0.00    +0.210 HD
ENDBRANCH  27  28
ENDBRANCH  18  27
ENDBRANCH   1  17
BRANCH   1  30
ATOM     30  C   UNL     1       4.705  -4.787   3.888  0.00  0.00    +0.046 C 
ATOM     31  C   UNL     1       5.637  -5.899   3.403  0.00  0.00    +0.015 C 
BRANCH  30  32
ATOM     32  C   UNL     1       4.751  -4.713   5.393  0.00  0.00    -0.042 A 
ATOM     33  C   UNL     1       4.286  -5.771   6.151  0.00  0.00    +0.004 A 
ATOM     34  C   UNL     1       4.329  -5.704   7.531  0.00  0.00    +0.000 A 
ATOM     35  C   UNL     1       4.837  -4.579   8.153  0.00  0.00    +0.000 A 
ATOM     36  C   UNL     1       5.303  -3.521   7.395  0.00  0.00    +0.000 A 
ATOM     37  C   UNL     1       5.264  -3.590   6.014  0.00  0.00    +0.004 A 
ENDBRANCH  30  32
ENDBRANCH   1  30
TORSDOF 10
