REMARK  Name = ZINC20703966
REMARK  7 active torsions:
REMARK  status: ('A' for Active; 'I' for Inactive)
REMARK    1  A    between atoms: C_1  and  C_2
REMARK    2  A    between atoms: C_5  and  N_9
REMARK    3  A    between atoms: C_7  and  C_8
REMARK    4  A    between atoms: N_9  and  S_10
REMARK    5  A    between atoms: S_10  and  C_13
REMARK    6  A    between atoms: C_26  and  C_29
REMARK    7  A    between atoms: C_33  and  N_35
REMARK                            x       y       z     vdW  Elec       q    Type
REMARK                         _______ _______ _______ _____ _____    ______ ____
ROOT
ATOM      1  C   UNL     1      -3.371  -0.809   1.244  0.00  0.00    +0.109 A 
ATOM      2  C   UNL     1      -2.829  -2.046   1.544  0.00  0.00    +0.030 A 
ATOM      3  C   UNL     1      -1.538  -2.348   1.162  0.00  0.00    +0.025 A 
ATOM      4  C   UNL     1      -0.773  -1.414   0.474  0.00  0.00    +0.031 A 
ATOM      5  C   UNL     1      -1.332  -0.169   0.163  0.00  0.00    -0.018 A 
ATOM      6  C   UNL     1      -2.620   0.125   0.554  0.00  0.00    +0.034 A 
ATOM      7  C   UNL     1      -0.492   0.787  -0.590  0.00  0.00    +0.049 C 
ATOM      8  C   UNL     1      -0.700   2.256  -0.498  0.00  0.00    -0.023 C 
ATOM      9  C   UNL     1       0.474   2.859  -0.638  0.00  0.00    -0.030 C 
ATOM     10  C   UNL     1       1.582   1.817  -0.805  0.00  0.00    +0.033 C 
ATOM     11  C   UNL     1       0.972   0.602  -0.092  0.00  0.00    +0.029 C 
ATOM     12  C   UNL     1       1.397  -0.770  -0.608  0.00  0.00    +0.105 C 
ATOM     13  N   UNL     1       0.546  -1.730   0.128  0.00  0.00    -0.336 N 
ATOM     14  H   UNL     1       0.948  -2.714   0.413  0.00  0.00    +0.147 HD
ENDROOT
BRANCH  12  15
ATOM     15  C   UNL     1       2.850  -1.016  -0.297  0.00  0.00    -0.025 A 
ATOM     16  C   UNL     1       3.237  -1.328   0.994  0.00  0.00    +0.007 A 
ATOM     17  C   UNL     1       4.570  -1.554   1.280  0.00  0.00    +0.022 A 
ATOM     18  C   UNL     1       5.518  -1.469   0.275  0.00  0.00    +0.071 A 
ATOM     19  C   UNL     1       5.130  -1.157  -1.016  0.00  0.00    +0.145 A 
ATOM     20  C   UNL     1       3.796  -0.936  -1.302  0.00  0.00    +0.039 A 
ATOM     21 CL   UNL     1       7.192  -1.753   0.634  0.00  0.00    -0.081 Cl
BRANCH  19  22
ATOM     22  N   UNL     1       6.143  -1.064  -2.091  0.00  0.00    +0.058 N 
ATOM     23  O   UNL     1       5.801  -0.789  -3.227  0.00  0.00    -0.126 OA
ATOM     24  O   UNL     1       7.318  -1.263  -1.839  0.00  0.00    -0.126 OA
ENDBRANCH  19  22
ENDBRANCH  12  15
BRANCH   1  25
ATOM     25  S   UNL     1      -5.016  -0.424   1.742  0.00  0.00    +0.072 S 
ATOM     26  O   UNL     1      -5.434   0.678   0.948  0.00  0.00    -0.150 OA
ATOM     27  O   UNL     1      -5.729  -1.653   1.774  0.00  0.00    -0.150 OA
BRANCH  25  28
ATOM     28  N   UNL     1      -4.941   0.121   3.304  0.00  0.00    -0.216 N 
ATOM     29  H   UNL     1      -5.440  -0.442   4.107  0.00  0.00    +0.174 HD
BRANCH  28  34
ATOM     30  C   UNL     1      -2.111   4.883   4.515  0.00  0.00    +0.044 C 
ATOM     31  C   UNL     1      -2.863   3.618   4.193  0.00  0.00    -0.047 A 
ATOM     32  C   UNL     1      -2.323   2.390   4.529  0.00  0.00    +0.005 A 
ATOM     33  C   UNL     1      -3.011   1.228   4.240  0.00  0.00    +0.025 A 
ATOM     34  C   UNL     1      -4.244   1.294   3.602  0.00  0.00    +0.048 A 
ATOM     35  C   UNL     1      -4.783   2.529   3.265  0.00  0.00    +0.028 A 
ATOM     36  C   UNL     1      -4.091   3.687   3.562  0.00  0.00    -0.046 A 
ATOM     37  C   UNL     1      -4.676   5.027   3.197  0.00  0.00    +0.044 C 
ENDBRANCH  28  34
ENDBRANCH  25  28
ENDBRANCH   1  25
TORSDOF 5
