REMARK  Name = ZINC35370198
REMARK  6 active torsions:
REMARK  status: ('A' for Active; 'I' for Inactive)
REMARK    1  A    between atoms: C_1  and  C_2
REMARK    2  A    between atoms: C_6  and  C_8
REMARK    3  A    between atoms: N_17  and  S_20
REMARK    4  A    between atoms: S_20  and  C_23
REMARK    5  A    between atoms: C_26  and  N_32
REMARK    6  A    between atoms: C_28  and  N_29
REMARK                            x       y       z     vdW  Elec       q    Type
REMARK                         _______ _______ _______ _____ _____    ______ ____
ROOT
ATOM      1  C   UNL     1      -1.857  -3.296   2.481  0.00  0.00    +0.248 C 
ATOM      2  O   UNL     1      -1.875  -2.646   3.507  0.00  0.00    -0.270 OA
ATOM      3  N   UNL     1      -1.609  -4.620   2.526  0.00  0.00    -0.282 N 
ATOM      4  C   UNL     1      -1.798  -5.485   1.362  0.00  0.00    +0.120 C 
ATOM      5  C   UNL     1      -0.784  -6.668   1.380  0.00  0.00    +0.090 C 
ATOM      6  S   UNL     1      -0.793  -7.004   3.199  0.00  0.00    -0.133 S 
ATOM      7  C   UNL     1      -1.128  -5.282   3.744  0.00  0.00    +0.086 C 
ATOM      8  C   UNL     1      -2.200  -5.290   4.824  0.00  0.00    +0.054 C 
ATOM      9  C   UNL     1      -2.495  -3.850   5.261  0.00  0.00    +0.112 C 
ATOM     10  N   UNL     1      -1.230  -3.204   5.639  0.00  0.00    -0.176 NA
ATOM     11  C   UNL     1      -0.120  -3.199   4.677  0.00  0.00    +0.112 C 
ATOM     12  C   UNL     1       0.160  -4.643   4.243  0.00  0.00    +0.054 C 
ENDROOT
BRANCH   1  18
ATOM     13  C   UNL     1      -1.738   0.796  -0.374  0.00  0.00    +0.044 C 
ATOM     14  C   UNL     1      -2.052  -0.667  -0.195  0.00  0.00    -0.050 A 
ATOM     15  C   UNL     1      -2.576  -1.395  -1.249  0.00  0.00    +0.003 A 
ATOM     16  C   UNL     1      -2.866  -2.738  -1.094  0.00  0.00    +0.001 A 
ATOM     17  C   UNL     1      -2.635  -3.362   0.115  0.00  0.00    +0.013 A 
ATOM     18  C   UNL     1      -2.107  -2.634   1.182  0.00  0.00    +0.037 A 
ATOM     19  C   UNL     1      -1.811  -1.280   1.017  0.00  0.00    +0.016 A 
ENDBRANCH   1  18
BRANCH  10  20
ATOM     20  S   UNL     1      -1.059  -2.493   7.125  0.00  0.00    +0.063 S 
ATOM     21  O   UNL     1       0.093  -1.665   7.049  0.00  0.00    -0.153 OA
ATOM     22  O   UNL     1      -2.338  -1.988   7.483  0.00  0.00    -0.153 OA
BRANCH  20  23
ATOM     23  C   UNL     1      -0.684  -3.774   8.276  0.00  0.00    +0.136 A 
ATOM     24  C   UNL     1      -0.313  -5.025   7.820  0.00  0.00    +0.033 A 
ATOM     25  C   UNL     1      -0.019  -6.030   8.722  0.00  0.00    +0.035 A 
ATOM     26  C   UNL     1      -0.095  -5.783  10.081  0.00  0.00    +0.128 A 
ATOM     27  C   UNL     1      -0.465  -4.532  10.536  0.00  0.00    +0.067 A 
ATOM     28  C   UNL     1      -0.755  -3.526   9.633  0.00  0.00    +0.155 A 
BRANCH  28  29
ATOM     29  N   UNL     1      -1.147  -2.184  10.121  0.00  0.00    +0.058 N 
ATOM     30  O   UNL     1      -1.326  -1.999  11.302  0.00  0.00    -0.126 OA
ATOM     31  O   UNL     1      -1.286  -1.273   9.338  0.00  0.00    -0.126 OA
ENDBRANCH  28  29
BRANCH  26  32
ATOM     32  N   UNL     1       0.219  -6.859  11.047  0.00  0.00    +0.056 N 
ATOM     33  O   UNL     1       0.543  -7.954  10.649  0.00  0.00    -0.126 OA
ATOM     34  O   UNL     1       0.153  -6.644  12.235  0.00  0.00    -0.126 OA
ENDBRANCH  26  32
ENDBRANCH  20  23
ENDBRANCH  10  20
TORSDOF 5
