REMARK  Name = ZINC13495952
REMARK  18 active torsions:
REMARK  status: ('A' for Active; 'I' for Inactive)
REMARK    1  A    between atoms: C_1  and  C_2
REMARK    2  A    between atoms: C_2  and  C_3
REMARK    3  A    between atoms: C_3  and  C_5
REMARK    4  A    between atoms: C_3  and  N_78
REMARK    5  A    between atoms: N_9  and  C_10
REMARK    6  A    between atoms: C_10  and  C_11
REMARK    7  A    between atoms: C_10  and  C_12
REMARK    8  A    between atoms: C_10  and  C_13
REMARK    9  A    between atoms: C_13  and  C_14
REMARK   10  A    between atoms: C_15  and  C_16
REMARK   11  A    between atoms: C_15  and  N_78
REMARK   12  A    between atoms: C_16  and  C_17
REMARK   13  A    between atoms: C_21  and  C_23
REMARK   14  A    between atoms: C_24  and  C_25
REMARK   15  A    between atoms: C_24  and  N_78
REMARK   16  A    between atoms: C_29  and  O_37
REMARK   17  A    between atoms: O_37  and  C_38
REMARK   18  A    between atoms: C_38  and  C_39
REMARK                            x       y       z     vdW  Elec       q    Type
REMARK                         _______ _______ _______ _____ _____    ______ ____
ROOT
ATOM      1  N   UNL     1      -5.053  -0.101   1.205  0.00  0.00    +0.389 N 
ATOM      2  H   UNL     1      -4.527  -0.777   0.638  0.00  0.00    -0.080 HD
ENDROOT
BRANCH   1   3
ATOM      3  C   UNL     1      -6.044   0.579   0.344  0.00  0.00    +0.003 C 
BRANCH   3   4
ATOM      4  C   UNL     1      -6.991   1.402   1.179  0.00  0.00    +0.139 A 
ATOM      5  N   UNL     1      -7.562   1.039   2.301  0.00  0.00    -0.115 NA
ATOM      6  N   UNL     1      -8.297   2.016   2.708  0.00  0.00    -0.023 NA
ATOM      7  N   UNL     1      -8.215   2.990   1.871  0.00  0.00    -0.043 NA
ATOM      8  N   UNL     1      -7.419   2.650   0.914  0.00  0.00    -0.225 N 
BRANCH   8   9
ATOM      9  C   UNL     1      -7.051   3.469  -0.244  0.00  0.00    +0.061 C 
ATOM     10  C   UNL     1      -5.570   3.842  -0.155  0.00  0.00    +0.036 C 
ATOM     11  C   UNL     1      -7.300   2.676  -1.529  0.00  0.00    +0.036 C 
BRANCH   9  12
ATOM     12  C   UNL     1      -7.898   4.743  -0.258  0.00  0.00    +0.026 C 
ATOM     13  C   UNL     1      -7.513   5.597  -1.468  0.00  0.00    +0.006 C 
ENDBRANCH   9  12
ENDBRANCH   8   9
ENDBRANCH   3   4
BRANCH   3  15
ATOM     14  C   UNL     1      -5.892  -1.228  -1.374  0.00  0.00    +0.002 C 
ATOM     15  C   UNL     1      -6.833  -0.479  -0.429  0.00  0.00    -0.011 C 
ENDBRANCH   3  15
ENDBRANCH   1   3
BRANCH   1  16
ATOM     16  C   UNL     1      -4.110   0.888   1.769  0.00  0.00    -0.073 C 
BRANCH  16  17
ATOM     17  C   UNL     1      -3.140   1.325   0.669  0.00  0.00    +0.016 C 
BRANCH  17  18
ATOM     18  C   UNL     1      -2.104   2.250   1.253  0.00  0.00    -0.049 A 
ATOM     19  C   UNL     1      -0.927   1.735   1.765  0.00  0.00    +0.003 A 
ATOM     20  C   UNL     1       0.026   2.584   2.295  0.00  0.00    +0.001 A 
ATOM     21  C   UNL     1      -0.199   3.948   2.317  0.00  0.00    +0.003 A 
ATOM     22  C   UNL     1      -1.377   4.462   1.810  0.00  0.00    -0.050 A 
ATOM     23  C   UNL     1      -2.331   3.613   1.280  0.00  0.00    +0.007 A 
ATOM     24  C   UNL     1      -1.622   5.949   1.834  0.00  0.00    +0.044 C 
ENDBRANCH  17  18
ENDBRANCH  16  17
ENDBRANCH   1  16
BRANCH   1  25
ATOM     25  C   UNL     1      -5.741  -0.823   2.296  0.00  0.00    -0.037 C 
BRANCH  25  26
ATOM     26  C   UNL     1      -4.808  -1.871   2.845  0.00  0.00    +0.001 A 
ATOM     27  C   UNL     1      -4.058  -1.599   3.942  0.00  0.00    +0.017 A 
ATOM     28  C   UNL     1      -3.161  -2.639   4.451  0.00  0.00    +0.002 A 
ATOM     29  C   UNL     1      -2.364  -2.415   5.579  0.00  0.00    +0.055 A 
ATOM     30  C   UNL     1      -1.530  -3.417   6.032  0.00  0.00    +0.121 A 
ATOM     31  C   UNL     1      -1.481  -4.643   5.373  0.00  0.00    +0.047 A 
ATOM     32  C   UNL     1      -2.261  -4.875   4.262  0.00  0.00    +0.030 A 
ATOM     33  C   UNL     1      -3.108  -3.879   3.788  0.00  0.00    +0.049 A 
ATOM     34  N   UNL     1      -3.898  -4.092   2.676  0.00  0.00    -0.322 N 
ATOM     35  H   UNL     1      -3.861  -4.947   2.220  0.00  0.00    +0.169 HD
ATOM     36  C   UNL     1      -4.722  -3.133   2.220  0.00  0.00    +0.251 A 
ATOM     37  O   UNL     1      -5.410  -3.358   1.239  0.00  0.00    -0.268 OA
BRANCH  30  38
ATOM     38  O   UNL     1      -0.753  -3.206   7.128  0.00  0.00    -0.492 OA
BRANCH  38  39
ATOM     39  C   UNL     1       0.087  -4.284   7.545  0.00  0.00    +0.225 C 
ATOM     40  C   UNL     1       0.881  -3.862   8.783  0.00  0.00    +0.048 C 
ENDBRANCH  38  39
ENDBRANCH  30  38
ENDBRANCH  25  26
ENDBRANCH   1  25
TORSDOF 12
