REMARK  Name = ZINC39680997
REMARK  8 active torsions:
REMARK  status: ('A' for Active; 'I' for Inactive)
REMARK    1  A    between atoms: C_1  and  C_2
REMARK    2  A    between atoms: C_2  and  C_4
REMARK    3  A    between atoms: C_2  and  N_10
REMARK    4  A    between atoms: C_11  and  C_13
REMARK    5  A    between atoms: C_24  and  C_26
REMARK    6  A    between atoms: C_26  and  C_27
REMARK    7  A    between atoms: C_27  and  S_28
REMARK    8  A    between atoms: S_28  and  C_29
REMARK                            x       y       z     vdW  Elec       q    Type
REMARK                         _______ _______ _______ _____ _____    ______ ____
ROOT
ATOM      1  C   UNL     1       2.736  -1.073  -2.455  0.00  0.00    +0.100 C 
ATOM      2  C   UNL     1       2.403  -0.160  -3.656  0.00  0.00    +0.121 C 
ATOM      3  N   UNL     1       3.518   0.815  -3.706  0.00  0.00    -0.300 N 
ATOM      4  C   UNL     1       4.723   0.013  -3.386  0.00  0.00    +0.115 C 
ATOM      5  C   UNL     1       4.260  -0.959  -2.283  0.00  0.00    -0.004 C 
ATOM      6  C   UNL     1       4.917  -2.324  -2.472  0.00  0.00    -0.010 C 
ATOM      7  C   UNL     1       6.425  -2.196  -2.239  0.00  0.00    -0.082 C 
ATOM      8  N   UNL     1       6.671  -1.696  -0.881  0.00  0.00    +0.379 N 
ATOM      9  C   UNL     1       6.117  -0.345  -0.737  0.00  0.00    -0.082 C 
ATOM     10  C   UNL     1       4.596  -0.394  -0.907  0.00  0.00    -0.010 C 
ATOM     11  C   UNL     1       3.451   2.133  -3.980  0.00  0.00    +0.216 C 
ATOM     12  O   UNL     1       4.462   2.804  -3.983  0.00  0.00    -0.276 OA
ATOM     13  H   UNL     1       6.232  -2.312  -0.213  0.00  0.00    -0.086 HD
ATOM     14  H   UNL     1       7.665  -1.671  -0.709  0.00  0.00    -0.086 HD
ENDROOT
BRANCH   1  16
ATOM     15  N   UNL     1       1.697  -1.460  -0.244  0.00  0.00    -0.308 N 
ATOM     16  C   UNL     1       2.031  -0.587  -1.215  0.00  0.00    +0.219 C 
ATOM     17  O   UNL     1       1.764   0.590  -1.091  0.00  0.00    -0.275 OA
ATOM     18  H   UNL     1       1.911  -2.401  -0.343  0.00  0.00    +0.149 HD
BRANCH  15  20
ATOM     19  C   UNL     1      -0.495  -0.927   0.701  0.00  0.00    +0.033 C 
ATOM     20  C   UNL     1       1.011  -0.987   0.962  0.00  0.00    +0.100 C 
BRANCH  20  21
ATOM     21  C   UNL     1       1.286  -1.935   2.100  0.00  0.00    -0.025 A 
ATOM     22  C   UNL     1       1.315  -3.306   1.891  0.00  0.00    +0.025 A 
ATOM     23  C   UNL     1       1.571  -4.144   2.960  0.00  0.00    +0.111 A 
ATOM     24  N   UNL     1       1.785  -3.655   4.165  0.00  0.00    -0.263 NA
ATOM     25  C   UNL     1       1.765  -2.358   4.401  0.00  0.00    +0.111 A 
ATOM     26  C   UNL     1       1.522  -1.458   3.380  0.00  0.00    +0.025 A 
ENDBRANCH  20  21
ENDBRANCH  15  20
ENDBRANCH   1  16
BRANCH  11  27
ATOM     27  C   UNL     1       2.121   2.773  -4.284  0.00  0.00    +0.106 C 
BRANCH  27  28
ATOM     28  C   UNL     1       2.324   4.264  -4.558  0.00  0.00    +0.078 C 
BRANCH  28  29
ATOM     29  S   UNL     1       0.723   5.035  -4.924  0.00  0.00    -0.164 S 
ATOM     30  C   UNL     1       1.131   6.777  -5.221  0.00  0.00    +0.084 C 
ENDBRANCH  28  29
ENDBRANCH  27  28
ENDBRANCH  11  27
TORSDOF 6
