REMARK  Name = ZINC60330209
REMARK  9 active torsions:
REMARK  status: ('A' for Active; 'I' for Inactive)
REMARK    1  A    between atoms: C_1  and  C_2
REMARK    2  A    between atoms: C_6  and  O_8
REMARK    3  A    between atoms: O_8  and  C_9
REMARK    4  A    between atoms: C_9  and  C_10
REMARK    5  A    between atoms: C_10  and  C_12
REMARK    6  A    between atoms: C_10  and  O_32
REMARK    7  A    between atoms: C_12  and  N_13
REMARK    8  A    between atoms: N_20  and  C_22
REMARK    9  A    between atoms: C_22  and  C_23
REMARK                            x       y       z     vdW  Elec       q    Type
REMARK                         _______ _______ _______ _____ _____    ______ ____
ROOT
ATOM      1  N   UNL     1       0.242  -6.886   4.944  0.00  0.00    -0.222 N 
ATOM      2  C   UNL     1       1.359  -7.071   5.678  0.00  0.00    +0.245 C 
ATOM      3  O   UNL     1       2.499  -6.809   5.358  0.00  0.00    -0.273 OA
ATOM      4  C   UNL     1       0.890  -7.674   6.981  0.00  0.00    +0.098 C 
ATOM      5  C   UNL     1       1.243  -6.759   8.150  0.00  0.00    +0.031 C 
ATOM      6  C   UNL     1       0.792  -7.418   9.458  0.00  0.00    -0.016 C 
ATOM      7  C   UNL     1       1.433  -8.803   9.569  0.00  0.00    -0.078 C 
ATOM      8  N   UNL     1       1.010  -9.637   8.438  0.00  0.00    +0.384 N 
ATOM      9  C   UNL     1       1.501  -9.057   7.181  0.00  0.00    -0.043 C 
ATOM     10  N   UNL     1      -0.567  -7.771   6.827  0.00  0.00    -0.287 N 
ATOM     11  C   UNL     1      -0.853  -7.282   5.605  0.00  0.00    +0.309 C 
ATOM     12  O   UNL     1      -1.978  -7.210   5.152  0.00  0.00    -0.252 OA
ATOM     13  H   UNL     1      -1.198  -8.117   7.477  0.00  0.00    +0.151 HD
ATOM     14  H   UNL     1       0.003  -9.685   8.415  0.00  0.00    -0.081 HD
ENDROOT
BRANCH   1  15
ATOM     15  C   UNL     1       0.228  -6.317   3.594  0.00  0.00    +0.152 C 
BRANCH  15  16
ATOM     16  C   UNL     1       0.083  -4.796   3.683  0.00  0.00    +0.170 C 
BRANCH  16  17
ATOM     17  O   UNL     1      -1.140  -4.473   4.349  0.00  0.00    -0.387 OA
ATOM     18  H   UNL     1      -1.930  -4.810   3.905  0.00  0.00    +0.210 HD
ENDBRANCH  16  17
BRANCH  16  19
ATOM     19  C   UNL     1       0.069  -4.202   2.274  0.00  0.00    +0.261 C 
BRANCH  19  20
ATOM     20  O   UNL     1       0.050  -2.776   2.358  0.00  0.00    -0.489 OA
BRANCH  20  26
ATOM     21  C   UNL     1      -0.018   1.503   0.010  0.00  0.00    +0.044 C 
ATOM     22  C   UNL     1       0.002  -0.004   0.002  0.00  0.00    -0.047 A 
ATOM     23  C   UNL     1       0.006  -0.688  -1.200  0.00  0.00    +0.003 A 
ATOM     24  C   UNL     1       0.024  -2.071  -1.211  0.00  0.00    +0.004 A 
ATOM     25  C   UNL     1       0.039  -2.772  -0.020  0.00  0.00    +0.045 A 
ATOM     26  C   UNL     1       0.035  -2.088   1.186  0.00  0.00    +0.121 A 
ATOM     27  C   UNL     1       0.023  -0.700   1.195  0.00  0.00    +0.049 A 
ENDBRANCH  20  26
ENDBRANCH  19  20
ENDBRANCH  16  19
ENDBRANCH  15  16
ENDBRANCH   1  15
BRANCH   8  28
ATOM     28  C   UNL     1       1.559 -10.991   8.597  0.00  0.00    -0.043 C 
BRANCH  28  29
ATOM     29  C   UNL     1       0.955 -11.637   9.818  0.00  0.00    -0.064 A 
ATOM     30  C   UNL     1       1.563 -11.490  11.050  0.00  0.00    +0.002 A 
ATOM     31  C   UNL     1       1.010 -12.082  12.170  0.00  0.00    +0.000 A 
ATOM     32  C   UNL     1      -0.153 -12.822  12.057  0.00  0.00    +0.000 A 
ATOM     33  C   UNL     1      -0.761 -12.969  10.824  0.00  0.00    +0.000 A 
ATOM     34  C   UNL     1      -0.210 -12.372   9.706  0.00  0.00    +0.002 A 
ENDBRANCH  28  29
ENDBRANCH   8  28
TORSDOF 8
