REMARK  Name = ZINC36556485
REMARK  14 active torsions:
REMARK  status: ('A' for Active; 'I' for Inactive)
REMARK    1  A    between atoms: C_1  and  C_2
REMARK    2  A    between atoms: C_5  and  C_7
REMARK    3  A    between atoms: C_7  and  N_8
REMARK    4  A    between atoms: N_8  and  C_9
REMARK    5  A    between atoms: C_9  and  C_11
REMARK    6  A    between atoms: C_9  and  C_20
REMARK    7  A    between atoms: C_14  and  N_17
REMARK    8  A    between atoms: N_17  and  C_18
REMARK    9  A    between atoms: N_17  and  C_19
REMARK   10  A    between atoms: N_22  and  C_23
REMARK   11  A    between atoms: C_29  and  C_31
REMARK   12  A    between atoms: C_31  and  C_33
REMARK   13  A    between atoms: C_31  and  O_39
REMARK   14  A    between atoms: O_39  and  C_40
REMARK                            x       y       z     vdW  Elec       q    Type
REMARK                         _______ _______ _______ _____ _____    ______ ____
ROOT
ATOM      1  C   UNL     1       3.215  -3.042  -2.834  0.00  0.00    +0.193 C 
ENDROOT
BRANCH   1   2
ATOM      2  C   UNL     1       3.091  -1.684  -3.477  0.00  0.00    -0.018 A 
ATOM      3  C   UNL     1       2.630  -0.611  -2.737  0.00  0.00    +0.008 A 
ATOM      4  C   UNL     1       2.514   0.635  -3.323  0.00  0.00    +0.023 A 
ATOM      5  C   UNL     1       2.862   0.808  -4.656  0.00  0.00    +0.029 A 
ATOM      6  C   UNL     1       3.325  -0.272  -5.396  0.00  0.00    +0.023 A 
ATOM      7  C   UNL     1       3.443  -1.514  -4.803  0.00  0.00    +0.008 A 
BRANCH   5   8
ATOM      8  N   UNL     1       2.747   2.066  -5.252  0.00  0.00    -0.336 N 
ATOM      9  C   UNL     1       2.378   3.230  -4.441  0.00  0.00    +0.129 C 
ATOM     10  C   UNL     1       2.994   2.223  -6.687  0.00  0.00    +0.129 C 
ENDBRANCH   5   8
ENDBRANCH   1   2
BRANCH   1  11
ATOM     11  C   UNL     1       3.772  -2.890  -1.442  0.00  0.00    +0.238 C 
ATOM     12  O   UNL     1       3.130  -3.270  -0.487  0.00  0.00    -0.273 OA
ATOM     13  N   UNL     1       4.985  -2.331  -1.260  0.00  0.00    -0.311 N 
ATOM     14  H   UNL     1       5.499  -2.026  -2.024  0.00  0.00    +0.149 HD
BRANCH  13  15
ATOM     15  C   UNL     1       5.527  -2.183   0.093  0.00  0.00    +0.073 C 
ATOM     16  C   UNL     1       4.999  -0.889   0.716  0.00  0.00    +0.022 C 
ATOM     17  C   UNL     1       5.566  -0.734   2.128  0.00  0.00    +0.002 C 
ATOM     18  C   UNL     1       7.093  -0.682   2.063  0.00  0.00    +0.000 C 
ATOM     19  C   UNL     1       7.621  -1.977   1.441  0.00  0.00    +0.002 C 
ATOM     20  C   UNL     1       7.055  -2.131   0.028  0.00  0.00    +0.022 C 
ENDBRANCH  13  15
ENDBRANCH   1  11
BRANCH   1  21
ATOM     21  N   UNL     1       1.894  -3.672  -2.765  0.00  0.00    -0.276 N 
ATOM     22  C   UNL     1       1.689  -4.872  -3.343  0.00  0.00    +0.250 C 
ATOM     23  O   UNL     1       2.623  -5.484  -3.818  0.00  0.00    -0.272 OA
BRANCH  21  24
ATOM     24  C   UNL     1       0.797  -2.998  -2.067  0.00  0.00    +0.183 C 
BRANCH  24  29
ATOM     25  C   UNL     1      -0.782   0.619  -5.208  0.00  0.00    +0.086 C 
ATOM     26  C   UNL     1      -0.731  -0.671  -4.430  0.00  0.00    +0.102 A 
ATOM     27  C   UNL     1      -1.649  -1.653  -4.475  0.00  0.00    +0.045 A 
ATOM     28  C   UNL     1      -1.206  -2.667  -3.595  0.00  0.00    +0.046 A 
ATOM     29  C   UNL     1      -0.044  -2.243  -3.065  0.00  0.00    +0.122 A 
ATOM     30  O   UNL     1       0.241  -1.036  -3.579  0.00  0.00    -0.463 OA
ENDBRANCH  24  29
ENDBRANCH  21  24
BRANCH  22  31
ATOM     31  C   UNL     1       0.300  -5.453  -3.401  0.00  0.00    +0.233 C 
BRANCH  31  32
ATOM     32  C   UNL     1       0.015  -6.201  -2.124  0.00  0.00    -0.010 A 
ATOM     33  C   UNL     1       0.687  -7.378  -1.848  0.00  0.00    +0.006 A 
ATOM     34  C   UNL     1       0.426  -8.064  -0.676  0.00  0.00    +0.000 A 
ATOM     35  C   UNL     1      -0.506  -7.574   0.219  0.00  0.00    +0.000 A 
ATOM     36  C   UNL     1      -1.177  -6.397  -0.057  0.00  0.00    +0.000 A 
ATOM     37  C   UNL     1      -0.913  -5.708  -1.226  0.00  0.00    +0.006 A 
ENDBRANCH  31  32
BRANCH  31  38
ATOM     38  O   UNL     1       0.204  -6.349  -4.509  0.00  0.00    -0.366 OA
ATOM     39  C   UNL     1      -0.217  -5.727  -5.725  0.00  0.00    +0.195 C 
ENDBRANCH  31  38
ENDBRANCH  22  31
ENDBRANCH   1  21
TORSDOF 10
