REMARK  Name = ZINC20920095
REMARK  9 active torsions:
REMARK  status: ('A' for Active; 'I' for Inactive)
REMARK    1  A    between atoms: C_1  and  O_2
REMARK    2  A    between atoms: O_2  and  C_3
REMARK    3  A    between atoms: C_5  and  C_11
REMARK    4  A    between atoms: C_7  and  O_9
REMARK    5  A    between atoms: O_9  and  C_10
REMARK    6  A    between atoms: C_11  and  N_12
REMARK    7  A    between atoms: C_18  and  C_20
REMARK    8  A    between atoms: C_20  and  C_21
REMARK    9  A    between atoms: N_26  and  C_29
REMARK                            x       y       z     vdW  Elec       q    Type
REMARK                         _______ _______ _______ _____ _____    ______ ____
ROOT
ATOM      1  N   UNL     1      -0.333  -4.914  -3.340  0.00  0.00    -0.285 NA
ATOM      2  C   UNL     1      -0.444  -4.706  -4.793  0.00  0.00    +0.104 C 
ATOM      3  C   UNL     1      -1.679  -5.450  -5.303  0.00  0.00    +0.119 C 
ATOM      4  N   UNL     1      -1.666  -6.829  -4.824  0.00  0.00    -0.313 N 
ATOM      5  C   UNL     1      -0.916  -7.233  -3.793  0.00  0.00    +0.231 C 
ATOM      6  O   UNL     1      -0.989  -8.392  -3.441  0.00  0.00    -0.274 OA
ATOM      7  C   UNL     1       0.013  -6.313  -3.054  0.00  0.00    +0.152 C 
ATOM      8  H   UNL     1      -2.227  -7.481  -5.273  0.00  0.00    +0.149 HD
ENDROOT
BRANCH   1   9
ATOM      9  C   UNL     1       0.651  -3.997  -2.751  0.00  0.00    +0.120 C 
BRANCH   9  12
ATOM     10  C   UNL     1      -1.159  -0.888  -1.589  0.00  0.00    +0.124 A 
ATOM     11  C   UNL     1      -0.634  -2.172  -1.619  0.00  0.00    +0.050 A 
ATOM     12  C   UNL     1       0.082  -2.601  -2.720  0.00  0.00    -0.026 A 
ATOM     13  C   UNL     1       0.278  -1.753  -3.793  0.00  0.00    +0.050 A 
ATOM     14  C   UNL     1      -0.245  -0.468  -3.768  0.00  0.00    +0.124 A 
ATOM     15  C   UNL     1      -0.969  -0.037  -2.667  0.00  0.00    +0.091 A 
BRANCH  10  17
ATOM     16  C   UNL     1      -2.379   0.866  -0.546  0.00  0.00    +0.277 C 
ATOM     17  O   UNL     1      -1.863  -0.466  -0.506  0.00  0.00    -0.495 OA
ENDBRANCH  10  17
BRANCH  14  18
ATOM     18  O   UNL     1      -0.051   0.366  -4.824  0.00  0.00    -0.495 OA
ATOM     19  C   UNL     1      -0.618   1.674  -4.729  0.00  0.00    +0.277 C 
ENDBRANCH  14  18
ENDBRANCH   9  12
ENDBRANCH   1   9
BRANCH   7  20
ATOM     20  C   UNL     1      -0.109  -6.568  -1.550  0.00  0.00    +0.124 C 
BRANCH  20  21
ATOM     21  C   UNL     1      -1.506  -6.233  -1.095  0.00  0.00    +0.217 C 
ATOM     22  O   UNL     1      -2.295  -5.738  -1.873  0.00  0.00    -0.276 OA
ATOM     23  N   UNL     1      -1.879  -6.484   0.175  0.00  0.00    -0.305 N 
ATOM     24  C   UNL     1      -0.938  -7.079   1.137  0.00  0.00    +0.089 C 
ATOM     25  C   UNL     1      -0.943  -6.227   2.410  0.00  0.00    -0.059 C 
ATOM     26  N   UNL     1      -2.318  -6.100   2.908  0.00  0.00    +0.384 N 
ATOM     27  C   UNL     1      -3.135  -5.362   1.937  0.00  0.00    -0.059 C 
ATOM     28  C   UNL     1      -3.238  -6.165   0.641  0.00  0.00    +0.089 C 
ATOM     29  H   UNL     1      -2.711  -7.019   3.047  0.00  0.00    -0.081 HD
BRANCH  26  30
ATOM     30  C   UNL     1      -2.309  -5.377   4.187  0.00  0.00    -0.068 C 
ATOM     31  C   UNL     1      -1.523  -6.181   5.243  0.00  0.00    -0.015 C 
ATOM     32  C   UNL     1      -2.306  -5.949   6.559  0.00  0.00    -0.002 C 
ATOM     33  C   UNL     1      -3.781  -5.958   6.085  0.00  0.00    -0.002 C 
ATOM     34  C   UNL     1      -3.745  -5.236   4.723  0.00  0.00    -0.015 C 
ENDBRANCH  26  30
ENDBRANCH  20  21
ENDBRANCH   7  20
TORSDOF 7
