REMARK  Name = ZINC40781462
REMARK  4 active torsions:
REMARK  status: ('A' for Active; 'I' for Inactive)
REMARK    1  A    between atoms: C_5  and  N_7
REMARK    2  A    between atoms: C_9  and  N_27
REMARK    3  A    between atoms: C_10  and  N_14
REMARK    4  A    between atoms: N_17  and  C_20
REMARK                            x       y       z     vdW  Elec       q    Type
REMARK                         _______ _______ _______ _____ _____    ______ ____
ROOT
ATOM      1  N   UNL     1      -1.095  -1.996  -2.317  0.00  0.00    -0.297 N 
ATOM      2  C   UNL     1      -1.006  -2.756  -1.156  0.00  0.00    +0.149 A 
ATOM      3  C   UNL     1      -0.947  -4.149  -1.224  0.00  0.00    +0.106 A 
ATOM      4  C   UNL     1      -0.858  -4.864  -0.028  0.00  0.00    +0.147 A 
ATOM      5  N   UNL     1      -0.832  -4.195   1.123  0.00  0.00    -0.219 NA
ATOM      6  C   UNL     1      -0.890  -2.879   1.142  0.00  0.00    +0.225 A 
ATOM      7  N   UNL     1      -0.970  -2.166   0.037  0.00  0.00    -0.219 NA
ATOM      8  H   UNL     1      -1.205  -2.433  -3.176  0.00  0.00    +0.154 HD
ENDROOT
BRANCH   1  13
ATOM      9  C   UNL     1      -0.319   1.389  -1.112  0.00  0.00    +0.002 A 
ATOM     10  C   UNL     1      -0.895   2.160  -2.106  0.00  0.00    +0.001 A 
ATOM     11  C   UNL     1      -1.538   1.554  -3.170  0.00  0.00    +0.017 A 
ATOM     12  C   UNL     1      -1.606   0.176  -3.243  0.00  0.00    +0.039 A 
ATOM     13  C   UNL     1      -1.028  -0.601  -2.246  0.00  0.00    +0.047 A 
ATOM     14  C   UNL     1      -0.383   0.011  -1.179  0.00  0.00    +0.024 A 
ATOM     15 BR   UNL     1      -2.486  -0.652  -4.698  0.00  0.00    -0.048 Br
ENDBRANCH   1  13
BRANCH   4  16
ATOM     16  N   UNL     1      -0.796  -6.252  -0.038  0.00  0.00    -0.311 N 
ATOM     17  C   UNL     1       0.490  -6.943  -0.208  0.00  0.00    +0.125 C 
ATOM     18  C   UNL     1       0.687  -7.907   0.969  0.00  0.00    +0.124 C 
ATOM     19  N   UNL     1      -0.533  -8.710   1.127  0.00  0.00    -0.325 N 
ATOM     20  C   UNL     1      -1.819  -8.019   1.297  0.00  0.00    +0.124 C 
ATOM     21  C   UNL     1      -2.016  -7.056   0.126  0.00  0.00    +0.125 C 
BRANCH  19  22
ATOM     22  C   UNL     1      -0.471 -10.107   1.117  0.00  0.00    +0.065 A 
ATOM     23  C   UNL     1      -0.290 -10.805   2.303  0.00  0.00    +0.026 A 
ATOM     24  C   UNL     1      -0.230 -12.185   2.290  0.00  0.00    +0.002 A 
ATOM     25  C   UNL     1      -0.350 -12.873   1.096  0.00  0.00    +0.003 A 
ATOM     26  C   UNL     1      -0.530 -12.183  -0.088  0.00  0.00    +0.040 A 
ATOM     27  C   UNL     1      -0.597 -10.801  -0.082  0.00  0.00    +0.144 A 
ATOM     28  F   UNL     1      -0.779 -10.127  -1.238  0.00  0.00    -0.204 F 
ENDBRANCH  19  22
ENDBRANCH   4  16
BRANCH   3  29
ATOM     29  N   UNL     1      -0.977  -4.813  -2.460  0.00  0.00    -0.353 N 
ATOM     30  H   UNL     1      -0.966  -4.303  -3.285  0.00  0.00    +0.143 HD
ATOM     31  H   UNL     1      -1.008  -5.782  -2.490  0.00  0.00    +0.143 HD
ENDBRANCH   3  29
TORSDOF 4
