REMARK  Name = ZINC39371399
REMARK  14 active torsions:
REMARK  status: ('A' for Active; 'I' for Inactive)
REMARK    1  A    between atoms: C_1  and  C_2
REMARK    2  A    between atoms: C_6  and  C_9
REMARK    3  A    between atoms: C_7  and  C_8
REMARK    4  A    between atoms: N_11  and  C_12
REMARK    5  A    between atoms: C_17  and  C_27
REMARK    6  A    between atoms: C_21  and  C_23
REMARK    7  A    between atoms: C_23  and  O_25
REMARK    8  A    between atoms: O_25  and  C_26
REMARK    9  A    between atoms: C_27  and  N_28
REMARK   10  A    between atoms: N_28  and  C_29
REMARK   11  A    between atoms: N_28  and  C_30
REMARK   12  A    between atoms: C_30  and  C_31
REMARK   13  A    between atoms: C_32  and  C_38
REMARK   14  A    between atoms: C_35  and  C_37
REMARK                            x       y       z     vdW  Elec       q    Type
REMARK                         _______ _______ _______ _____ _____    ______ ____
ROOT
ATOM      1  C   UNL     1       0.212  -5.606   3.642  0.00  0.00    +0.130 C 
ATOM      2  C   UNL     1      -1.150  -5.486   4.277  0.00  0.00    +0.006 A 
ATOM      3  C   UNL     1      -1.714  -4.339   4.841  0.00  0.00    +0.010 A 
ATOM      4  C   UNL     1      -2.990  -4.399   5.371  0.00  0.00    +0.022 A 
ATOM      5  C   UNL     1      -3.694  -5.586   5.339  0.00  0.00    +0.026 A 
ATOM      6  N   UNL     1      -3.145  -6.664   4.810  0.00  0.00    -0.247 NA
ATOM      7  C   UNL     1      -1.927  -6.644   4.304  0.00  0.00    +0.103 A 
ATOM      8  S   UNL     1      -0.934  -7.931   3.577  0.00  0.00    -0.089 S 
ATOM      9  C   UNL     1       0.691  -7.074   3.593  0.00  0.00    +0.186 C 
ENDROOT
BRANCH   1  12
ATOM     10  C   UNL     1       0.364  -3.766   2.051  0.00  0.00    +0.245 C 
ATOM     11  O   UNL     1       0.608  -3.022   2.980  0.00  0.00    -0.270 OA
ATOM     12  N   UNL     1       0.150  -5.078   2.277  0.00  0.00    -0.303 N 
ATOM     13  H   UNL     1      -0.044  -5.672   1.535  0.00  0.00    +0.150 HD
BRANCH  10  19
ATOM     14  C   UNL     1       0.951   0.022  -1.143  0.00  0.00    +0.044 C 
ATOM     15  C   UNL     1       0.583  -1.413  -0.868  0.00  0.00    -0.047 A 
ATOM     16  C   UNL     1       0.184  -2.235  -1.907  0.00  0.00    +0.003 A 
ATOM     17  C   UNL     1      -0.156  -3.554  -1.663  0.00  0.00    +0.001 A 
ATOM     18  C   UNL     1      -0.099  -4.057  -0.379  0.00  0.00    +0.013 A 
ATOM     19  C   UNL     1       0.302  -3.233   0.673  0.00  0.00    +0.040 A 
ATOM     20  C   UNL     1       0.649  -1.905   0.419  0.00  0.00    -0.035 A 
ATOM     21  C   UNL     1       1.089  -1.010   1.549  0.00  0.00    +0.045 C 
ENDBRANCH  10  19
ENDBRANCH   1  12
BRANCH   9  22
ATOM     22  C   UNL     1       1.471  -7.356   2.335  0.00  0.00    +0.322 C 
ATOM     23  O   UNL     1       2.648  -7.086   2.280  0.00  0.00    -0.250 OA
BRANCH  22  24
ATOM     24  O   UNL     1       0.859  -7.907   1.275  0.00  0.00    -0.467 OA
ATOM     25  C   UNL     1       1.659  -8.146   0.115  0.00  0.00    +0.280 C 
ENDBRANCH  22  24
ENDBRANCH   9  22
BRANCH   5  26
ATOM     26  C   UNL     1      -5.088  -5.652   5.908  0.00  0.00    -0.022 C 
BRANCH  26  27
ATOM     27  N   UNL     1      -6.066  -5.450   4.832  0.00  0.00    +0.384 N 
ATOM     28  C   UNL     1      -5.930  -4.089   4.295  0.00  0.00    -0.095 C 
ATOM     29  H   UNL     1      -5.900  -6.120   4.096  0.00  0.00    -0.081 HD
BRANCH  27  30
ATOM     30  C   UNL     1      -7.424  -5.633   5.363  0.00  0.00    -0.043 C 
BRANCH  30  31
ATOM     31  C   UNL     1      -8.424  -5.502   4.243  0.00  0.00    -0.038 C 
ATOM     32  C   UNL     1      -9.138  -4.428   3.900  0.00  0.00    +0.060 C 
ATOM     33  N   UNL     1      -9.930  -4.697   2.838  0.00  0.00    -0.159 NA
ATOM     34  N   UNL     1      -9.838  -5.850   2.410  0.00  0.00    -0.180 NA
ATOM     35  C   UNL     1      -8.848  -6.559   3.239  0.00  0.00    +0.151 C 
ATOM     36  C   UNL     1      -9.494  -7.751   3.948  0.00  0.00    +0.039 C 
ATOM     37  C   UNL     1      -9.070  -3.095   4.600  0.00  0.00    +0.067 C 
ENDBRANCH  30  31
ENDBRANCH  27  30
ENDBRANCH  26  27
ENDBRANCH   5  26
TORSDOF 8
