REMARK  Name = ZINC04060878
REMARK  11 active torsions:
REMARK  status: ('A' for Active; 'I' for Inactive)
REMARK    1  A    between atoms: C_1  and  C_2
REMARK    2  A    between atoms: C_3  and  C_28
REMARK    3  A    between atoms: C_4  and  C_16
REMARK    4  A    between atoms: C_10  and  C_14
REMARK    5  A    between atoms: C_10  and  C_15
REMARK    6  A    between atoms: C_21  and  N_22
REMARK    7  A    between atoms: C_28  and  O_30
REMARK    8  A    between atoms: O_30  and  C_31
REMARK    9  A    between atoms: C_31  and  C_32
REMARK   10  A    between atoms: C_32  and  O_33
REMARK   11  A    between atoms: O_33  and  C_34
REMARK                            x       y       z     vdW  Elec       q    Type
REMARK                         _______ _______ _______ _____ _____    ______ ____
ROOT
ATOM      1  C   UNL     1      -0.838   8.220   5.343  0.00  0.00    +0.061 C 
ATOM      2  C   UNL     1      -1.315   6.802   5.523  0.00  0.00    +0.031 C 
ATOM      3  C   UNL     1      -1.008   5.872   4.602  0.00  0.00    +0.154 C 
ATOM      4  C   UNL     1      -1.480   4.454   4.740  0.00  0.00    +0.076 C 
ATOM      5  C   UNL     1      -1.889   4.160   6.164  0.00  0.00    +0.025 C 
ATOM      6  C   UNL     1      -2.168   5.165   7.021  0.00  0.00    +0.049 C 
ATOM      7  N   UNL     1      -2.057   6.470   6.622  0.00  0.00    -0.260 NA
ATOM      8  C   UNL     1      -2.606   4.880   8.436  0.00  0.00    +0.062 C 
ATOM      9  C   UNL     1      -1.948   3.580   8.921  0.00  0.00    -0.023 C 
ATOM     10  C   UNL     1      -2.363   2.449   7.974  0.00  0.00    +0.086 C 
ATOM     11  C   UNL     1      -1.972   2.816   6.569  0.00  0.00    +0.162 C 
ATOM     12  O   UNL     1      -1.723   1.936   5.770  0.00  0.00    -0.292 OA
ATOM     13  C   UNL     1      -0.425   3.731   8.905  0.00  0.00    +0.011 C 
ATOM     14  C   UNL     1      -2.419   3.267  10.342  0.00  0.00    +0.011 C 
ENDROOT
BRANCH   4  15
ATOM     15  C   UNL     1      -2.655   4.224   3.825  0.00  0.00    -0.005 A 
ATOM     16  C   UNL     1      -3.648   5.181   3.725  0.00  0.00    +0.056 A 
ATOM     17  C   UNL     1      -4.729   4.973   2.884  0.00  0.00    +0.167 A 
ATOM     18  C   UNL     1      -4.812   3.798   2.140  0.00  0.00    +0.168 A 
ATOM     19  C   UNL     1      -3.813   2.845   2.245  0.00  0.00    +0.082 A 
ATOM     20  C   UNL     1      -2.734   3.061   3.083  0.00  0.00    +0.134 A 
ATOM     21  O   UNL     1      -5.957   3.832   1.398  0.00  0.00    -0.453 OA
ATOM     22  C   UNL     1      -6.776   4.851   2.001  0.00  0.00    +0.466 C 
ATOM     23  O   UNL     1      -5.822   5.742   2.608  0.00  0.00    -0.453 OA
BRANCH  20  24
ATOM     24  N   UNL     1      -1.665   2.043   3.189  0.00  0.00    +0.057 N 
ATOM     25  O   UNL     1      -1.945   0.859   3.138  0.00  0.00    -0.126 OA
ATOM     26  O   UNL     1      -0.506   2.390   3.326  0.00  0.00    -0.126 OA
ENDBRANCH  20  24
ENDBRANCH   4  15
BRANCH   3  27
ATOM     27  C   UNL     1      -0.233   6.239   3.477  0.00  0.00    +0.317 C 
ATOM     28  O   UNL     1       0.248   7.355   3.407  0.00  0.00    -0.250 OA
BRANCH  27  29
ATOM     29  O   UNL     1      -0.027   5.353   2.481  0.00  0.00    -0.462 OA
BRANCH  29  30
ATOM     30  C   UNL     1       0.765   5.791   1.375  0.00  0.00    +0.260 C 
BRANCH  30  31
ATOM     31  C   UNL     1       0.887   4.659   0.354  0.00  0.00    +0.200 C 
BRANCH  31  32
ATOM     32  O   UNL     1      -0.401   4.371  -0.195  0.00  0.00    -0.380 OA
ATOM     33  C   UNL     1      -0.399   3.322  -1.165  0.00  0.00    +0.194 C 
ENDBRANCH  31  32
ENDBRANCH  30  31
ENDBRANCH  29  30
ENDBRANCH  27  29
ENDBRANCH   3  27
TORSDOF 7
