REMARK  Name = ZINC04276223
REMARK  2 active torsions:
REMARK  status: ('A' for Active; 'I' for Inactive)
REMARK    1  A    between atoms: C_5  and  C_6
REMARK    2  A    between atoms: C_12  and  C_14
REMARK                            x       y       z     vdW  Elec       q    Type
REMARK                         _______ _______ _______ _____ _____    ______ ____
ROOT
ATOM      1  C   UNL     1      -1.126  -0.946   0.008  0.00  0.00    +0.257 A 
ATOM      2  N   UNL     1      -2.402  -0.633   0.017  0.00  0.00    -0.105 NA
ATOM      3  N   UNL     1      -3.106  -1.710   0.020  0.00  0.00    -0.092 NA
ATOM      4  C   UNL     1      -2.311  -2.751   0.014  0.00  0.00    +0.314 A 
ATOM      5  O   UNL     1      -1.044  -2.295   0.000  0.00  0.00    -0.404 OA
ATOM      6  N   UNL     1      -2.704  -4.082   0.015  0.00  0.00    -0.238 N 
ATOM      7  C   UNL     1      -4.014  -4.398   0.024  0.00  0.00    +0.224 C 
ATOM      8  O   UNL     1      -4.850  -3.519   0.030  0.00  0.00    -0.275 OA
ATOM      9  H   UNL     1      -2.035  -4.785   0.010  0.00  0.00    +0.159 HD
ENDROOT
BRANCH   1  14
ATOM     10  C   UNL     1      -0.017   1.378   0.010  0.00  0.00    +0.022 A 
ATOM     11  C   UNL     1       1.185   2.049   0.002  0.00  0.00    +0.028 A 
ATOM     12  C   UNL     1       2.343   1.338  -0.013  0.00  0.00    +0.079 A 
ATOM     13  S   UNL     1       1.754  -0.347  -0.017  0.00  0.00    -0.072 S 
ATOM     14  C   UNL     1       0.002  -0.004   0.002  0.00  0.00    +0.077 A 
ATOM     15 CL   UNL     1       3.979   1.920  -0.026  0.00  0.00    -0.076 Cl
ENDBRANCH   1  14
BRANCH   7  16
ATOM     16  C   UNL     1      -4.440  -5.843   0.025  0.00  0.00    +0.075 C 
ATOM     17  C   UNL     1      -3.900  -6.536  -1.228  0.00  0.00    +0.013 C 
ATOM     18  C   UNL     1      -4.333  -8.003  -1.226  0.00  0.00    +0.001 C 
ATOM     19  C   UNL     1      -5.861  -8.085  -1.216  0.00  0.00    +0.000 C 
ATOM     20  C   UNL     1      -6.400  -7.392   0.037  0.00  0.00    +0.001 C 
ATOM     21  C   UNL     1      -5.968  -5.925   0.035  0.00  0.00    +0.013 C 
ENDBRANCH   7  16
TORSDOF 2
