REMARK  Name = ZINC16461230
REMARK  13 active torsions:
REMARK  status: ('A' for Active; 'I' for Inactive)
REMARK    1  A    between atoms: C_1  and  C_2
REMARK    2  A    between atoms: C_2  and  C_3
REMARK    3  A    between atoms: C_3  and  C_4
REMARK    4  A    between atoms: C_4  and  C_5
REMARK    5  A    between atoms: C_5  and  C_6
REMARK    6  A    between atoms: C_6  and  N_7
REMARK    7  A    between atoms: C_8  and  C_10
REMARK    8  A    between atoms: C_13  and  C_15
REMARK    9  A    between atoms: C_15  and  S_16
REMARK   10  A    between atoms: S_16  and  C_17
REMARK   11  A    between atoms: C_20  and  C_29
REMARK   12  A    between atoms: N_21  and  C_22
REMARK   13  A    between atoms: C_25  and  C_28
REMARK                            x       y       z     vdW  Elec       q    Type
REMARK                         _______ _______ _______ _____ _____    ______ ____
ROOT
ATOM      1  C   UNL     1       1.730  -4.444  -1.494  0.00  0.00    +0.197 A 
ATOM      2  N   UNL     1       1.983  -4.968  -0.315  0.00  0.00    -0.122 NA
ATOM      3  N   UNL     1       2.180  -6.232  -0.427  0.00  0.00    -0.128 NA
ATOM      4  C   UNL     1       2.066  -6.597  -1.683  0.00  0.00    +0.171 A 
ATOM      5  N   UNL     1       1.769  -5.463  -2.406  0.00  0.00    -0.270 N 
ENDROOT
BRANCH   5   6
ATOM      6  C   UNL     1       1.553  -5.371  -3.788  0.00  0.00    +0.051 A 
ATOM      7  C   UNL     1       0.444  -5.980  -4.361  0.00  0.00    +0.026 A 
ATOM      8  C   UNL     1       0.231  -5.883  -5.722  0.00  0.00    +0.005 A 
ATOM      9  C   UNL     1       1.126  -5.191  -6.516  0.00  0.00    -0.050 A 
ATOM     10  C   UNL     1       2.235  -4.588  -5.950  0.00  0.00    +0.005 A 
ATOM     11  C   UNL     1       2.450  -4.677  -4.588  0.00  0.00    +0.026 A 
ATOM     12  C   UNL     1       0.894  -5.093  -8.002  0.00  0.00    +0.044 C 
ENDBRANCH   5   6
BRANCH   4  13
ATOM     13  C   UNL     1       2.222  -7.965  -2.219  0.00  0.00    +0.038 A 
ATOM     14  C   UNL     1       3.013  -8.191  -3.346  0.00  0.00    +0.013 A 
ATOM     15  C   UNL     1       3.154  -9.471  -3.841  0.00  0.00    +0.001 A 
ATOM     16  C   UNL     1       2.514 -10.530  -3.223  0.00  0.00    +0.001 A 
ATOM     17  C   UNL     1       1.728 -10.315  -2.106  0.00  0.00    +0.021 A 
ATOM     18  C   UNL     1       1.582  -9.039  -1.596  0.00  0.00    +0.052 A 
ATOM     19 CL   UNL     1       0.601  -8.771  -0.189  0.00  0.00    -0.083 Cl
ENDBRANCH   4  13
BRANCH   1  20
ATOM     20  S   UNL     1       1.396  -2.748  -1.834  0.00  0.00    -0.079 S 
BRANCH  20  21
ATOM     21  C   UNL     1       1.514  -2.063  -0.163  0.00  0.00    +0.140 C 
BRANCH  21  25
ATOM     22  C   UNL     1       0.091   1.389  -0.161  0.00  0.00    +0.133 A 
ATOM     23  C   UNL     1       1.283   2.040  -0.352  0.00  0.00    +0.080 A 
ATOM     24  S   UNL     1       2.396   0.711  -0.426  0.00  0.00    -0.079 S 
ATOM     25  C   UNL     1       1.257  -0.578  -0.209  0.00  0.00    +0.089 A 
ATOM     26  N   UNL     1       0.120   0.057  -0.094  0.00  0.00    -0.239 NA
BRANCH  22  28
ATOM     27  N   UNL     1      -2.333   1.466   0.140  0.00  0.00    -0.310 N 
ATOM     28  C   UNL     1      -1.175   2.132  -0.041  0.00  0.00    +0.263 C 
ATOM     29  O   UNL     1      -1.175   3.346  -0.106  0.00  0.00    -0.269 OA
ATOM     30  H   UNL     1      -2.332   0.498   0.192  0.00  0.00    +0.149 HD
BRANCH  27  31
ATOM     31  C   UNL     1      -3.592   2.206   0.260  0.00  0.00    +0.104 C 
BRANCH  31  32
ATOM     32  C   UNL     1      -4.745   1.220   0.458  0.00  0.00    +0.019 C 
BRANCH  32  33
ATOM     33  C   UNL     1      -6.060   1.992   0.583  0.00  0.00    +0.002 C 
BRANCH  33  34
ATOM     34  C   UNL     1      -7.213   1.007   0.781  0.00  0.00    -0.000 C 
BRANCH  34  36
ATOM     35  C   UNL     1      -9.682   0.794   1.104  0.00  0.00    +0.004 C 
ATOM     36  C   UNL     1      -8.528   1.779   0.905  0.00  0.00    -0.003 C 
ENDBRANCH  34  36
ENDBRANCH  33  34
ENDBRANCH  32  33
ENDBRANCH  31  32
ENDBRANCH  27  31
ENDBRANCH  22  28
ENDBRANCH  21  25
ENDBRANCH  20  21
ENDBRANCH   1  20
TORSDOF 11
