REMARK  Name = ZINC02236821
REMARK  4 active torsions:
REMARK  status: ('A' for Active; 'I' for Inactive)
REMARK    1  A    between atoms: C_4  and  N_7
REMARK    2  A    between atoms: N_7  and  C_8
REMARK    3  A    between atoms: C_14  and  C_16
REMARK    4  A    between atoms: C_17  and  N_34
REMARK                            x       y       z     vdW  Elec       q    Type
REMARK                         _______ _______ _______ _____ _____    ______ ____
ROOT
ATOM      1  C   UNL     1      -1.448   7.250   0.938  0.00  0.00    +0.098 A 
ATOM      2  C   UNL     1      -1.190   5.916   1.173  0.00  0.00    +0.054 A 
ATOM      3  C   UNL     1      -1.698   4.938   0.224  0.00  0.00    +0.031 A 
ATOM      4  C   UNL     1      -1.557   3.521   0.258  0.00  0.00    -0.030 A 
ATOM      5  C   UNL     1      -2.113   2.774  -0.726  0.00  0.00    -0.005 A 
ATOM      6  C   UNL     1      -2.813   3.402  -1.769  0.00  0.00    +0.103 A 
ATOM      7  C   UNL     1      -2.419   5.476  -0.863  0.00  0.00    +0.089 A 
ATOM      8  S   UNL     1      -2.388   7.227  -0.576  0.00  0.00    -0.064 S 
ATOM      9  N   UNL     1      -3.376   2.632  -2.776  0.00  0.00    -0.312 N 
ATOM     10  C   UNL     1      -2.705   2.873  -4.061  0.00  0.00    +0.134 C 
ATOM     11  C   UNL     1      -3.317   1.962  -5.129  0.00  0.00    +0.178 C 
ATOM     12  O   UNL     1      -4.726   2.200  -5.201  0.00  0.00    -0.377 OA
ATOM     13  C   UNL     1      -5.411   1.974  -3.966  0.00  0.00    +0.178 C 
ATOM     14  C   UNL     1      -4.820   2.885  -2.886  0.00  0.00    +0.134 C 
ATOM     15  C   UNL     1      -2.015   1.271  -0.756  0.00  0.00    +0.039 C 
ATOM     16  C   UNL     1      -0.891   0.787   0.158  0.00  0.00    +0.005 C 
ATOM     17  C   UNL     1      -1.074   1.436   1.536  0.00  0.00    +0.005 C 
ATOM     18  C   UNL     1      -0.782   2.930   1.405  0.00  0.00    +0.036 C 
ATOM     19  N   UNL     1      -2.978   4.749  -1.860  0.00  0.00    -0.337 N 
ATOM     20  H   UNL     1      -3.493   5.186  -2.634  0.00  0.00    +0.168 HD
ENDROOT
BRANCH   1  22
ATOM     21  N   UNL     1      -1.291   9.616   1.259  0.00  0.00    -0.236 N 
ATOM     22  C   UNL     1      -1.060   8.368   1.713  0.00  0.00    +0.264 C 
ATOM     23  O   UNL     1      -0.518   8.203   2.791  0.00  0.00    -0.269 OA
BRANCH  21  27
ATOM     24  C   UNL     1      -2.905  10.185  -2.540  0.00  0.00    +0.000 A 
ATOM     25  C   UNL     1      -3.648  10.508  -1.419  0.00  0.00    +0.002 A 
ATOM     26  C   UNL     1      -3.116  10.321  -0.158  0.00  0.00    +0.024 A 
ATOM     27  C   UNL     1      -1.833   9.807  -0.017  0.00  0.00    +0.042 A 
ATOM     28  C   UNL     1      -1.088   9.488  -1.145  0.00  0.00    +0.024 A 
ATOM     29  C   UNL     1      -1.628   9.672  -2.402  0.00  0.00    +0.002 A 
ENDBRANCH  21  27
BRANCH  21  30
ATOM     30  C   UNL     1      -0.988  10.720   2.062  0.00  0.00    +0.042 A 
ATOM     31  C   UNL     1      -1.062  12.004   1.538  0.00  0.00    +0.024 A 
ATOM     32  C   UNL     1      -0.767  13.093   2.335  0.00  0.00    +0.002 A 
ATOM     33  C   UNL     1      -0.388  12.905   3.652  0.00  0.00    +0.000 A 
ATOM     34  C   UNL     1      -0.308  11.627   4.176  0.00  0.00    +0.002 A 
ATOM     35  C   UNL     1      -0.607  10.535   3.385  0.00  0.00    +0.024 A 
ENDBRANCH  21  30
ENDBRANCH   1  22
BRANCH   2  36
ATOM     36  N   UNL     1      -0.463   5.516   2.286  0.00  0.00    -0.356 N 
ATOM     37  H   UNL     1       0.101   4.729   2.240  0.00  0.00    +0.142 HD
ATOM     38  H   UNL     1      -0.520   6.025   3.110  0.00  0.00    +0.142 HD
ENDBRANCH   2  36
TORSDOF 4
