REMARK  Name = ZINC09817660
REMARK  7 active torsions:
REMARK  status: ('A' for Active; 'I' for Inactive)
REMARK    1  A    between atoms: N_9  and  S_11
REMARK    2  A    between atoms: S_11  and  C_14
REMARK    3  A    between atoms: C_18  and  C_20
REMARK    4  A    between atoms: N_22  and  C_23
REMARK    5  A    between atoms: C_23  and  C_24
REMARK    6  A    between atoms: C_24  and  C_26
REMARK    7  A    between atoms: C_24  and  N_63
REMARK                            x       y       z     vdW  Elec       q    Type
REMARK                         _______ _______ _______ _____ _____    ______ ____
ROOT
ATOM      1  C   UNL     1       5.128  -7.158  -3.841  0.00  0.00    +0.106 A 
ATOM      2  C   UNL     1       5.297  -7.838  -2.647  0.00  0.00    +0.028 A 
ATOM      3  C   UNL     1       4.939  -7.245  -1.450  0.00  0.00    +0.003 A 
ATOM      4  C   UNL     1       4.415  -5.969  -1.438  0.00  0.00    +0.013 A 
ATOM      5  C   UNL     1       4.236  -5.280  -2.638  0.00  0.00    +0.039 A 
ATOM      6  C   UNL     1       4.600  -5.884  -3.843  0.00  0.00    +0.041 A 
ENDROOT
BRANCH   5   7
ATOM      7  C   UNL     1       3.670  -3.914  -2.634  0.00  0.00    +0.244 C 
ATOM      8  O   UNL     1       3.521  -3.314  -3.680  0.00  0.00    -0.270 OA
ATOM      9  N   UNL     1       3.320  -3.334  -1.469  0.00  0.00    -0.313 N 
ATOM     10  H   UNL     1       3.440  -3.812  -0.633  0.00  0.00    +0.149 HD
BRANCH   9  11
ATOM     11  C   UNL     1       2.759  -1.980  -1.464  0.00  0.00    +0.094 C 
BRANCH  11  12
ATOM     12  C   UNL     1       2.571  -1.511  -0.020  0.00  0.00    -0.013 C 
BRANCH  12  17
ATOM     13  C   UNL     1       0.585  -0.268  -0.682  0.00  0.00    -0.078 C 
ATOM     14  C   UNL     1      -0.154   0.979  -0.133  0.00  0.00    -0.020 C 
ATOM     15  C   UNL     1       0.319   1.040   1.338  0.00  0.00    -0.020 C 
ATOM     16  C   UNL     1       1.641   0.252   1.369  0.00  0.00    -0.078 C 
ATOM     17  N   UNL     1       1.889  -0.182  -0.007  0.00  0.00    +0.386 N 
ATOM     18  H   UNL     1       2.483   0.506  -0.485  0.00  0.00    -0.081 HD
ENDBRANCH  12  17
BRANCH  12  19
ATOM     19  C   UNL     1       3.915  -1.399   0.651  0.00  0.00    -0.022 A 
ATOM     20  C   UNL     1       4.522  -2.268   1.497  0.00  0.00    +0.009 A 
ATOM     21  C   UNL     1       5.772  -1.954   1.997  0.00  0.00    +0.008 A 
ATOM     22  C   UNL     1       6.354  -0.787   1.627  0.00  0.00    +0.045 A 
ATOM     23  S   UNL     1       5.122  -0.089   0.539  0.00  0.00    -0.103 S 
ENDBRANCH  12  19
ENDBRANCH  11  12
ENDBRANCH   9  11
ENDBRANCH   5   7
BRANCH   1  24
ATOM     24  S   UNL     1       5.588  -7.922  -5.360  0.00  0.00    +0.061 S 
ATOM     25  O   UNL     1       5.550  -9.325  -5.137  0.00  0.00    -0.153 OA
ATOM     26  O   UNL     1       4.824  -7.292  -6.379  0.00  0.00    -0.153 OA
BRANCH  24  35
ATOM     27  C   UNL     1      11.389  -6.019  -3.422  0.00  0.00    +0.000 A 
ATOM     28  C   UNL     1      11.369  -7.392  -3.263  0.00  0.00    +0.000 A 
ATOM     29  C   UNL     1      10.350  -8.131  -3.828  0.00  0.00    +0.005 A 
ATOM     30  C   UNL     1       9.345  -7.506  -4.553  0.00  0.00    -0.028 A 
ATOM     31  C   UNL     1       9.359  -6.138  -4.706  0.00  0.00    -0.042 A 
ATOM     32  C   UNL     1      10.389  -5.397  -4.140  0.00  0.00    +0.004 A 
ATOM     33  C   UNL     1       8.294  -5.389  -5.464  0.00  0.00    +0.052 C 
ATOM     34  C   UNL     1       7.537  -6.327  -6.410  0.00  0.00    +0.114 C 
ATOM     35  N   UNL     1       7.171  -7.531  -5.645  0.00  0.00    -0.172 NA
ATOM     36  C   UNL     1       8.266  -8.374  -5.152  0.00  0.00    +0.144 C 
ENDBRANCH  24  35
ENDBRANCH   1  24
TORSDOF 7
