REMARK  Name = ZINC00075191
REMARK  6 active torsions:
REMARK  status: ('A' for Active; 'I' for Inactive)
REMARK    1  A    between atoms: C_1  and  C_2
REMARK    2  A    between atoms: C_4  and  C_20
REMARK    3  A    between atoms: N_5  and  C_7
REMARK    4  A    between atoms: C_7  and  C_9
REMARK    5  A    between atoms: C_7  and  C_13
REMARK    6  A    between atoms: C_9  and  N_10
REMARK                            x       y       z     vdW  Elec       q    Type
REMARK                         _______ _______ _______ _____ _____    ______ ____
ROOT
ATOM      1  C   UNL     1       0.055  -3.295   1.485  0.00  0.00    +0.163 C 
ENDROOT
BRANCH   1   6
ATOM      2  C   UNL     1      -0.018   1.503   0.010  0.00  0.00    +0.067 C 
ATOM      3  C   UNL     1       0.002  -0.004   0.002  0.00  0.00    +0.060 A 
ATOM      4  C   UNL     1       0.008  -0.818  -1.135  0.00  0.00    +0.047 A 
ATOM      5  C   UNL     1       0.028  -2.107  -0.725  0.00  0.00    +0.037 A 
ATOM      6  N   UNL     1       0.034  -2.109   0.625  0.00  0.00    -0.259 N 
ATOM      7  N   UNL     1       0.023  -0.777   1.058  0.00  0.00    -0.176 NA
ATOM      8  C   UNL     1       0.040  -3.323  -1.615  0.00  0.00    +0.065 C 
ENDBRANCH   1   6
BRANCH   1   9
ATOM      9  C   UNL     1      -1.172  -3.301   2.361  0.00  0.00    -0.021 A 
ATOM     10  C   UNL     1      -1.403  -2.254   3.233  0.00  0.00    +0.007 A 
ATOM     11  C   UNL     1      -2.528  -2.260   4.036  0.00  0.00    +0.020 A 
ATOM     12  C   UNL     1      -3.422  -3.313   3.967  0.00  0.00    +0.041 A 
ATOM     13  C   UNL     1      -3.189  -4.361   3.094  0.00  0.00    +0.020 A 
ATOM     14  C   UNL     1      -2.067  -4.352   2.287  0.00  0.00    +0.007 A 
ATOM     15 CL   UNL     1      -4.834  -3.321   4.977  0.00  0.00    -0.084 Cl
ENDBRANCH   1   9
BRANCH   1  16
ATOM     16  C   UNL     1       1.308  -3.267   2.362  0.00  0.00    +0.242 C 
BRANCH  16  17
ATOM     17  N   UNL     1       1.391  -4.508   3.135  0.00  0.00    +0.025 N 
ATOM     18  O   UNL     1       2.442  -5.098   3.221  0.00  0.00    -0.132 OA
ATOM     19  O   UNL     1       0.407  -4.943   3.688  0.00  0.00    -0.132 OA
ENDBRANCH  16  17
ENDBRANCH   1  16
TORSDOF 4
