REMARK  Name = ZINC43084999
REMARK  6 active torsions:
REMARK  status: ('A' for Active; 'I' for Inactive)
REMARK    1  A    between atoms: C_1  and  C_2
REMARK    2  A    between atoms: N_8  and  C_9
REMARK    3  A    between atoms: C_9  and  C_11
REMARK    4  A    between atoms: C_9  and  C_12
REMARK    5  A    between atoms: C_12  and  N_13
REMARK    6  A    between atoms: C_14  and  C_16
REMARK                            x       y       z     vdW  Elec       q    Type
REMARK                         _______ _______ _______ _____ _____    ______ ____
ROOT
ATOM      1  N   UNL     1      -0.774   1.937   0.759  0.00  0.00    -0.313 N 
ATOM      2  C   UNL     1      -1.054   3.210   0.417  0.00  0.00    +0.244 C 
ATOM      3  O   UNL     1      -0.605   4.129   1.075  0.00  0.00    -0.270 OA
ATOM      4  H   UNL     1      -1.072   1.206   0.195  0.00  0.00    +0.149 HD
ENDROOT
BRANCH   2   5
ATOM      5  C   UNL     1      -1.905   3.489  -0.756  0.00  0.00    +0.039 A 
ATOM      6  C   UNL     1      -2.518   2.438  -1.442  0.00  0.00    +0.017 A 
ATOM      7  C   UNL     1      -3.313   2.697  -2.538  0.00  0.00    +0.048 A 
ATOM      8  C   UNL     1      -3.507   4.003  -2.962  0.00  0.00    +0.142 A 
ATOM      9  C   UNL     1      -2.897   5.059  -2.280  0.00  0.00    +0.076 A 
ATOM     10  C   UNL     1      -2.104   4.807  -1.179  0.00  0.00    +0.040 A 
ATOM     11  N   UNL     1      -3.104   6.373  -2.726  0.00  0.00    -0.280 N 
ATOM     12  C   UNL     1      -4.118   6.620  -3.584  0.00  0.00    +0.255 C 
ATOM     13  O   UNL     1      -4.299   7.743  -4.006  0.00  0.00    -0.272 OA
ATOM     14  C   UNL     1      -5.024   5.495  -4.015  0.00  0.00    +0.325 C 
ATOM     15  O   UNL     1      -4.289   4.269  -4.040  0.00  0.00    -0.481 OA
ATOM     16  H   UNL     1      -2.529   7.093  -2.422  0.00  0.00    +0.155 HD
ENDBRANCH   2   5
BRANCH   1  17
ATOM     17  C   UNL     1      -0.021   1.656   1.984  0.00  0.00    +0.089 C 
BRANCH  17  18
ATOM     18  C   UNL     1       0.057   0.143   2.199  0.00  0.00    -0.054 C 
ATOM     19  C   UNL     1       0.922  -0.154   3.426  0.00  0.00    -0.012 C 
BRANCH  18  26
ATOM     20  C   UNL     1      -0.796  -2.419   1.429  0.00  0.00    -0.013 C 
ATOM     21  C   UNL     1       0.639  -1.948   1.182  0.00  0.00    -0.071 C 
ATOM     22  C   UNL     1       1.183  -2.615  -0.083  0.00  0.00    -0.016 C 
ATOM     23  C   UNL     1       2.619  -2.142  -0.325  0.00  0.00    -0.003 C 
ATOM     24  C   UNL     1       2.632  -0.613  -0.423  0.00  0.00    -0.019 C 
ATOM     25  C   UNL     1       2.034  -0.021   0.854  0.00  0.00    -0.078 C 
ATOM     26  N   UNL     1       0.652  -0.490   1.015  0.00  0.00    +0.384 N 
ATOM     27  H   UNL     1       0.116  -0.242   0.197  0.00  0.00    -0.081 HD
ENDBRANCH  18  26
ENDBRANCH  17  18
ENDBRANCH   1  17
TORSDOF 4
