REMARK  Name = ZINC53633297
REMARK  11 active torsions:
REMARK  status: ('A' for Active; 'I' for Inactive)
REMARK    1  A    between atoms: C_1  and  C_2
REMARK    2  A    between atoms: C_2  and  C_3
REMARK    3  A    between atoms: C_3  and  N_29
REMARK    4  A    between atoms: C_5  and  C_20
REMARK    5  A    between atoms: N_7  and  C_10
REMARK    6  A    between atoms: C_20  and  S_21
REMARK    7  A    between atoms: S_21  and  C_22
REMARK    8  A    between atoms: C_25  and  C_28
REMARK    9  A    between atoms: N_29  and  C_30
REMARK   10  A    between atoms: C_30  and  C_31
REMARK   11  A    between atoms: C_31  and  C_32
REMARK                            x       y       z     vdW  Elec       q    Type
REMARK                         _______ _______ _______ _____ _____    ______ ____
ROOT
ATOM      1  C   UNL     1       0.732  -0.489   1.227  0.00  0.00    +0.018 C 
ATOM      2  C   UNL     1       0.034  -0.743   2.395  0.00  0.00    +0.079 C 
ATOM      3  C   UNL     1      -1.421  -0.686   2.599  0.00  0.00    +0.083 C 
ATOM      4  N   UNL     1      -1.656  -0.995   3.837  0.00  0.00    -0.178 NA
ATOM      5  N   UNL     1      -0.473  -1.266   4.525  0.00  0.00    -0.158 N 
ATOM      6  C   UNL     1       0.584  -1.135   3.698  0.00  0.00    +0.272 C 
ATOM      7  O   UNL     1       1.759  -1.304   3.978  0.00  0.00    -0.268 OA
ENDROOT
BRANCH   5   8
ATOM      8  C   UNL     1      -0.392  -1.645   5.938  0.00  0.00    +0.249 C 
ATOM      9  N   UNL     1      -1.031  -0.635   6.793  0.00  0.00    -0.315 N 
ATOM     10  C   UNL     1      -2.131  -1.035   7.551  0.00  0.00    +0.043 A 
ATOM     11  C   UNL     1      -2.866  -0.212   8.422  0.00  0.00    +0.024 A 
ATOM     12  C   UNL     1      -3.940  -0.703   9.128  0.00  0.00    +0.002 A 
ATOM     13  C   UNL     1      -4.333  -2.023   9.005  0.00  0.00    +0.001 A 
ATOM     14  C   UNL     1      -3.627  -2.856   8.153  0.00  0.00    +0.016 A 
ATOM     15  C   UNL     1      -2.552  -2.364   7.447  0.00  0.00    +0.032 A 
ATOM     16  S   UNL     1      -1.432  -3.118   6.288  0.00  0.00    -0.080 S 
ATOM     17  H   UNL     1      -0.699   0.276   6.830  0.00  0.00    +0.149 HD
ENDBRANCH   5   8
BRANCH   1  19
ATOM     18  C   UNL     1      -0.060   1.536   0.033  0.00  0.00    +0.010 C 
ATOM     19  C   UNL     1       0.002   0.007   0.005  0.00  0.00    +0.048 C 
ENDBRANCH   1  19
BRANCH   1  20
ATOM     20  N   UNL     1       2.066  -0.685   1.182  0.00  0.00    -0.346 N 
ATOM     21  H   UNL     1       2.535  -1.004   1.968  0.00  0.00    +0.146 HD
BRANCH  20  22
ATOM     22  C   UNL     1       2.804  -0.415  -0.054  0.00  0.00    +0.107 C 
BRANCH  22  23
ATOM     23  C   UNL     1       4.289  -0.717   0.163  0.00  0.00    +0.073 C 
BRANCH  23  24
ATOM     24  C   UNL     1       5.049  -0.440  -1.108  0.00  0.00    +0.035 A 
ATOM     25  H   UNL     1       6.592   1.236  -3.239  0.00  0.00    +0.166 HD
ATOM     26  C   UNL     1       5.528   0.756  -1.499  0.00  0.00    +0.105 A 
ATOM     27  N   UNL     1       6.148   0.560  -2.704  0.00  0.00    -0.352 N 
ATOM     28  C   UNL     1       6.025  -0.750  -3.007  0.00  0.00    +0.171 A 
ATOM     29  N   UNL     1       5.371  -1.343  -2.046  0.00  0.00    -0.350 N 
ATOM     30  H   UNL     1       5.151  -2.287  -2.016  0.00  0.00    +0.166 HD
ENDBRANCH  23  24
ENDBRANCH  22  23
ENDBRANCH  20  22
ENDBRANCH   1  20
BRANCH   3  31
ATOM     31  C   UNL     1      -2.453  -0.333   1.559  0.00  0.00    +0.132 C 
BRANCH  31  32
ATOM     32  S   UNL     1      -4.090  -0.249   2.335  0.00  0.00    -0.119 S 
BRANCH  32  33
ATOM     33  C   UNL     1      -5.171   0.168   1.008  0.00  0.00    +0.008 A 
ATOM     34  C   UNL     1      -4.665   0.340  -0.275  0.00  0.00    +0.015 A 
ATOM     35  C   UNL     1      -5.514   0.666  -1.313  0.00  0.00    +0.004 A 
ATOM     36  C   UNL     1      -6.868   0.822  -1.078  0.00  0.00    -0.050 A 
ATOM     37  C   UNL     1      -7.376   0.652   0.197  0.00  0.00    +0.004 A 
ATOM     38  C   UNL     1      -6.533   0.319   1.239  0.00  0.00    +0.015 A 
ATOM     39  C   UNL     1      -7.793   1.178  -2.214  0.00  0.00    +0.044 C 
ENDBRANCH  32  33
ENDBRANCH  31  32
ENDBRANCH   3  31
TORSDOF 9
