REMARK  Name = ZINC06446199
REMARK  8 active torsions:
REMARK  status: ('A' for Active; 'I' for Inactive)
REMARK    1  A    between atoms: C_4  and  C_7
REMARK    2  A    between atoms: C_7  and  N_8
REMARK    3  A    between atoms: N_8  and  C_9
REMARK    4  A    between atoms: C_9  and  C_11
REMARK    5  A    between atoms: C_9  and  C_17
REMARK    6  A    between atoms: N_19  and  C_20
REMARK    7  A    between atoms: C_26  and  C_28
REMARK    8  A    between atoms: C_31  and  C_34
REMARK                            x       y       z     vdW  Elec       q    Type
REMARK                         _______ _______ _______ _____ _____    ______ ____
ROOT
ATOM      1  N   UNL     1       5.084  -0.970   1.497  0.00  0.00    -0.276 N 
ATOM      2  C   UNL     1       5.967  -0.392   2.334  0.00  0.00    +0.264 C 
ATOM      3  O   UNL     1       6.905   0.242   1.887  0.00  0.00    -0.268 OA
ENDROOT
BRANCH   2   4
ATOM      4  C   UNL     1       5.798  -0.525   3.784  0.00  0.00    +0.102 A 
ATOM      5  C   UNL     1       6.471   0.198   4.750  0.00  0.00    +0.033 A 
ATOM      6  C   UNL     1       6.015  -0.239   5.992  0.00  0.00    +0.028 A 
ATOM      7  C   UNL     1       5.072  -1.220   5.770  0.00  0.00    +0.047 A 
ATOM      8  N   UNL     1       4.937  -1.389   4.423  0.00  0.00    -0.351 N 
ATOM      9  H   UNL     1       4.337  -2.014   3.988  0.00  0.00    +0.166 HD
BRANCH   7  10
ATOM     10  C   UNL     1       4.330  -1.958   6.813  0.00  0.00    -0.002 A 
ATOM     11  C   UNL     1       3.496  -3.021   6.461  0.00  0.00    +0.010 A 
ATOM     12  C   UNL     1       2.806  -3.706   7.439  0.00  0.00    +0.001 A 
ATOM     13  C   UNL     1       2.939  -3.342   8.768  0.00  0.00    +0.000 A 
ATOM     14  C   UNL     1       3.764  -2.290   9.124  0.00  0.00    +0.001 A 
ATOM     15  C   UNL     1       4.464  -1.600   8.155  0.00  0.00    +0.010 A 
ENDBRANCH   7  10
ENDBRANCH   2   4
BRANCH   1  16
ATOM     16  C   UNL     1       5.169  -0.722   0.056  0.00  0.00    +0.144 C 
BRANCH  16  20
ATOM     17  C   UNL     1       8.151  -3.258  -1.654  0.00  0.00    +0.000 A 
ATOM     18  C   UNL     1       6.880  -3.747  -1.418  0.00  0.00    +0.000 A 
ATOM     19  C   UNL     1       5.915  -2.927  -0.865  0.00  0.00    +0.005 A 
ATOM     20  C   UNL     1       6.221  -1.617  -0.547  0.00  0.00    -0.030 A 
ATOM     21  C   UNL     1       7.493  -1.128  -0.782  0.00  0.00    +0.005 A 
ATOM     22  C   UNL     1       8.457  -1.948  -1.337  0.00  0.00    +0.000 A 
ENDBRANCH  16  20
ENDBRANCH   1  16
BRANCH   1  23
ATOM     23  C   UNL     1       4.038  -1.848   2.028  0.00  0.00    +0.193 C 
BRANCH  23  24
ATOM     24  C   UNL     1       3.414  -2.627   0.899  0.00  0.00    -0.015 A 
ATOM     25  C   UNL     1       2.733  -1.978  -0.119  0.00  0.00    +0.025 A 
ATOM     26  C   UNL     1       2.174  -2.726  -1.139  0.00  0.00    +0.111 A 
ATOM     27  N   UNL     1       2.283  -4.040  -1.149  0.00  0.00    -0.263 NA
ATOM     28  C   UNL     1       2.924  -4.690  -0.198  0.00  0.00    +0.111 A 
ATOM     29  C   UNL     1       3.513  -4.009   0.850  0.00  0.00    +0.025 A 
ENDBRANCH  23  24
BRANCH  23  30
ATOM     30  C   UNL     1       2.981  -1.016   2.708  0.00  0.00    +0.238 C 
ATOM     31  O   UNL     1       2.983   0.190   2.580  0.00  0.00    -0.273 OA
ATOM     32  N   UNL     1       2.034  -1.612   3.459  0.00  0.00    -0.311 N 
ATOM     33  H   UNL     1       1.977  -2.580   3.490  0.00  0.00    +0.149 HD
BRANCH  32  34
ATOM     34  C   UNL     1       1.089  -0.799   4.229  0.00  0.00    +0.073 C 
ATOM     35  C   UNL     1       1.749  -0.350   5.534  0.00  0.00    +0.022 C 
ATOM     36  C   UNL     1       0.763   0.500   6.338  0.00  0.00    +0.002 C 
ATOM     37  C   UNL     1      -0.484  -0.328   6.655  0.00  0.00    +0.000 C 
ATOM     38  C   UNL     1      -1.143  -0.777   5.349  0.00  0.00    +0.002 C 
ATOM     39  C   UNL     1      -0.157  -1.627   4.546  0.00  0.00    +0.022 C 
ENDBRANCH  32  34
ENDBRANCH  23  30
ENDBRANCH   1  23
TORSDOF 8
