REMARK  Name = ZINC40547654
REMARK  7 active torsions:
REMARK  status: ('A' for Active; 'I' for Inactive)
REMARK    1  A    between atoms: C_4  and  C_7
REMARK    2  A    between atoms: C_7  and  O_8
REMARK    3  A    between atoms: O_8  and  C_9
REMARK    4  A    between atoms: C_12  and  C_15
REMARK    5  A    between atoms: C_18  and  C_34
REMARK    6  A    between atoms: N_25  and  C_26
REMARK    7  A    between atoms: C_39  and  O_40
REMARK                            x       y       z     vdW  Elec       q    Type
REMARK                         _______ _______ _______ _____ _____    ______ ____
ROOT
ATOM      1  C   UNL     1       8.731  -3.328   2.200  0.00  0.00    +0.142 C 
ATOM      2  C   UNL     1      10.010  -2.544   2.319  0.00  0.00    +0.035 A 
ATOM      3  C   UNL     1      10.878  -1.609   1.746  0.00  0.00    +0.102 A 
ATOM      4  N   UNL     1      11.887  -1.446   2.579  0.00  0.00    -0.173 NA
ATOM      5  N   UNL     1      11.742  -2.185   3.621  0.00  0.00    -0.272 N 
ATOM      6  H   UNL     1      12.363  -2.226   4.365  0.00  0.00    +0.189 HD
ATOM      7  C   UNL     1      10.583  -2.902   3.524  0.00  0.00    +0.126 A 
ATOM      8  C   UNL     1       9.716  -3.887   4.180  0.00  0.00    +0.266 C 
ATOM      9  O   UNL     1       9.941  -4.401   5.259  0.00  0.00    -0.268 OA
ATOM     10  N   UNL     1       8.636  -4.143   3.417  0.00  0.00    -0.280 N 
ENDROOT
BRANCH  10  11
ATOM     11  C   UNL     1       7.552  -5.072   3.746  0.00  0.00    +0.100 C 
ATOM     12  C   UNL     1       8.129  -6.486   3.925  0.00  0.00    +0.047 C 
ATOM     13  C   UNL     1       7.032  -7.378   4.572  0.00  0.00    +0.168 C 
ATOM     14  S   UNL     1       6.328  -6.205   5.806  0.00  0.00    -0.029 S 
ATOM     15  O   UNL     1       7.000  -6.380   7.045  0.00  0.00    -0.174 OA
ATOM     16  O   UNL     1       4.909  -6.285   5.763  0.00  0.00    -0.174 OA
ATOM     17  C   UNL     1       6.862  -4.615   5.054  0.00  0.00    +0.188 C 
ENDBRANCH  10  11
BRANCH   1  21
ATOM     18  C   UNL     1       5.396  -0.668   1.945  0.00  0.00    +0.121 A 
ATOM     19  C   UNL     1       6.110  -0.776   3.130  0.00  0.00    +0.046 A 
ATOM     20  C   UNL     1       7.187  -1.636   3.209  0.00  0.00    +0.009 A 
ATOM     21  C   UNL     1       7.555  -2.390   2.110  0.00  0.00    -0.022 A 
ATOM     22  C   UNL     1       6.845  -2.284   0.928  0.00  0.00    +0.009 A 
ATOM     23  C   UNL     1       5.763  -1.429   0.845  0.00  0.00    +0.046 A 
BRANCH  18  24
ATOM     24  O   UNL     1       4.335   0.178   1.864  0.00  0.00    -0.487 OA
BRANCH  24  25
ATOM     25  C   UNL     1       4.014   0.930   3.036  0.00  0.00    +0.264 C 
BRANCH  25  29
ATOM     26  C   UNL     1       0.628   3.413   2.254  0.00  0.00    +0.000 A 
ATOM     27  C   UNL     1       0.448   2.133   2.744  0.00  0.00    +0.000 A 
ATOM     28  C   UNL     1       1.544   1.330   2.997  0.00  0.00    +0.007 A 
ATOM     29  C   UNL     1       2.820   1.806   2.760  0.00  0.00    -0.010 A 
ATOM     30  C   UNL     1       2.999   3.086   2.268  0.00  0.00    +0.007 A 
ATOM     31  C   UNL     1       1.903   3.890   2.017  0.00  0.00    +0.000 A 
ENDBRANCH  25  29
ENDBRANCH  24  25
ENDBRANCH  18  24
ENDBRANCH   1  21
BRANCH   3  32
ATOM     32  C   UNL     1      10.697  -0.927   0.441  0.00  0.00    +0.044 A 
ATOM     33  C   UNL     1       9.641  -1.284  -0.395  0.00  0.00    +0.014 A 
ATOM     34  C   UNL     1       9.477  -0.647  -1.608  0.00  0.00    +0.001 A 
ATOM     35  C   UNL     1      10.358   0.346  -1.998  0.00  0.00    +0.004 A 
ATOM     36  C   UNL     1      11.409   0.708  -1.177  0.00  0.00    +0.046 A 
ATOM     37  C   UNL     1      11.582   0.081   0.046  0.00  0.00    +0.126 A 
BRANCH  37  38
ATOM     38  O   UNL     1      12.611   0.440   0.857  0.00  0.00    -0.506 OA
ATOM     39  H   UNL     1      13.425  -0.061   0.705  0.00  0.00    +0.292 HD
ENDBRANCH  37  38
ENDBRANCH   3  32
TORSDOF 7
