REMARK  Name = ZINC33782597
REMARK  13 active torsions:
REMARK  status: ('A' for Active; 'I' for Inactive)
REMARK    1  A    between atoms: C_1  and  C_2
REMARK    2  A    between atoms: C_2  and  C_4
REMARK    3  A    between atoms: C_2  and  N_7
REMARK    4  A    between atoms: C_4  and  C_5
REMARK    5  A    between atoms: C_4  and  C_6
REMARK    6  A    between atoms: C_8  and  C_10
REMARK    7  A    between atoms: C_10  and  C_11
REMARK    8  A    between atoms: C_17  and  C_19
REMARK    9  A    between atoms: C_19  and  N_20
REMARK   10  A    between atoms: N_20  and  C_21
REMARK   11  A    between atoms: C_21  and  C_22
REMARK   12  A    between atoms: C_21  and  C_23
REMARK   13  A    between atoms: C_24  and  C_26
REMARK                            x       y       z     vdW  Elec       q    Type
REMARK                         _______ _______ _______ _____ _____    ______ ____
ROOT
ATOM      1  C   UNL     1       2.770  -2.506  10.704  0.00  0.00    +0.059 A 
ATOM      2  C   UNL     1       2.404  -1.639   9.728  0.00  0.00    +0.072 A 
ATOM      3  S   UNL     1       0.647  -1.947   9.652  0.00  0.00    -0.060 S 
ATOM      4  C   UNL     1       0.565  -3.126  10.850  0.00  0.00    +0.165 A 
ATOM      5  N   UNL     1       1.816  -3.242  11.242  0.00  0.00    -0.229 NA
ATOM      6  N   UNL     1      -0.551  -3.814  11.310  0.00  0.00    -0.263 N 
ATOM      7  C   UNL     1      -1.764  -3.562  10.779  0.00  0.00    +0.236 C 
ATOM      8  O   UNL     1      -1.881  -2.736   9.899  0.00  0.00    -0.274 OA
ATOM      9  H   UNL     1      -0.458  -4.475  12.014  0.00  0.00    +0.157 HD
ENDROOT
BRANCH   1  10
ATOM     10  C   UNL     1       4.205  -2.628  11.150  0.00  0.00    +0.151 C 
BRANCH  10  12
ATOM     11  N   UNL     1       5.479  -2.484  13.266  0.00  0.00    -0.312 N 
ATOM     12  C   UNL     1       4.286  -2.419  12.641  0.00  0.00    +0.219 C 
ATOM     13  O   UNL     1       3.279  -2.194  13.277  0.00  0.00    -0.275 OA
ATOM     14  H   UNL     1       6.284  -2.664  12.757  0.00  0.00    +0.149 HD
BRANCH  11  16
ATOM     15  C   UNL     1       5.646  -0.784  15.016  0.00  0.00    +0.028 C 
ATOM     16  C   UNL     1       5.558  -2.281  14.715  0.00  0.00    +0.072 C 
BRANCH  16  17
ATOM     17  C   UNL     1       6.802  -2.985  15.261  0.00  0.00    +0.003 C 
ATOM     18  C   UNL     1       8.056  -2.320  14.690  0.00  0.00    +0.009 C 
ATOM     19  C   UNL     1       6.819  -2.880  16.787  0.00  0.00    +0.009 C 
ENDBRANCH  16  17
ENDBRANCH  11  16
ENDBRANCH  10  12
ENDBRANCH   1  10
BRANCH   7  20
ATOM     20  C   UNL     1      -2.975  -4.308  11.277  0.00  0.00    +0.204 C 
BRANCH  20  21
ATOM     21  N   UNL     1      -4.162  -3.857  10.546  0.00  0.00    -0.286 N 
ATOM     22  C   UNL     1      -4.887  -2.822  11.012  0.00  0.00    +0.247 C 
ATOM     23  O   UNL     1      -4.328  -1.850  11.481  0.00  0.00    -0.270 OA
BRANCH  22  24
ATOM     24  C   UNL     1      -6.363  -2.868  10.954  0.00  0.00    +0.038 A 
ATOM     25  C   UNL     1      -7.002  -3.730  10.061  0.00  0.00    +0.014 A 
ATOM     26  C   UNL     1      -8.380  -3.769  10.010  0.00  0.00    +0.022 A 
ATOM     27  C   UNL     1      -9.130  -2.955  10.842  0.00  0.00    +0.059 A 
ATOM     28  C   UNL     1      -8.502  -2.097  11.731  0.00  0.00    +0.060 A 
ATOM     29  C   UNL     1      -7.123  -2.054  11.795  0.00  0.00    +0.034 A 
ATOM     30 CL   UNL     1      -9.450  -1.080  12.771  0.00  0.00    -0.082 Cl
ATOM     31 CL   UNL     1     -10.864  -3.009  10.772  0.00  0.00    -0.082 Cl
ENDBRANCH  22  24
BRANCH  21  32
ATOM     32  C   UNL     1      -4.560  -4.533   9.309  0.00  0.00    +0.071 C 
ATOM     33  C   UNL     1      -5.426  -5.747   9.646  0.00  0.00    +0.028 C 
ATOM     34  C   UNL     1      -5.358  -3.564   8.434  0.00  0.00    +0.028 C 
ENDBRANCH  21  32
ENDBRANCH  20  21
ENDBRANCH   7  20
TORSDOF 8
