REMARK  Name = ZINC22240227
REMARK  6 active torsions:
REMARK  status: ('A' for Active; 'I' for Inactive)
REMARK    1  A    between atoms: C_1  and  C_2
REMARK    2  A    between atoms: C_2  and  C_3
REMARK    3  A    between atoms: C_3  and  C_30
REMARK    4  A    between atoms: N_6  and  C_10
REMARK    5  A    between atoms: C_10  and  C_11
REMARK    6  A    between atoms: C_24  and  C_26
REMARK                            x       y       z     vdW  Elec       q    Type
REMARK                         _______ _______ _______ _____ _____    ______ ____
ROOT
ATOM      1  C   UNL     1       0.268   5.987  -0.968  0.00  0.00    +0.238 C 
ATOM      2  O   UNL     1       0.238   7.198  -0.902  0.00  0.00    -0.273 OA
ATOM      3  N   UNL     1      -0.068   5.244   0.105  0.00  0.00    -0.256 N 
ATOM      4  C   UNL     1      -0.038   3.844   0.042  0.00  0.00    +0.058 A 
ATOM      5  C   UNL     1       1.168   3.164   0.017  0.00  0.00    +0.025 A 
ATOM      6  C   UNL     1       1.177   1.781   0.000  0.00  0.00    +0.002 A 
ATOM      7  C   UNL     1      -0.013   1.076   0.008  0.00  0.00    +0.002 A 
ATOM      8  C   UNL     1      -1.221   1.748   0.017  0.00  0.00    +0.025 A 
ATOM      9  C   UNL     1      -1.239   3.133   0.032  0.00  0.00    +0.055 A 
ATOM     10  N   UNL     1      -2.450   3.834   0.005  0.00  0.00    -0.284 N 
ATOM     11  C   UNL     1      -2.675   4.842   0.875  0.00  0.00    +0.219 C 
ATOM     12  O   UNL     1      -3.691   5.499   0.787  0.00  0.00    -0.275 OA
ATOM     13  C   UNL     1      -1.673   5.154   1.954  0.00  0.00    +0.128 C 
ATOM     14  C   UNL     1      -0.469   5.886   1.359  0.00  0.00    +0.194 C 
ATOM     15  H   UNL     1      -3.225   3.565  -0.728  0.00  0.00    +0.155 HD
ENDROOT
BRANCH  14  16
ATOM     16  C   UNL     1       0.696   5.838   2.349  0.00  0.00    +0.409 C 
ATOM     17  F   UNL     1       1.038   4.505   2.602  0.00  0.00    -0.169 F 
ATOM     18  F   UNL     1       1.798   6.507   1.805  0.00  0.00    -0.169 F 
ATOM     19  F   UNL     1       0.318   6.457   3.545  0.00  0.00    -0.169 F 
ENDBRANCH  14  16
BRANCH   1  20
ATOM     20  C   UNL     1       0.679   5.313  -2.252  0.00  0.00    +0.214 C 
BRANCH  20  24
ATOM     21  C   UNL     1       2.065   7.856  -4.577  0.00  0.00    +0.138 C 
ATOM     22  C   UNL     1       2.216   6.862  -3.442  0.00  0.00    +0.251 C 
ATOM     23  O   UNL     1       3.228   6.601  -2.828  0.00  0.00    -0.272 OA
ATOM     24  N   UNL     1       0.992   6.330  -3.259  0.00  0.00    -0.215 N 
ATOM     25  C   UNL     1       0.098   6.840  -4.114  0.00  0.00    +0.310 C 
ATOM     26  O   UNL     1      -1.071   6.512  -4.145  0.00  0.00    -0.252 OA
ATOM     27  N   UNL     1       0.639   7.759  -4.934  0.00  0.00    -0.281 N 
ATOM     28  H   UNL     1       0.231   8.383  -5.743  0.00  0.00    +0.152 HD
BRANCH  21  29
ATOM     29  C   UNL     1       2.932   7.464  -5.745  0.00  0.00    -0.015 A 
ATOM     30  C   UNL     1       4.223   7.950  -5.841  0.00  0.00    +0.009 A 
ATOM     31  C   UNL     1       5.021   7.588  -6.909  0.00  0.00    +0.039 A 
ATOM     32  C   UNL     1       4.524   6.745  -7.889  0.00  0.00    +0.123 A 
ATOM     33  C   UNL     1       3.230   6.262  -7.794  0.00  0.00    +0.039 A 
ATOM     34  C   UNL     1       2.435   6.622  -6.723  0.00  0.00    +0.009 A 
ATOM     35  F   UNL     1       5.302   6.393  -8.936  0.00  0.00    -0.205 F 
ENDBRANCH  21  29
BRANCH  21  37
ATOM     36  C   UNL     1       1.473   9.662  -2.954  0.00  0.00    +0.007 C 
ATOM     37  C   UNL     1       2.405   9.271  -4.103  0.00  0.00    +0.037 C 
ENDBRANCH  21  37
ENDBRANCH  20  24
ENDBRANCH   1  20
TORSDOF 5
