REMARK  Name = ZINC04629505
REMARK  3 active torsions:
REMARK  status: ('A' for Active; 'I' for Inactive)
REMARK    1  A    between atoms: C_1  and  C_2
REMARK    2  A    between atoms: C_2  and  C_3
REMARK    3  A    between atoms: C_9  and  C_14
REMARK                            x       y       z     vdW  Elec       q    Type
REMARK                         _______ _______ _______ _____ _____    ______ ____
ROOT
ATOM      1  C   UNL     1      -1.412  -0.526   0.013  0.00  0.00    +0.113 A 
ATOM      2  N   UNL     1      -1.614  -1.865   0.013  0.00  0.00    -0.310 N 
ATOM      3  H   UNL     1      -0.854  -2.469   0.006  0.00  0.00    +0.170 HD
ATOM      4  C   UNL     1      -2.871  -2.364   0.023  0.00  0.00    +0.265 A 
ATOM      5  O   UNL     1      -3.067  -3.567   0.024  0.00  0.00    -0.267 OA
ATOM      6  C   UNL     1      -3.950  -1.450   0.032  0.00  0.00    +0.133 A 
ATOM      7  C   UNL     1      -5.410  -1.587   0.045  0.00  0.00    +0.135 A 
ATOM      8  N   UNL     1      -5.908  -0.373   0.050  0.00  0.00    -0.074 NA
ATOM      9  O   UNL     1      -4.851   0.566   0.042  0.00  0.00    -0.334 OA
ATOM     10  C   UNL     1      -3.674  -0.079   0.031  0.00  0.00    +0.266 A 
ATOM     11  N   UNL     1      -2.397   0.329   0.027  0.00  0.00    -0.197 NA
ENDROOT
BRANCH   7  12
ATOM     12  C   UNL     1      -6.174  -2.849   0.050  0.00  0.00    +0.043 A 
ATOM     13  C   UNL     1      -7.364  -3.136   0.666  0.00  0.00    +0.019 A 
ATOM     14  C   UNL     1      -7.893  -4.399   0.528  0.00  0.00    +0.023 A 
ATOM     15  C   UNL     1      -7.222  -5.321  -0.212  0.00  0.00    +0.056 A 
ATOM     16  S   UNL     1      -5.791  -4.399  -0.751  0.00  0.00    -0.080 S 
ATOM     17 BR   UNL     1      -7.687  -7.116  -0.581  0.00  0.00    -0.043 Br
ENDBRANCH   7  12
BRANCH   1  19
ATOM     18  C   UNL     1      -0.019   1.526   0.010  0.00  0.00    +0.012 C 
ATOM     19  C   UNL     1       0.002  -0.004   0.002  0.00  0.00    +0.071 C 
ENDBRANCH   1  19
TORSDOF 2
