REMARK  Name = ZINC35965326
REMARK  9 active torsions:
REMARK  status: ('A' for Active; 'I' for Inactive)
REMARK    1  A    between atoms: C_1  and  C_2
REMARK    2  A    between atoms: C_2  and  C_3
REMARK    3  A    between atoms: C_2  and  C_4
REMARK    4  A    between atoms: C_4  and  N_5
REMARK    5  A    between atoms: C_6  and  C_8
REMARK    6  A    between atoms: C_8  and  N_9
REMARK    7  A    between atoms: C_15  and  C_24
REMARK    8  A    between atoms: N_20  and  C_21
REMARK    9  A    between atoms: C_21  and  C_22
REMARK                            x       y       z     vdW  Elec       q    Type
REMARK                         _______ _______ _______ _____ _____    ______ ____
ROOT
ATOM      1  N   UNL     1       5.088  -0.472  -3.376  0.00  0.00    -0.283 N 
ATOM      2  C   UNL     1       5.765  -1.767  -3.544  0.00  0.00    +0.160 C 
ATOM      3  C   UNL     1       6.297  -1.747  -4.959  0.00  0.00    +0.043 C 
ATOM      4  C   UNL     1       5.935  -0.558  -5.484  0.00  0.00    +0.058 C 
ATOM      5  C   UNL     1       5.211   0.195  -4.538  0.00  0.00    +0.247 C 
ATOM      6  O   UNL     1       4.758   1.306  -4.744  0.00  0.00    -0.270 OA
ATOM      7  C   UNL     1       6.344  -0.266  -6.913  0.00  0.00    +0.143 C 
ATOM      8  N   UNL     1       7.108  -1.311  -7.615  0.00  0.00    -0.288 N 
ATOM      9  C   UNL     1       7.394  -2.450  -6.955  0.00  0.00    +0.307 C 
ATOM     10  O   UNL     1       8.025  -3.318  -7.526  0.00  0.00    -0.252 OA
ATOM     11  N   UNL     1       7.007  -2.656  -5.690  0.00  0.00    -0.253 N 
ATOM     12  H   UNL     1       7.398  -1.182  -8.532  0.00  0.00    +0.151 HD
ENDROOT
BRANCH   7  13
ATOM     13  C   UNL     1       5.093   0.008  -7.708  0.00  0.00    -0.004 A 
ATOM     14  C   UNL     1       4.487  -1.013  -8.416  0.00  0.00    +0.007 A 
ATOM     15  C   UNL     1       3.340  -0.762  -9.145  0.00  0.00    +0.000 A 
ATOM     16  C   UNL     1       2.798   0.510  -9.166  0.00  0.00    +0.001 A 
ATOM     17  C   UNL     1       3.403   1.531  -8.458  0.00  0.00    +0.020 A 
ATOM     18  C   UNL     1       4.548   1.279  -7.724  0.00  0.00    +0.046 A 
ATOM     19 CL   UNL     1       5.306   2.560  -6.830  0.00  0.00    -0.083 Cl
ENDBRANCH   7  13
BRANCH   1  20
ATOM     20  C   UNL     1       4.402   0.000  -2.171  0.00  0.00    +0.204 C 
BRANCH  20  22
ATOM     21  N   UNL     1       2.125  -0.091  -1.209  0.00  0.00    -0.314 N 
ATOM     22  C   UNL     1       2.955  -0.418  -2.220  0.00  0.00    +0.230 C 
ATOM     23  O   UNL     1       2.538  -1.048  -3.168  0.00  0.00    -0.274 OA
ATOM     24  H   UNL     1       2.459   0.413  -0.451  0.00  0.00    +0.149 HD
BRANCH  21  25
ATOM     25  C   UNL     1       0.718  -0.497  -1.257  0.00  0.00    +0.107 C 
BRANCH  25  27
ATOM     26  C   UNL     1      -0.019   1.526   0.010  0.00  0.00    +0.009 C 
ATOM     27  C   UNL     1       0.002  -0.004   0.002  0.00  0.00    -0.000 C 
ATOM     28  C   UNL     1      -1.433  -0.534   0.013  0.00  0.00    +0.009 C 
ENDBRANCH  25  27
ENDBRANCH  21  25
ENDBRANCH  20  22
ENDBRANCH   1  20
BRANCH  11  29
ATOM     29  C   UNL     1       7.365  -3.927  -5.054  0.00  0.00    +0.141 C 
BRANCH  29  30
ATOM     30  C   UNL     1       6.275  -4.937  -5.301  0.00  0.00    -0.015 C 
ATOM     31  C   UNL     1       6.563  -6.090  -5.851  0.00  0.00    +0.005 C 
ENDBRANCH  29  30
ENDBRANCH  11  29
TORSDOF 7
