REMARK  Name = ZINC32806450
REMARK  6 active torsions:
REMARK  status: ('A' for Active; 'I' for Inactive)
REMARK    1  A    between atoms: C_7  and  N_16
REMARK    2  A    between atoms: C_9  and  C_11
REMARK    3  A    between atoms: N_19  and  S_22
REMARK    4  A    between atoms: S_22  and  C_25
REMARK    5  A    between atoms: C_28  and  S_31
REMARK    6  A    between atoms: S_31  and  N_34
REMARK                            x       y       z     vdW  Elec       q    Type
REMARK                         _______ _______ _______ _____ _____    ______ ____
ROOT
ATOM      1  N   UNL     1       0.165  -2.864  -0.013  0.00  0.00    -0.312 N 
ATOM      2  C   UNL     1      -1.159  -2.239   0.107  0.00  0.00    +0.123 C 
ATOM      3  C   UNL     1      -2.024  -2.690  -1.077  0.00  0.00    +0.128 C 
ATOM      4  N   UNL     1      -1.940  -4.153  -1.189  0.00  0.00    -0.174 NA
ATOM      5  C   UNL     1      -0.615  -4.779  -1.310  0.00  0.00    +0.128 C 
ATOM      6  C   UNL     1       0.249  -4.327  -0.132  0.00  0.00    +0.123 C 
ENDROOT
BRANCH   1  13
ATOM      7  C   UNL     1       2.207  -1.897   3.560  0.00  0.00    +0.001 A 
ATOM      8  C   UNL     1       3.357  -1.115   3.496  0.00  0.00    +0.002 A 
ATOM      9  C   UNL     1       3.830  -0.658   2.301  0.00  0.00    +0.028 A 
ATOM     10  C   UNL     1       3.149  -0.981   1.119  0.00  0.00    +0.077 A 
ATOM     11  C   UNL     1       1.980  -1.778   1.187  0.00  0.00    +0.040 A 
ATOM     12  C   UNL     1       1.521  -2.229   2.429  0.00  0.00    +0.013 A 
ATOM     13  C   UNL     1       1.307  -2.093  -0.021  0.00  0.00    +0.133 A 
ATOM     14  N   UNL     1       1.804  -1.628  -1.157  0.00  0.00    -0.211 NA
ATOM     15  C   UNL     1       2.909  -0.880  -1.177  0.00  0.00    +0.169 A 
ATOM     16  N   UNL     1       3.574  -0.558  -0.080  0.00  0.00    -0.227 NA
BRANCH  15  17
ATOM     17  C   UNL     1       3.410  -0.394  -2.476  0.00  0.00    +0.056 A 
ATOM     18  C   UNL     1       4.514   0.374  -2.744  0.00  0.00    +0.019 A 
ATOM     19  C   UNL     1       4.787   0.708  -4.050  0.00  0.00    +0.008 A 
ATOM     20  C   UNL     1       3.957   0.269  -5.033  0.00  0.00    +0.046 A 
ATOM     21  S   UNL     1       2.742  -0.659  -4.111  0.00  0.00    -0.094 S 
ENDBRANCH  15  17
ENDBRANCH   1  13
BRANCH   4  22
ATOM     22  S   UNL     1      -3.312  -5.080  -1.180  0.00  0.00    +0.061 S 
ATOM     23  O   UNL     1      -2.924  -6.375  -0.745  0.00  0.00    -0.153 OA
ATOM     24  O   UNL     1      -4.311  -4.320  -0.514  0.00  0.00    -0.153 OA
BRANCH  22  25
ATOM     25  C   UNL     1      -3.838  -5.248  -2.853  0.00  0.00    +0.106 A 
ATOM     26  C   UNL     1      -4.707  -4.322  -3.401  0.00  0.00    +0.030 A 
ATOM     27  C   UNL     1      -5.120  -4.454  -4.713  0.00  0.00    +0.030 A 
ATOM     28  C   UNL     1      -4.664  -5.511  -5.479  0.00  0.00    +0.105 A 
ATOM     29  C   UNL     1      -3.795  -6.436  -4.931  0.00  0.00    +0.030 A 
ATOM     30  C   UNL     1      -3.378  -6.302  -3.620  0.00  0.00    +0.030 A 
BRANCH  28  31
ATOM     31  S   UNL     1      -5.192  -5.679  -7.151  0.00  0.00    +0.056 S 
ATOM     32  O   UNL     1      -5.052  -7.053  -7.485  0.00  0.00    -0.153 OA
ATOM     33  O   UNL     1      -6.431  -4.992  -7.258  0.00  0.00    -0.153 OA
BRANCH  31  34
ATOM     34  N   UNL     1      -4.109  -4.851  -8.092  0.00  0.00    -0.204 NA
ATOM     35  H   UNL     1      -3.359  -4.394  -7.680  0.00  0.00    +0.144 HD
ATOM     36  H   UNL     1      -4.225  -4.823  -9.054  0.00  0.00    +0.144 HD
ENDBRANCH  31  34
ENDBRANCH  28  31
ENDBRANCH  22  25
ENDBRANCH   4  22
TORSDOF 6
