REMARK  Name = ZINC22396669
REMARK  8 active torsions:
REMARK  status: ('A' for Active; 'I' for Inactive)
REMARK    1  A    between atoms: C_1  and  C_2
REMARK    2  A    between atoms: C_9  and  C_11
REMARK    3  A    between atoms: C_11  and  N_12
REMARK    4  A    between atoms: N_12  and  C_13
REMARK    5  A    between atoms: N_12  and  S_28
REMARK    6  A    between atoms: C_16  and  S_19
REMARK    7  A    between atoms: S_19  and  N_22
REMARK    8  A    between atoms: S_28  and  C_31
REMARK                            x       y       z     vdW  Elec       q    Type
REMARK                         _______ _______ _______ _____ _____    ______ ____
ROOT
ATOM      1  N   UNL     1       3.416   0.372   6.230  0.00  0.00    -0.199 N 
ENDROOT
BRANCH   1   2
ATOM      2  C   UNL     1       2.349   0.418   5.330  0.00  0.00    +0.052 A 
ATOM      3  C   UNL     1       1.852   1.642   4.902  0.00  0.00    +0.026 A 
ATOM      4  C   UNL     1       0.797   1.684   4.011  0.00  0.00    +0.030 A 
ATOM      5  C   UNL     1       0.237   0.509   3.546  0.00  0.00    +0.106 A 
ATOM      6  C   UNL     1       0.726  -0.712   3.974  0.00  0.00    +0.030 A 
ATOM      7  C   UNL     1       1.784  -0.761   4.860  0.00  0.00    +0.026 A 
BRANCH   5   8
ATOM      8  S   UNL     1      -1.109   0.567   2.409  0.00  0.00    +0.061 S 
ATOM      9  O   UNL     1      -1.739   1.827   2.590  0.00  0.00    -0.153 OA
ATOM     10  O   UNL     1      -1.810  -0.662   2.547  0.00  0.00    -0.153 OA
BRANCH   8  11
ATOM     11  N   UNL     1      -0.462   0.575   0.885  0.00  0.00    -0.172 NA
ATOM     12  C   UNL     1      -0.202  -0.683   0.166  0.00  0.00    +0.137 C 
ATOM     13  C   UNL     1      -0.827  -0.580  -1.230  0.00  0.00    +0.177 C 
ATOM     14  O   UNL     1      -0.372   0.619  -1.863  0.00  0.00    -0.377 OA
ATOM     15  C   UNL     1      -0.760   1.819  -1.190  0.00  0.00    +0.177 C 
ATOM     16  C   UNL     1      -0.132   1.839   0.208  0.00  0.00    +0.137 C 
ENDBRANCH   8  11
ENDBRANCH   5   8
ENDBRANCH   1   2
BRANCH   1  17
ATOM     17  S   UNL     1       3.263   1.054   7.732  0.00  0.00    +0.043 S 
ATOM     18  O   UNL     1       4.569   1.506   8.060  0.00  0.00    -0.155 OA
ATOM     19  O   UNL     1       2.188   1.975   7.603  0.00  0.00    -0.155 OA
ATOM     20  C   UNL     1       2.784  -0.317   8.819  0.00  0.00    +0.218 C 
ENDBRANCH   1  17
BRANCH   1  21
ATOM     21  C   UNL     1       4.671  -0.279   5.847  0.00  0.00    +0.227 C 
BRANCH  21  29
ATOM     22  C   UNL     1       9.002   1.537   1.854  0.00  0.00    +0.009 C 
ATOM     23  C   UNL     1       8.004   0.627   2.572  0.00  0.00    +0.003 C 
ATOM     24  C   UNL     1       8.653  -0.734   2.836  0.00  0.00    +0.006 C 
ATOM     25  C   UNL     1       7.645  -1.656   3.526  0.00  0.00    +0.019 C 
ATOM     26  C   UNL     1       7.239  -1.045   4.875  0.00  0.00    +0.108 C 
ATOM     27  N   UNL     1       6.746   0.320   4.641  0.00  0.00    -0.300 N 
ATOM     28  C   UNL     1       7.601   1.263   3.906  0.00  0.00    +0.111 C 
ATOM     29  C   UNL     1       5.536   0.700   5.095  0.00  0.00    +0.235 C 
ATOM     30  O   UNL     1       5.143   1.831   4.899  0.00  0.00    -0.274 OA
ENDBRANCH  21  29
ENDBRANCH   1  21
TORSDOF 6
