REMARK  Name = ZINC62038705
REMARK  10 active torsions:
REMARK  status: ('A' for Active; 'I' for Inactive)
REMARK    1  A    between atoms: C_1  and  C_2
REMARK    2  A    between atoms: C_6  and  C_9
REMARK    3  A    between atoms: C_12  and  O_15
REMARK    4  A    between atoms: O_15  and  C_16
REMARK    5  A    between atoms: C_17  and  S_19
REMARK    6  A    between atoms: S_19  and  C_20
REMARK    7  A    between atoms: C_20  and  C_22
REMARK    8  A    between atoms: C_20  and  C_23
REMARK    9  A    between atoms: N_25  and  C_26
REMARK   10  A    between atoms: C_31  and  O_32
REMARK                            x       y       z     vdW  Elec       q    Type
REMARK                         _______ _______ _______ _____ _____    ______ ____
ROOT
ATOM      1  C   UNL     1       0.673   1.362   0.017  0.00  0.00    +0.088 C 
ATOM      2  C   UNL     1       0.549  -0.139  -0.026  0.00  0.00    +0.128 A 
ATOM      3  N   UNL     1       0.406  -0.742  -1.191  0.00  0.00    -0.225 NA
ATOM      4  C   UNL     1       0.295  -2.055  -1.254  0.00  0.00    +0.113 A 
ATOM      5  C   UNL     1       0.324  -2.852  -0.092  0.00  0.00    +0.047 A 
ATOM      6  C   UNL     1       0.189  -4.285  -0.325  0.00  0.00    +0.001 A 
ATOM      7  C   UNL     1       0.051  -4.728  -1.597  0.00  0.00    +0.056 A 
ATOM      8  S   UNL     1       0.094  -3.232  -2.565  0.00  0.00    -0.076 S 
ATOM      9  C   UNL     1       0.479  -2.143   1.130  0.00  0.00    +0.110 A 
ATOM     10  N   UNL     1       0.589  -0.823   1.102  0.00  0.00    -0.225 NA
ENDROOT
BRANCH   6  11
ATOM     11  C   UNL     1       0.203  -5.240   0.809  0.00  0.00    -0.016 A 
ATOM     12  C   UNL     1      -0.746  -5.132   1.825  0.00  0.00    +0.012 A 
ATOM     13  C   UNL     1      -0.730  -6.022   2.878  0.00  0.00    +0.046 A 
ATOM     14  C   UNL     1       0.230  -7.024   2.929  0.00  0.00    +0.120 A 
ATOM     15  C   UNL     1       1.177  -7.133   1.919  0.00  0.00    +0.046 A 
ATOM     16  C   UNL     1       1.162  -6.251   0.859  0.00  0.00    +0.012 A 
BRANCH  14  17
ATOM     17  O   UNL     1       0.244  -7.898   3.969  0.00  0.00    -0.495 OA
ATOM     18  C   UNL     1       1.259  -8.904   3.958  0.00  0.00    +0.277 C 
ENDBRANCH  14  17
ENDBRANCH   6  11
BRANCH   9  19
ATOM     19  S   UNL     1       0.532  -3.010   2.663  0.00  0.00    -0.093 S 
BRANCH  19  20
ATOM     20  C   UNL     1       0.737  -1.700   3.901  0.00  0.00    +0.136 C 
ATOM     21  C   UNL     1      -0.506  -0.807   3.910  0.00  0.00    +0.029 C 
BRANCH  20  22
ATOM     22  C   UNL     1       0.920  -2.320   5.263  0.00  0.00    +0.230 C 
ATOM     23  O   UNL     1       0.562  -3.461   5.463  0.00  0.00    -0.274 OA
ATOM     24  N   UNL     1       1.482  -1.605   6.258  0.00  0.00    -0.282 N 
ATOM     25  H   UNL     1       1.705  -0.672   6.119  0.00  0.00    +0.155 HD
BRANCH  24  26
ATOM     26  C   UNL     1       1.743  -2.212   7.494  0.00  0.00    +0.077 A 
ATOM     27  C   UNL     1       2.099  -3.552   7.550  0.00  0.00    +0.047 A 
ATOM     28  C   UNL     1       2.357  -4.147   8.771  0.00  0.00    +0.043 A 
ATOM     29  C   UNL     1       2.261  -3.410   9.938  0.00  0.00    +0.023 A 
ATOM     30  C   UNL     1       1.907  -2.075   9.889  0.00  0.00    +0.049 A 
ATOM     31  C   UNL     1       1.653  -1.469   8.669  0.00  0.00    +0.138 A 
ATOM     32 CL   UNL     1       2.802  -5.824   8.840  0.00  0.00    -0.083 Cl
BRANCH  31  33
ATOM     33  O   UNL     1       1.311  -0.154   8.620  0.00  0.00    -0.505 OA
ATOM     34  H   UNL     1       0.359   0.007   8.678  0.00  0.00    +0.292 HD
ENDBRANCH  31  33
ENDBRANCH  24  26
ENDBRANCH  20  22
ENDBRANCH  19  20
ENDBRANCH   9  19
TORSDOF 7
