REMARK  Name = ZINC59500976
REMARK  4 active torsions:
REMARK  status: ('A' for Active; 'I' for Inactive)
REMARK    1  A    between atoms: C_4  and  C_7
REMARK    2  A    between atoms: C_9  and  C_15
REMARK    3  A    between atoms: C_15  and  C_17
REMARK    4  A    between atoms: C_20  and  N_23
REMARK                            x       y       z     vdW  Elec       q    Type
REMARK                         _______ _______ _______ _____ _____    ______ ____
ROOT
ATOM      1  C   UNL     1       3.998  -0.305  -0.247  0.00  0.00    +0.132 C 
ATOM      2  C   UNL     1       4.075  -0.945   1.166  0.00  0.00    +0.151 C 
ATOM      3  S   UNL     1       4.730  -2.598   0.676  0.00  0.00    -0.079 S 
ATOM      4  C   UNL     1       4.238  -2.559  -1.040  0.00  0.00    +0.126 C 
ATOM      5  N   UNL     1       3.901  -1.324  -1.276  0.00  0.00    -0.360 N 
ATOM      6  N   UNL     1       4.217  -3.612  -1.924  0.00  0.00    -0.339 N 
ATOM      7  H   UNL     1       4.491  -4.496  -1.632  0.00  0.00    +0.144 HD
ATOM      8  H   UNL     1       3.929  -3.471  -2.840  0.00  0.00    +0.144 HD
ATOM      9  H   UNL     1       3.581  -1.081  -2.158  0.00  0.00    +0.162 HD
ENDROOT
BRANCH   1  13
ATOM     10  C   UNL     1       0.564   2.226  -0.456  0.00  0.00    +0.000 A 
ATOM     11  C   UNL     1       1.810   2.771  -0.211  0.00  0.00    +0.000 A 
ATOM     12  C   UNL     1       2.921   1.952  -0.144  0.00  0.00    +0.006 A 
ATOM     13  C   UNL     1       2.786   0.588  -0.320  0.00  0.00    -0.024 A 
ATOM     14  C   UNL     1       1.540   0.043  -0.564  0.00  0.00    +0.006 A 
ATOM     15  C   UNL     1       0.428   0.862  -0.633  0.00  0.00    +0.000 A 
ENDBRANCH   1  13
BRANCH   2  16
ATOM     16  C   UNL     1       5.041  -0.206   2.057  0.00  0.00    +0.179 C 
ATOM     17  O   UNL     1       4.625   0.576   2.885  0.00  0.00    -0.291 OA
BRANCH  16  18
ATOM     18  C   UNL     1       6.488  -0.435   1.923  0.00  0.00    +0.019 A 
ATOM     19  C   UNL     1       7.010  -0.960   0.737  0.00  0.00    +0.013 A 
ATOM     20  C   UNL     1       8.368  -1.171   0.619  0.00  0.00    +0.033 A 
ATOM     21  C   UNL     1       9.213  -0.866   1.672  0.00  0.00    +0.126 A 
ATOM     22  C   UNL     1       8.704  -0.347   2.849  0.00  0.00    +0.033 A 
ATOM     23  C   UNL     1       7.350  -0.124   2.980  0.00  0.00    +0.013 A 
BRANCH  21  24
ATOM     24  N   UNL     1      10.669  -1.097   1.538  0.00  0.00    +0.056 N 
ATOM     25  O   UNL     1      11.117  -1.551   0.510  0.00  0.00    -0.126 OA
ATOM     26  O   UNL     1      11.410  -0.832   2.455  0.00  0.00    -0.126 OA
ENDBRANCH  21  24
ENDBRANCH  16  18
ENDBRANCH   2  16
TORSDOF 4
