REMARK  Name = ZINC38933721
REMARK  5 active torsions:
REMARK  status: ('A' for Active; 'I' for Inactive)
REMARK    1  A    between atoms: C_3  and  C_30
REMARK    2  A    between atoms: C_6  and  C_7
REMARK    3  A    between atoms: C_13  and  C_15
REMARK    4  A    between atoms: N_20  and  S_21
REMARK    5  A    between atoms: S_21  and  C_24
REMARK                            x       y       z     vdW  Elec       q    Type
REMARK                         _______ _______ _______ _____ _____    ______ ____
ROOT
ATOM      1  C   UNL     1      -1.266  -0.763   0.011  0.00  0.00    +0.250 A 
ATOM      2  N   UNL     1      -2.475  -0.256   0.019  0.00  0.00    -0.106 NA
ATOM      3  N   UNL     1      -3.338  -1.210   0.025  0.00  0.00    -0.092 NA
ATOM      4  C   UNL     1      -2.714  -2.364   0.020  0.00  0.00    +0.314 A 
ATOM      5  O   UNL     1      -1.392  -2.108   0.005  0.00  0.00    -0.405 OA
ATOM      6  N   UNL     1      -3.307  -3.616   0.023  0.00  0.00    -0.237 N 
ATOM      7  C   UNL     1      -4.650  -3.726   0.032  0.00  0.00    +0.239 C 
ATOM      8  O   UNL     1      -5.340  -2.729   0.037  0.00  0.00    -0.274 OA
ATOM      9  H   UNL     1      -2.755  -4.414   0.019  0.00  0.00    +0.159 HD
ENDROOT
BRANCH   1  15
ATOM     10  C   UNL     1      -0.017   1.392   0.010  0.00  0.00    +0.014 A 
ATOM     11  C   UNL     1       1.170   2.095   0.002  0.00  0.00    +0.013 A 
ATOM     12  C   UNL     1       2.378   1.419  -0.013  0.00  0.00    +0.055 A 
ATOM     13  C   UNL     1       2.404   0.036  -0.021  0.00  0.00    +0.013 A 
ATOM     14  C   UNL     1       1.224  -0.679  -0.014  0.00  0.00    +0.014 A 
ATOM     15  C   UNL     1       0.002  -0.004   0.002  0.00  0.00    +0.039 A 
BRANCH  12  16
ATOM     16  C   UNL     1       3.670   2.194  -0.022  0.00  0.00    +0.417 C 
ATOM     17  F   UNL     1       4.083   2.427   1.294  0.00  0.00    -0.166 F 
ATOM     18  F   UNL     1       4.651   1.457  -0.695  0.00  0.00    -0.166 F 
ATOM     19  F   UNL     1       3.477   3.417  -0.673  0.00  0.00    -0.166 F 
ENDBRANCH  12  16
ENDBRANCH   1  15
BRANCH   7  20
ATOM     20  C   UNL     1      -5.295  -5.088   0.036  0.00  0.00    +0.166 C 
ATOM     21  C   UNL     1      -4.906  -5.856  -1.245  0.00  0.00    +0.031 C 
ATOM     22  C   UNL     1      -6.216  -6.601  -1.615  0.00  0.00    +0.019 C 
ATOM     23  C   UNL     1      -7.291  -5.568  -1.193  0.00  0.00    +0.110 C 
ATOM     24  N   UNL     1      -6.758  -4.949   0.038  0.00  0.00    -0.164 NA
BRANCH  24  25
ATOM     25  S   UNL     1      -7.656  -4.220   1.223  0.00  0.00    +0.068 S 
ATOM     26  O   UNL     1      -8.963  -4.771   1.139  0.00  0.00    -0.152 OA
ATOM     27  O   UNL     1      -6.881  -4.275   2.413  0.00  0.00    -0.152 OA
BRANCH  25  28
ATOM     28  C   UNL     1      -7.800  -2.517   0.795  0.00  0.00    +0.144 A 
ATOM     29  C   UNL     1      -8.752  -1.901   0.053  0.00  0.00    +0.038 A 
ATOM     30  C   UNL     1      -8.662  -0.537  -0.156  0.00  0.00    +0.030 A 
ATOM     31  C   UNL     1      -7.622   0.143   0.387  0.00  0.00    +0.080 A 
ATOM     32  S   UNL     1      -6.732  -1.154   1.231  0.00  0.00    -0.057 S 
ATOM     33 CL   UNL     1      -7.254   1.837   0.292  0.00  0.00    -0.076 Cl
ENDBRANCH  25  28
ENDBRANCH  24  25
ENDBRANCH   7  20
TORSDOF 5
