REMARK  Name = ZINC06893236
REMARK  8 active torsions:
REMARK  status: ('A' for Active; 'I' for Inactive)
REMARK    1  A    between atoms: C_1  and  C_2
REMARK    2  A    between atoms: C_5  and  N_9
REMARK    3  A    between atoms: C_6  and  C_8
REMARK    4  A    between atoms: C_10  and  C_12
REMARK    5  A    between atoms: C_12  and  C_13
REMARK    6  A    between atoms: C_13  and  S_14
REMARK    7  A    between atoms: S_14  and  C_17
REMARK    8  A    between atoms: C_22  and  C_23
REMARK                            x       y       z     vdW  Elec       q    Type
REMARK                         _______ _______ _______ _____ _____    ______ ____
ROOT
ATOM      1  S   UNL     1       2.754   5.448  -1.450  0.00  0.00    -0.002 S 
ATOM      2  O   UNL     1       3.880   5.267  -2.299  0.00  0.00    -0.169 OA
ATOM      3  O   UNL     1       1.475   5.740  -1.996  0.00  0.00    -0.169 OA
ENDROOT
BRANCH   1   4
ATOM      4  C   UNL     1       2.552   3.900  -0.635  0.00  0.00    +0.095 A 
ATOM      5  C   UNL     1       1.314   3.281  -0.628  0.00  0.00    +0.074 A 
ATOM      6  C   UNL     1       1.155   2.064   0.012  0.00  0.00    +0.144 A 
ATOM      7  C   UNL     1       2.243   1.467   0.648  0.00  0.00    +0.076 A 
ATOM      8  C   UNL     1       3.479   2.092   0.638  0.00  0.00    +0.032 A 
ATOM      9  C   UNL     1       3.630   3.308  -0.004  0.00  0.00    -0.024 A 
ATOM     10  C   UNL     1       4.974   3.989  -0.016  0.00  0.00    +0.046 C 
ATOM     11  N   UNL     1       2.068   0.235   1.294  0.00  0.00    -0.280 N 
ATOM     12  C   UNL     1       0.961  -0.492   1.026  0.00  0.00    +0.255 C 
ATOM     13  O   UNL     1       0.773  -1.547   1.596  0.00  0.00    -0.272 OA
ATOM     14  C   UNL     1      -0.040   0.012   0.018  0.00  0.00    +0.325 C 
ATOM     15  O   UNL     1      -0.053   1.442   0.028  0.00  0.00    -0.481 OA
ATOM     16  H   UNL     1       2.731  -0.090   1.923  0.00  0.00    +0.155 HD
ENDBRANCH   1   4
BRANCH   1  17
ATOM     17  C   UNL     1       3.151   6.623  -0.127  0.00  0.00    +0.181 C 
BRANCH  17  18
ATOM     18  C   UNL     1       3.350   8.018  -0.725  0.00  0.00    +0.119 C 
BRANCH  18  20
ATOM     19  N   UNL     1       3.899  10.291   0.081  0.00  0.00    -0.285 N 
ATOM     20  C   UNL     1       3.680   8.994   0.374  0.00  0.00    +0.219 C 
ATOM     21  O   UNL     1       3.750   8.612   1.524  0.00  0.00    -0.275 OA
ATOM     22  H   UNL     1       3.923  10.581  -0.844  0.00  0.00    +0.155 HD
BRANCH  19  27
ATOM     23  C   UNL     1       4.678  14.052   4.256  0.00  0.00    +0.044 C 
ATOM     24  C   UNL     1       4.471  13.053   3.147  0.00  0.00    -0.050 A 
ATOM     25  C   UNL     1       3.763  11.890   3.389  0.00  0.00    +0.005 A 
ATOM     26  C   UNL     1       3.572  10.972   2.375  0.00  0.00    +0.024 A 
ATOM     27  C   UNL     1       4.091  11.219   1.111  0.00  0.00    +0.036 A 
ATOM     28  C   UNL     1       4.806  12.385   0.872  0.00  0.00    -0.029 A 
ATOM     29  C   UNL     1       4.989  13.301   1.889  0.00  0.00    +0.008 A 
ATOM     30  C   UNL     1       5.377  12.653  -0.497  0.00  0.00    +0.045 C 
ENDBRANCH  19  27
ENDBRANCH  18  20
ENDBRANCH  17  18
ENDBRANCH   1  17
TORSDOF 5
