REMARK  Name = ZINC63515028
REMARK  9 active torsions:
REMARK  status: ('A' for Active; 'I' for Inactive)
REMARK    1  A    between atoms: C_1  and  C_2
REMARK    2  A    between atoms: C_4  and  S_13
REMARK    3  A    between atoms: C_7  and  N_8
REMARK    4  A    between atoms: S_13  and  N_16
REMARK    5  A    between atoms: N_16  and  C_17
REMARK    6  A    between atoms: C_17  and  C_18
REMARK    7  A    between atoms: C_18  and  C_19
REMARK    8  A    between atoms: C_22  and  O_28
REMARK    9  A    between atoms: O_28  and  C_29
REMARK                            x       y       z     vdW  Elec       q    Type
REMARK                         _______ _______ _______ _____ _____    ______ ____
ROOT
ATOM      1  S   UNL     1       0.029  -2.941  -2.738  0.00  0.00    +0.058 S 
ATOM      2  O   UNL     1      -0.503  -4.232  -2.474  0.00  0.00    -0.153 OA
ATOM      3  O   UNL     1      -0.539  -2.066  -3.703  0.00  0.00    -0.153 OA
ENDROOT
BRANCH   1   7
ATOM      4  C   UNL     1      -0.018   1.503   0.010  0.00  0.00    +0.046 C 
ATOM      5  C   UNL     1       0.002  -0.004   0.002  0.00  0.00    -0.026 A 
ATOM      6  C   UNL     1       0.006  -0.689  -1.197  0.00  0.00    +0.033 A 
ATOM      7  C   UNL     1       0.025  -2.071  -1.206  0.00  0.00    +0.106 A 
ATOM      8  C   UNL     1       0.040  -2.774  -0.014  0.00  0.00    +0.030 A 
ATOM      9  C   UNL     1       0.036  -2.096   1.188  0.00  0.00    +0.027 A 
ATOM     10  C   UNL     1       0.023  -0.706   1.201  0.00  0.00    +0.058 A 
BRANCH  10  11
ATOM     11  N   UNL     1       0.025  -0.017   2.415  0.00  0.00    -0.186 N 
ATOM     12  C   UNL     1       1.001  -0.152   3.512  0.00  0.00    +0.257 C 
ATOM     13  N   UNL     1       0.503   0.807   4.516  0.00  0.00    -0.230 N 
ATOM     14  N   UNL     1      -0.645   1.383   3.959  0.00  0.00    -0.064 NA
ATOM     15  N   UNL     1      -0.897   0.948   2.839  0.00  0.00    -0.057 NA
ATOM     16  H   UNL     1       0.890   0.999   5.385  0.00  0.00    +0.172 HD
ENDBRANCH  10  11
ENDBRANCH   1   7
BRANCH   1  17
ATOM     17  N   UNL     1       1.612  -3.161  -3.172  0.00  0.00    -0.190 NA
ATOM     18  H   UNL     1       1.960  -2.732  -3.969  0.00  0.00    +0.148 HD
BRANCH  17  19
ATOM     19  C   UNL     1       2.486  -4.003  -2.352  0.00  0.00    +0.110 C 
BRANCH  19  20
ATOM     20  C   UNL     1       3.751  -4.346  -3.141  0.00  0.00    +0.050 C 
BRANCH  20  21
ATOM     21  C   UNL     1       4.650  -5.213  -2.298  0.00  0.00    -0.040 C 
ATOM     22  C   UNL     1       4.720  -6.563  -2.307  0.00  0.00    +0.002 A 
ATOM     23  C   UNL     1       4.008  -7.591  -3.074  0.00  0.00    +0.055 A 
ATOM     24  C   UNL     1       4.295  -8.898  -2.864  0.00  0.00    +0.121 A 
ATOM     25  C   UNL     1       5.259  -9.314  -1.929  0.00  0.00    +0.047 A 
ATOM     26  C   UNL     1       5.965  -8.444  -1.177  0.00  0.00    +0.029 A 
ATOM     27  C   UNL     1       5.735  -7.003  -1.323  0.00  0.00    +0.043 A 
ATOM     28  N   UNL     1       6.271  -5.966  -0.729  0.00  0.00    -0.380 N 
ATOM     29  C   UNL     1       5.661  -4.748  -1.274  0.00  0.00    +0.144 C 
ATOM     30  H   UNL     1       6.959  -5.997  -0.046  0.00  0.00    +0.160 HD
BRANCH  24  31
ATOM     31  O   UNL     1       3.627  -9.840  -3.582  0.00  0.00    -0.495 OA
ATOM     32  C   UNL     1       3.961 -11.206  -3.328  0.00  0.00    +0.277 C 
ENDBRANCH  24  31
ENDBRANCH  20  21
ENDBRANCH  19  20
ENDBRANCH  17  19
ENDBRANCH   1  17
TORSDOF 7
