REMARK  Name = ZINC20733425
REMARK  12 active torsions:
REMARK  status: ('A' for Active; 'I' for Inactive)
REMARK    1  A    between atoms: C_1  and  C_2
REMARK    2  A    between atoms: C_3  and  N_9
REMARK    3  A    between atoms: N_9  and  C_10
REMARK    4  A    between atoms: C_10  and  N_12
REMARK    5  A    between atoms: N_12  and  C_13
REMARK    6  A    between atoms: N_12  and  C_21
REMARK    7  A    between atoms: C_13  and  C_14
REMARK    8  A    between atoms: C_14  and  C_15
REMARK    9  A    between atoms: C_15  and  N_16
REMARK   10  A    between atoms: C_21  and  C_22
REMARK   11  A    between atoms: N_26  and  C_27
REMARK   12  A    between atoms: C_27  and  C_28
REMARK                            x       y       z     vdW  Elec       q    Type
REMARK                         _______ _______ _______ _____ _____    ______ ____
ROOT
ATOM      1  N   UNL     1      -0.134   1.242  -0.019  0.00  0.00    -0.307 N 
ENDROOT
BRANCH   1   2
ATOM      2  C   UNL     1       0.076  -0.087   0.061  0.00  0.00    +0.137 C 
ATOM      3  S   UNL     1       1.666  -0.711  -0.056  0.00  0.00    -0.018 S 
BRANCH   2   4
ATOM      4  N   UNL     1      -0.966  -0.925   0.233  0.00  0.00    -0.296 N 
ATOM      5  H   UNL     1      -1.188  -1.328   1.232  0.00  0.00    +0.154 HD
BRANCH   4   8
ATOM      6  C   UNL     1      -3.015  -2.857   0.641  0.00  0.00    +0.047 C 
ATOM      7  C   UNL     1      -2.776  -2.221  -0.704  0.00  0.00    -0.011 A 
ATOM      8  C   UNL     1      -1.764  -1.282  -0.858  0.00  0.00    +0.037 A 
ATOM      9  C   UNL     1      -1.544  -0.701  -2.101  0.00  0.00    +0.023 A 
ATOM     10  C   UNL     1      -2.333  -1.055  -3.177  0.00  0.00    +0.003 A 
ATOM     11  C   UNL     1      -3.343  -1.987  -3.020  0.00  0.00    +0.020 A 
ATOM     12  C   UNL     1      -3.566  -2.567  -1.783  0.00  0.00    +0.046 A 
ATOM     13 CL   UNL     1      -4.834  -3.737  -1.590  0.00  0.00    -0.083 Cl
ENDBRANCH   4   8
ENDBRANCH   2   4
ENDBRANCH   1   2
BRANCH   1  14
ATOM     14  C   UNL     1       1.005   2.159  -0.107  0.00  0.00    +0.105 C 
BRANCH  14  15
ATOM     15  C   UNL     1       1.365   2.386  -1.576  0.00  0.00    +0.000 C 
BRANCH  15  16
ATOM     16  C   UNL     1       2.554   3.344  -1.668  0.00  0.00    -0.077 C 
BRANCH  16  17
ATOM     17  N   UNL     1       2.899   3.562  -3.079  0.00  0.00    +0.380 N 
ATOM     18  C   UNL     1       1.708   3.982  -3.860  0.00  0.00    -0.079 C 
ATOM     19  C   UNL     1       2.324   4.654  -5.113  0.00  0.00    -0.020 C 
ATOM     20  C   UNL     1       3.559   5.385  -4.541  0.00  0.00    -0.020 C 
ATOM     21  C   UNL     1       3.881   4.659  -3.221  0.00  0.00    -0.079 C 
ATOM     22  H   UNL     1       3.308   2.606  -3.439  0.00  0.00    -0.082 HD
ENDBRANCH  16  17
ENDBRANCH  15  16
ENDBRANCH  14  15
ENDBRANCH   1  14
BRANCH   1  23
ATOM     23  C   UNL     1      -1.501   1.768  -0.024  0.00  0.00    +0.160 C 
BRANCH  23  24
ATOM     24  C   UNL     1      -1.894   2.159   1.377  0.00  0.00    +0.036 A 
ATOM     25  C   UNL     1      -1.379   1.649   2.514  0.00  0.00    +0.024 A 
ATOM     26  C   UNL     1      -2.022   2.287   3.593  0.00  0.00    +0.019 A 
ATOM     27  C   UNL     1      -2.907   3.163   3.074  0.00  0.00    +0.086 A 
ATOM     28  N   UNL     1      -2.829   3.093   1.715  0.00  0.00    -0.345 N 
BRANCH  28  29
ATOM     29  C   UNL     1      -3.620   3.887   0.772  0.00  0.00    +0.156 C 
BRANCH  29  30
ATOM     30  C   UNL     1      -4.860   3.121   0.387  0.00  0.00    -0.028 A 
ATOM     31  C   UNL     1      -4.813   2.206  -0.649  0.00  0.00    +0.007 A 
ATOM     32  C   UNL     1      -5.947   1.499  -0.999  0.00  0.00    +0.020 A 
ATOM     33  C   UNL     1      -7.133   1.715  -0.320  0.00  0.00    +0.041 A 
ATOM     34  C   UNL     1      -7.181   2.635   0.713  0.00  0.00    +0.020 A 
ATOM     35  C   UNL     1      -6.045   3.337   1.066  0.00  0.00    +0.007 A 
ATOM     36 CL   UNL     1      -8.561   0.832  -0.763  0.00  0.00    -0.084 Cl
ENDBRANCH  29  30
ENDBRANCH  28  29
ENDBRANCH  23  24
ENDBRANCH   1  23
TORSDOF 11
