REMARK  Name = ZINC64623282
REMARK  12 active torsions:
REMARK  status: ('A' for Active; 'I' for Inactive)
REMARK    1  A    between atoms: C_1  and  C_2
REMARK    2  A    between atoms: C_2  and  O_3
REMARK    3  A    between atoms: O_3  and  C_4
REMARK    4  A    between atoms: C_4  and  C_6
REMARK    5  A    between atoms: C_8  and  S_12
REMARK    6  A    between atoms: N_10  and  C_11
REMARK    7  A    between atoms: S_12  and  N_15
REMARK    8  A    between atoms: C_19  and  C_21
REMARK    9  A    between atoms: N_23  and  C_24
REMARK   10  A    between atoms: C_24  and  C_25
REMARK   11  A    between atoms: C_25  and  C_26
REMARK   12  A    between atoms: C_32  and  C_36
REMARK                            x       y       z     vdW  Elec       q    Type
REMARK                         _______ _______ _______ _____ _____    ______ ____
ROOT
ATOM      1  N   UNL     1       1.559  -5.625  -5.888  0.00  0.00    -0.165 NA
ATOM      2  C   UNL     1       0.422  -6.497  -5.543  0.00  0.00    +0.110 C 
ATOM      3  C   UNL     1      -0.705  -6.084  -6.522  0.00  0.00    +0.019 C 
ATOM      4  C   UNL     1       0.098  -5.795  -7.818  0.00  0.00    +0.031 C 
ATOM      5  C   UNL     1       1.407  -5.179  -7.280  0.00  0.00    +0.165 C 
ENDROOT
BRANCH   5   6
ATOM      6  C   UNL     1       1.327  -3.675  -7.331  0.00  0.00    +0.232 C 
ATOM      7  O   UNL     1       1.391  -3.030  -6.306  0.00  0.00    -0.274 OA
ATOM      8  N   UNL     1       1.185  -3.047  -8.515  0.00  0.00    -0.314 N 
ATOM      9  H   UNL     1       1.134  -3.564  -9.335  0.00  0.00    +0.149 HD
BRANCH   8  10
ATOM     10  C   UNL     1       1.108  -1.585  -8.565  0.00  0.00    +0.108 C 
BRANCH  10  11
ATOM     11  C   UNL     1       0.950  -1.132 -10.017  0.00  0.00    +0.065 C 
BRANCH  11  12
ATOM     12  C   UNL     1       0.869   0.395 -10.069  0.00  0.00    +0.175 C 
ATOM     13  N   UNL     1      -0.312   0.863  -9.332  0.00  0.00    -0.363 N 
ATOM     14  C   UNL     1      -1.072   1.499 -10.176  0.00  0.00    +0.060 A 
ATOM     15  C   UNL     1      -2.366   2.181 -10.037  0.00  0.00    +0.027 A 
ATOM     16  C   UNL     1      -2.928   2.766 -11.113  0.00  0.00    +0.005 A 
ATOM     17  C   UNL     1      -2.325   2.756 -12.384  0.00  0.00    -0.048 A 
ATOM     18  C   UNL     1      -1.140   2.159 -12.621  0.00  0.00    +0.030 A 
ATOM     19  C   UNL     1      -0.434   1.487 -11.521  0.00  0.00    +0.060 A 
ATOM     20  N   UNL     1       0.698   0.844 -11.456  0.00  0.00    -0.363 N 
ATOM     21  C   UNL     1      -3.032   3.439 -13.526  0.00  0.00    +0.044 C 
ATOM     22  H   UNL     1      -0.493   0.723  -8.390  0.00  0.00    +0.162 HD
ATOM     23  H   UNL     1       1.314   0.691 -12.190  0.00  0.00    +0.162 HD
ENDBRANCH  11  12
ENDBRANCH  10  11
ENDBRANCH   8  10
ENDBRANCH   5   6
BRANCH   1  24
ATOM     24  S   UNL     1       2.800  -5.210  -4.872  0.00  0.00    +0.063 S 
ATOM     25  O   UNL     1       3.901  -4.858  -5.698  0.00  0.00    -0.153 OA
ATOM     26  O   UNL     1       2.881  -6.235  -3.891  0.00  0.00    -0.153 OA
BRANCH  24  29
ATOM     27  C   UNL     1       1.449  -2.344  -2.517  0.00  0.00    +0.129 A 
ATOM     28  C   UNL     1       1.624  -3.681  -2.813  0.00  0.00    +0.063 A 
ATOM     29  C   UNL     1       2.313  -3.742  -4.028  0.00  0.00    +0.124 A 
ATOM     30  C   UNL     1       2.542  -2.472  -4.441  0.00  0.00    +0.114 A 
ATOM     31  N   UNL     1       2.018  -1.616  -3.538  0.00  0.00    -0.343 N 
ATOM     32  C   UNL     1       2.053  -0.154  -3.627  0.00  0.00    +0.149 C 
BRANCH  27  33
ATOM     33  C   UNL     1       0.776  -1.800  -1.335  0.00  0.00    +0.356 C 
ATOM     34  O   UNL     1       0.312  -2.552  -0.499  0.00  0.00    -0.243 OA
BRANCH  33  35
ATOM     35  O   UNL     1       0.671  -0.465  -1.174  0.00  0.00    -0.460 OA
BRANCH  35  37
ATOM     36  C   UNL     1      -0.019   1.526   0.010  0.00  0.00    +0.048 C 
ATOM     37  C   UNL     1       0.002  -0.004   0.002  0.00  0.00    +0.229 C 
ENDBRANCH  35  37
ENDBRANCH  33  35
ENDBRANCH  27  33
ENDBRANCH  24  29
ENDBRANCH   1  24
TORSDOF 9
