REMARK  Name = ZINC67104888
REMARK  11 active torsions:
REMARK  status: ('A' for Active; 'I' for Inactive)
REMARK    1  A    between atoms: C_1  and  C_2
REMARK    2  A    between atoms: N_4  and  C_5
REMARK    3  A    between atoms: C_5  and  C_7
REMARK    4  A    between atoms: C_5  and  C_22
REMARK    5  A    between atoms: C_7  and  C_8
REMARK    6  A    between atoms: N_10  and  C_11
REMARK    7  A    between atoms: C_11  and  C_12
REMARK    8  A    between atoms: C_12  and  C_14
REMARK    9  A    between atoms: C_12  and  N_19
REMARK   10  A    between atoms: N_19  and  C_20
REMARK   11  A    between atoms: N_19  and  C_21
REMARK                            x       y       z     vdW  Elec       q    Type
REMARK                         _______ _______ _______ _____ _____    ______ ____
ROOT
ATOM      1  C   UNL     1       1.394  -2.905  -0.115  0.00  0.00    +0.123 C 
ENDROOT
BRANCH   1   2
ATOM      2  C   UNL     1       2.627  -2.461  -0.859  0.00  0.00    +0.215 C 
ATOM      3  O   UNL     1       2.522  -1.926  -1.942  0.00  0.00    -0.276 OA
ATOM      4  N   UNL     1       3.847  -2.660  -0.321  0.00  0.00    -0.316 N 
ATOM      5  H   UNL     1       3.931  -3.089   0.545  0.00  0.00    +0.149 HD
BRANCH   4   6
ATOM      6  C   UNL     1       5.046  -2.229  -1.045  0.00  0.00    +0.096 C 
BRANCH   6   7
ATOM      7  C   UNL     1       6.279  -2.454  -0.168  0.00  0.00    +0.016 C 
BRANCH   7   8
ATOM      8  C   UNL     1       6.468  -3.931   0.064  0.00  0.00    +0.093 A 
ATOM      9  C   UNL     1       7.339  -4.724  -0.586  0.00  0.00    +0.043 A 
ATOM     10  C   UNL     1       7.182  -6.026  -0.057  0.00  0.00    +0.041 A 
ATOM     11  C   UNL     1       6.225  -5.950   0.885  0.00  0.00    +0.195 A 
ATOM     12  O   UNL     1       5.800  -4.678   0.958  0.00  0.00    -0.469 OA
ENDBRANCH   7   8
BRANCH   7  13
ATOM     13  N   UNL     1       6.093  -1.776   1.122  0.00  0.00    +0.384 N 
ATOM     14  C   UNL     1       7.314  -1.913   1.927  0.00  0.00    -0.096 C 
ATOM     15  C   UNL     1       5.815  -0.352   0.891  0.00  0.00    -0.096 C 
ATOM     16  H   UNL     1       5.318  -2.195   1.613  0.00  0.00    -0.082 HD
ENDBRANCH   7  13
ENDBRANCH   6   7
ENDBRANCH   4   6
ENDBRANCH   1   2
BRANCH   1  17
ATOM     17  C   UNL     1       0.151  -2.564  -0.939  0.00  0.00    +0.117 C 
BRANCH  17  18
ATOM     18  C   UNL     1      -1.073  -3.116  -0.254  0.00  0.00    +0.043 A 
ATOM     19  C   UNL     1      -1.565  -2.502   0.885  0.00  0.00    +0.131 A 
ATOM     20  C   UNL     1      -2.689  -3.010   1.514  0.00  0.00    +0.039 A 
ATOM     21  C   UNL     1      -3.320  -4.130   1.004  0.00  0.00    +0.006 A 
ATOM     22  C   UNL     1      -2.829  -4.744  -0.132  0.00  0.00    +0.039 A 
ATOM     23  C   UNL     1      -1.708  -4.234  -0.766  0.00  0.00    +0.131 A 
ATOM     24  F   UNL     1      -1.232  -4.830  -1.881  0.00  0.00    -0.205 F 
ATOM     25  F   UNL     1      -0.948  -1.408   1.383  0.00  0.00    -0.205 F 
ENDBRANCH  17  18
BRANCH  17  29
ATOM     26  C   UNL     1      -0.919   0.915  -2.119  0.00  0.00    +0.109 C 
ATOM     27  C   UNL     1      -0.701  -0.575  -2.059  0.00  0.00    +0.210 C 
ATOM     28  O   UNL     1      -1.183  -1.293  -2.909  0.00  0.00    -0.276 OA
ATOM     29  N   UNL     1       0.029  -1.109  -1.060  0.00  0.00    -0.308 N 
ATOM     30  H   UNL     1       0.473  -0.530  -0.420  0.00  0.00    +0.149 HD
ENDBRANCH  17  29
ENDBRANCH   1  17
TORSDOF 8
