REMARK  Name = ZINC65918776
REMARK  9 active torsions:
REMARK  status: ('A' for Active; 'I' for Inactive)
REMARK    1  A    between atoms: C_1  and  C_2
REMARK    2  A    between atoms: C_2  and  C_3
REMARK    3  A    between atoms: C_3  and  C_4
REMARK    4  A    between atoms: C_3  and  C_5
REMARK    5  A    between atoms: C_5  and  C_6
REMARK    6  A    between atoms: C_5  and  N_18
REMARK    7  A    between atoms: N_8  and  N_9
REMARK    8  A    between atoms: N_12  and  C_13
REMARK    9  A    between atoms: C_19  and  C_21
REMARK                            x       y       z     vdW  Elec       q    Type
REMARK                         _______ _______ _______ _____ _____    ______ ____
ROOT
ATOM      1  C   UNL     1      -2.074  -0.117  -1.344  0.00  0.00    +0.163 C 
ENDROOT
BRANCH   1   2
ATOM      2  C   UNL     1      -3.341  -0.930  -1.418  0.00  0.00    +0.250 C 
ATOM      3  O   UNL     1      -4.392  -0.391  -1.691  0.00  0.00    -0.272 OA
ATOM      4  N   UNL     1      -3.305  -2.256  -1.181  0.00  0.00    -0.232 N 
ATOM      5  H   UNL     1      -2.480  -2.675  -0.892  0.00  0.00    +0.173 HD
BRANCH   4   6
ATOM      6  N   UNL     1      -4.461  -3.030  -1.352  0.00  0.00    -0.218 N 
ATOM      7  C   UNL     1      -4.426  -4.356  -1.115  0.00  0.00    +0.316 C 
ATOM      8  O   UNL     1      -5.428  -5.027  -1.263  0.00  0.00    -0.251 OA
ATOM      9  N   UNL     1      -3.278  -4.938  -0.713  0.00  0.00    -0.295 N 
ATOM     10  H   UNL     1      -5.287  -2.611  -1.641  0.00  0.00    +0.174 HD
ATOM     11  H   UNL     1      -2.478  -4.403  -0.595  0.00  0.00    +0.151 HD
BRANCH   9  12
ATOM     12  C   UNL     1      -3.240  -6.380  -0.455  0.00  0.00    +0.074 C 
ATOM     13  C   UNL     1      -2.916  -7.141  -1.757  0.00  0.00    +0.022 C 
ATOM     14  C   UNL     1      -1.384  -7.363  -1.696  0.00  0.00    +0.002 C 
ATOM     15  C   UNL     1      -1.141  -7.657  -0.195  0.00  0.00    +0.002 C 
ATOM     16  C   UNL     1      -2.111  -6.708   0.538  0.00  0.00    +0.022 C 
ENDBRANCH   9  12
ENDBRANCH   4   6
ENDBRANCH   1   2
BRANCH   1  17
ATOM     17  N   UNL     1      -2.378   1.288  -1.626  0.00  0.00    -0.300 N 
ATOM     18  C   UNL     1      -1.466   2.065  -2.243  0.00  0.00    +0.245 C 
ATOM     19  O   UNL     1      -0.430   1.577  -2.651  0.00  0.00    -0.270 OA
ATOM     20  H   UNL     1      -3.236   1.659  -1.367  0.00  0.00    +0.150 HD
BRANCH  18  21
ATOM     21  C   UNL     1      -1.725   3.508  -2.423  0.00  0.00    +0.037 A 
ATOM     22  C   UNL     1      -2.912   4.072  -1.950  0.00  0.00    +0.014 A 
ATOM     23  C   UNL     1      -3.148   5.419  -2.121  0.00  0.00    +0.021 A 
ATOM     24  C   UNL     1      -2.211   6.214  -2.761  0.00  0.00    +0.041 A 
ATOM     25  C   UNL     1      -1.032   5.661  -3.232  0.00  0.00    +0.021 A 
ATOM     26  C   UNL     1      -0.782   4.315  -3.062  0.00  0.00    +0.014 A 
ATOM     27 CL   UNL     1      -2.516   7.910  -2.973  0.00  0.00    -0.084 Cl
ENDBRANCH  18  21
ENDBRANCH   1  17
BRANCH   1  28
ATOM     28  C   UNL     1      -1.472  -0.238   0.057  0.00  0.00    +0.015 C 
ATOM     29  C   UNL     1      -0.104   0.447   0.085  0.00  0.00    +0.010 C 
BRANCH  28  31
ATOM     30  C   UNL     1      -3.691  -0.377   1.196  0.00  0.00    +0.004 C 
ATOM     31  C   UNL     1      -2.400   0.434   1.071  0.00  0.00    +0.002 C 
ENDBRANCH  28  31
ENDBRANCH   1  28
TORSDOF 7
