REMARK  Name = ZINC59121031
REMARK  9 active torsions:
REMARK  status: ('A' for Active; 'I' for Inactive)
REMARK    1  A    between atoms: C_1  and  C_2
REMARK    2  A    between atoms: C_2  and  C_3
REMARK    3  A    between atoms: C_6  and  C_9
REMARK    4  A    between atoms: N_11  and  C_31
REMARK    5  A    between atoms: N_15  and  C_24
REMARK    6  A    between atoms: C_17  and  C_19
REMARK    7  A    between atoms: C_19  and  O_21
REMARK    8  A    between atoms: O_21  and  C_22
REMARK    9  A    between atoms: C_22  and  C_23
REMARK                            x       y       z     vdW  Elec       q    Type
REMARK                         _______ _______ _______ _____ _____    ______ ____
ROOT
ATOM      1  C   UNL     1       2.746  -1.836   4.794  0.00  0.00    +0.089 C 
ATOM      2  N   UNL     1       4.043  -1.992   4.693  0.00  0.00    -0.176 NA
ATOM      3  N   UNL     1       4.745  -2.576   5.766  0.00  0.00    -0.185 N 
ATOM      4  C   UNL     1       4.038  -3.515   6.626  0.00  0.00    +0.214 C 
ATOM      5  C   UNL     1       2.639  -3.056   6.895  0.00  0.00    +0.036 C 
ATOM      6  C   UNL     1       2.035  -2.252   6.016  0.00  0.00    +0.030 C 
ATOM      7  N   UNL     1       4.775  -3.786   7.866  0.00  0.00    -0.184 N 
ATOM      8  N   UNL     1       5.178  -5.096   8.033  0.00  0.00    -0.163 NA
ATOM      9  C   UNL     1       4.927  -6.033   7.158  0.00  0.00    +0.203 C 
ATOM     10  S   UNL     1       4.026  -5.184   5.868  0.00  0.00    -0.044 S 
ENDROOT
BRANCH   7  11
ATOM     11  C   UNL     1       5.049  -2.792   8.807  0.00  0.00    +0.055 A 
ATOM     12  C   UNL     1       4.615  -1.490   8.591  0.00  0.00    +0.026 A 
ATOM     13  C   UNL     1       4.887  -0.509   9.524  0.00  0.00    +0.022 A 
ATOM     14  C   UNL     1       5.592  -0.822  10.674  0.00  0.00    +0.041 A 
ATOM     15  C   UNL     1       6.025  -2.118  10.892  0.00  0.00    +0.022 A 
ATOM     16  C   UNL     1       5.751  -3.104   9.966  0.00  0.00    +0.026 A 
ATOM     17 CL   UNL     1       5.933   0.414  11.844  0.00  0.00    -0.084 Cl
ENDBRANCH   7  11
BRANCH   1  21
ATOM     18  C   UNL     1       0.574  -0.101   1.580  0.00  0.00    -0.048 A 
ATOM     19  C   UNL     1       1.943  -0.271   1.474  0.00  0.00    +0.004 A 
ATOM     20  C   UNL     1       2.654  -0.834   2.514  0.00  0.00    +0.010 A 
ATOM     21  C   UNL     1       1.989  -1.231   3.674  0.00  0.00    +0.002 A 
ATOM     22  C   UNL     1       0.609  -1.056   3.775  0.00  0.00    +0.010 A 
ATOM     23  C   UNL     1      -0.090  -0.487   2.730  0.00  0.00    +0.004 A 
BRANCH  18  25
ATOM     24  C   UNL     1      -0.244   2.033   0.617  0.00  0.00    +0.009 C 
ATOM     25  C   UNL     1      -0.196   0.514   0.440  0.00  0.00    +0.032 C 
ENDBRANCH  18  25
ENDBRANCH   1  21
BRANCH   3  26
ATOM     26  C   UNL     1       6.083  -2.261   6.000  0.00  0.00    +0.055 A 
ATOM     27  C   UNL     1       7.011  -3.275   6.206  0.00  0.00    +0.025 A 
ATOM     28  C   UNL     1       8.336  -2.959   6.437  0.00  0.00    +0.002 A 
ATOM     29  C   UNL     1       8.739  -1.637   6.464  0.00  0.00    +0.000 A 
ATOM     30  C   UNL     1       7.818  -0.625   6.259  0.00  0.00    +0.002 A 
ATOM     31  C   UNL     1       6.493  -0.933   6.022  0.00  0.00    +0.025 A 
ENDBRANCH   3  26
BRANCH   9  32
ATOM     32  C   UNL     1       5.299  -7.451   7.219  0.00  0.00    +0.366 C 
ATOM     33  O   UNL     1       4.987  -8.201   6.314  0.00  0.00    -0.243 OA
BRANCH  32  34
ATOM     34  O   UNL     1       5.986  -7.923   8.280  0.00  0.00    -0.460 OA
BRANCH  34  35
ATOM     35  C   UNL     1       6.314  -9.314   8.273  0.00  0.00    +0.229 C 
ATOM     36  C   UNL     1       7.086  -9.662   9.547  0.00  0.00    +0.048 C 
ENDBRANCH  34  35
ENDBRANCH  32  34
ENDBRANCH   9  32
TORSDOF 7
