REMARK  Name = ZINC59488831
REMARK  6 active torsions:
REMARK  status: ('A' for Active; 'I' for Inactive)
REMARK    1  A    between atoms: N_10  and  N_11
REMARK    2  A    between atoms: C_12  and  C_13
REMARK    3  A    between atoms: C_16  and  N_22
REMARK    4  A    between atoms: C_17  and  N_19
REMARK    5  A    between atoms: N_25  and  C_28
REMARK    6  A    between atoms: C_28  and  C_29
REMARK                            x       y       z     vdW  Elec       q    Type
REMARK                         _______ _______ _______ _____ _____    ______ ____
ROOT
ATOM      1  C   UNL     1       6.024  -6.119  -0.117  0.00  0.00    -0.003 A 
ATOM      2  C   UNL     1       6.548  -7.415  -0.105  0.00  0.00    +0.011 A 
ATOM      3  C   UNL     1       7.912  -7.605  -0.092  0.00  0.00    +0.026 A 
ATOM      4  C   UNL     1       8.768  -6.509  -0.090  0.00  0.00    +0.060 A 
ATOM      5  C   UNL     1       8.251  -5.218  -0.103  0.00  0.00    +0.148 A 
ATOM      6  C   UNL     1       6.888  -5.021  -0.122  0.00  0.00    +0.044 A 
ENDROOT
BRANCH   4   7
ATOM      7  N   UNL     1      10.149  -6.706  -0.076  0.00  0.00    -0.326 N 
ATOM      8  C   UNL     1      10.896  -6.909  -1.327  0.00  0.00    +0.120 C 
ATOM      9  C   UNL     1      11.757  -8.168  -1.181  0.00  0.00    +0.103 C 
ATOM     10  N   UNL     1      12.587  -8.052   0.025  0.00  0.00    -0.295 NA
ATOM     11  C   UNL     1      11.759  -7.981   1.237  0.00  0.00    +0.103 C 
ATOM     12  C   UNL     1      10.899  -6.709   1.189  0.00  0.00    +0.120 C 
BRANCH  10  13
ATOM     13  C   UNL     1      13.550  -9.158   0.110  0.00  0.00    +0.119 C 
BRANCH  13  14
ATOM     14  C   UNL     1      14.539  -8.880   1.212  0.00  0.00    -0.030 A 
ATOM     15  C   UNL     1      15.703  -8.185   0.937  0.00  0.00    +0.009 A 
ATOM     16  C   UNL     1      16.612  -7.927   1.946  0.00  0.00    +0.050 A 
ATOM     17  C   UNL     1      16.360  -8.365   3.236  0.00  0.00    +0.166 A 
ATOM     18  C   UNL     1      15.188  -9.065   3.513  0.00  0.00    +0.167 A 
ATOM     19  C   UNL     1      14.278  -9.315   2.498  0.00  0.00    +0.054 A 
ATOM     20  O   UNL     1      15.173  -9.382   4.840  0.00  0.00    -0.453 OA
ATOM     21  C   UNL     1      16.533  -9.228   5.288  0.00  0.00    +0.466 C 
ATOM     22  O   UNL     1      17.079  -8.244   4.389  0.00  0.00    -0.453 OA
ENDBRANCH  13  14
ENDBRANCH  10  13
ENDBRANCH   4   7
BRANCH   5  23
ATOM     23  N   UNL     1       9.168  -4.054  -0.101  0.00  0.00    +0.058 N 
ATOM     24  O   UNL     1       8.722  -2.934  -0.011  0.00  0.00    -0.126 OA
ATOM     25  O   UNL     1      10.361  -4.225  -0.189  0.00  0.00    -0.126 OA
ENDBRANCH   5  23
BRANCH   1  27
ATOM     26  N   UNL     1       3.764  -6.934  -0.127  0.00  0.00    -0.188 NA
ATOM     27  C   UNL     1       4.565  -5.912  -0.131  0.00  0.00    +0.138 C 
BRANCH  26  37
ATOM     28  C   UNL     1      -2.469 -10.395  -0.142  0.00  0.00    +0.002 A 
ATOM     29  C   UNL     1      -1.689 -11.542  -0.124  0.00  0.00    +0.001 A 
ATOM     30  C   UNL     1      -0.311 -11.425  -0.114  0.00  0.00    +0.017 A 
ATOM     31  C   UNL     1       0.263 -10.179  -0.122  0.00  0.00    +0.041 A 
ATOM     32  C   UNL     1      -0.498  -8.988  -0.141  0.00  0.00    +0.080 A 
ATOM     33  C   UNL     1      -1.904  -9.146  -0.150  0.00  0.00    +0.029 A 
ATOM     34  N   UNL     1       0.211  -7.840  -0.147  0.00  0.00    -0.224 NA
ATOM     35  C   UNL     1       1.526  -7.822  -0.136  0.00  0.00    +0.179 A 
ATOM     36  S   UNL     1       1.929  -9.563  -0.115  0.00  0.00    -0.051 S 
ATOM     37  N   UNL     1       2.377  -6.736  -0.141  0.00  0.00    -0.215 N 
ATOM     38  H   UNL     1       2.015  -5.837  -0.153  0.00  0.00    +0.176 HD
ENDBRANCH  26  37
ENDBRANCH   1  27
TORSDOF 6
