REMARK  Name = ZINC11998428
REMARK  7 active torsions:
REMARK  status: ('A' for Active; 'I' for Inactive)
REMARK    1  A    between atoms: C_3  and  C_6
REMARK    2  A    between atoms: C_6  and  C_8
REMARK    3  A    between atoms: C_6  and  N_59
REMARK    4  A    between atoms: C_8  and  N_9
REMARK    5  A    between atoms: N_9  and  S_10
REMARK    6  A    between atoms: S_10  and  C_13
REMARK    7  A    between atoms: C_16  and  N_19
REMARK                            x       y       z     vdW  Elec       q    Type
REMARK                         _______ _______ _______ _____ _____    ______ ____
ROOT
ATOM      1  N   UNL     1       0.455   3.929  -0.400  0.00  0.00    -0.191 NA
ATOM      2  H   UNL     1       1.233   3.388  -0.607  0.00  0.00    +0.148 HD
ENDROOT
BRANCH   1   3
ATOM      3  S   UNL     1       0.626   5.552  -0.117  0.00  0.00    +0.058 S 
ATOM      4  O   UNL     1       2.014   5.838  -0.223  0.00  0.00    -0.153 OA
ATOM      5  O   UNL     1      -0.350   6.208  -0.915  0.00  0.00    -0.153 OA
BRANCH   3   6
ATOM      6  C   UNL     1       0.179   5.838   1.563  0.00  0.00    +0.105 A 
ATOM      7  C   UNL     1      -1.132   6.134   1.887  0.00  0.00    +0.030 A 
ATOM      8  C   UNL     1      -1.487   6.354   3.203  0.00  0.00    +0.027 A 
ATOM      9  C   UNL     1      -0.523   6.288   4.201  0.00  0.00    +0.059 A 
ATOM     10  C   UNL     1       0.794   5.996   3.871  0.00  0.00    +0.027 A 
ATOM     11  C   UNL     1       1.141   5.772   2.554  0.00  0.00    +0.030 A 
BRANCH   9  12
ATOM     12  N   UNL     1      -0.878   6.515   5.535  0.00  0.00    -0.144 N 
ATOM     13  C   UNL     1      -0.235   6.045   6.614  0.00  0.00    +0.240 C 
ATOM     14  O   UNL     1       0.771   5.378   6.495  0.00  0.00    -0.274 OA
ATOM     15  C   UNL     1      -0.785   6.366   7.971  0.00  0.00    +0.122 C 
ATOM     16  C   UNL     1      -1.744   7.579   7.845  0.00  0.00    +0.198 C 
ATOM     17  S   UNL     1      -2.186   7.416   6.067  0.00  0.00    +0.052 S 
ATOM     18  O   UNL     1      -2.085   8.668   5.402  0.00  0.00    -0.155 OA
ATOM     19  O   UNL     1      -3.322   6.579   5.901  0.00  0.00    -0.155 OA
ENDBRANCH   9  12
ENDBRANCH   3   6
ENDBRANCH   1   3
BRANCH   1  20
ATOM     20  C   UNL     1      -0.872   3.311  -0.337  0.00  0.00    +0.098 C 
BRANCH  20  21
ATOM     21  C   UNL     1      -0.817   1.922  -0.977  0.00  0.00    +0.015 C 
BRANCH  21  28
ATOM     22  C   UNL     1       0.646  -0.007  -1.193  0.00  0.00    -0.078 C 
ATOM     23  C   UNL     1       1.520  -0.998  -0.475  0.00  0.00    -0.019 C 
ATOM     24  C   UNL     1       0.623  -2.116   0.097  0.00  0.00    -0.002 C 
ATOM     25  C   UNL     1      -0.055  -1.706   1.322  0.00  0.00    -0.002 C 
ATOM     26  C   UNL     1      -0.987  -0.497   1.095  0.00  0.00    -0.019 C 
ATOM     27  C   UNL     1      -0.147   0.750   1.044  0.00  0.00    -0.078 C 
ATOM     28  N   UNL     1       0.274   1.170  -0.336  0.00  0.00    +0.387 N 
ATOM     29  H   UNL     1       1.093   1.782  -0.253  0.00  0.00    -0.081 HD
ENDBRANCH  21  28
BRANCH  21  32
ATOM     30  C   UNL     1      -4.021   0.109  -1.152  0.00  0.00    +0.041 A 
ATOM     31  C   UNL     1      -2.846   0.608  -1.759  0.00  0.00    +0.043 A 
ATOM     32  C   UNL     1      -2.145   1.233  -0.795  0.00  0.00    +0.093 A 
ATOM     33  O   UNL     1      -2.827   1.133   0.357  0.00  0.00    -0.469 OA
ATOM     34  C   UNL     1      -3.968   0.458   0.146  0.00  0.00    +0.195 A 
ENDBRANCH  21  32
ENDBRANCH  20  21
ENDBRANCH   1  20
TORSDOF 7
