REMARK  Name = ZINC12421624
REMARK  5 active torsions:
REMARK  status: ('A' for Active; 'I' for Inactive)
REMARK    1  A    between atoms: C_1  and  O_2
REMARK    2  A    between atoms: O_2  and  C_3
REMARK    3  A    between atoms: C_6  and  N_9
REMARK    4  A    between atoms: N_19  and  C_22
REMARK    5  A    between atoms: C_25  and  N_28
REMARK                            x       y       z     vdW  Elec       q    Type
REMARK                         _______ _______ _______ _____ _____    ______ ____
ROOT
ATOM      1  N   UNL     1       2.411   1.097  -0.185  0.00  0.00    -0.276 N 
ATOM      2  C   UNL     1       3.724   1.734   0.004  0.00  0.00    +0.124 C 
ATOM      3  C   UNL     1       3.668   2.644   1.250  0.00  0.00    +0.190 C 
ATOM      4  S   UNL     1       4.270   1.514   2.566  0.00  0.00    -0.027 S 
ATOM      5  O   UNL     1       3.198   0.690   3.005  0.00  0.00    -0.174 OA
ATOM      6  O   UNL     1       5.025   2.254   3.516  0.00  0.00    -0.174 OA
ATOM      7  C   UNL     1       5.416   0.519   1.516  0.00  0.00    +0.190 C 
ATOM      8  C   UNL     1       4.691   0.556   0.154  0.00  0.00    +0.124 C 
ATOM      9  N   UNL     1       3.830  -0.631   0.035  0.00  0.00    -0.276 N 
ATOM     10  C   UNL     1       2.563  -0.234  -0.149  0.00  0.00    +0.145 C 
ATOM     11  S   UNL     1       1.258  -1.329  -0.326  0.00  0.00    -0.018 S 
ENDROOT
BRANCH   1  15
ATOM     12  C   UNL     1      -1.201   3.108  -0.727  0.00  0.00    +0.120 A 
ATOM     13  C   UNL     1      -0.213   3.183  -1.698  0.00  0.00    +0.047 A 
ATOM     14  C   UNL     1       0.982   2.513  -1.522  0.00  0.00    +0.027 A 
ATOM     15  C   UNL     1       1.197   1.772  -0.367  0.00  0.00    +0.036 A 
ATOM     16  C   UNL     1       0.210   1.701   0.606  0.00  0.00    +0.027 A 
ATOM     17  C   UNL     1      -0.986   2.368   0.426  0.00  0.00    +0.047 A 
BRANCH  12  19
ATOM     18  C   UNL     1      -2.532   4.507  -2.115  0.00  0.00    +0.277 C 
ATOM     19  O   UNL     1      -2.379   3.764  -0.904  0.00  0.00    -0.495 OA
ENDBRANCH  12  19
ENDBRANCH   1  15
BRANCH   9  20
ATOM     20  C   UNL     1       4.263  -1.959   0.107  0.00  0.00    +0.036 A 
ATOM     21  C   UNL     1       5.077  -2.481  -0.889  0.00  0.00    +0.026 A 
ATOM     22  C   UNL     1       5.508  -3.791  -0.811  0.00  0.00    +0.034 A 
ATOM     23  C   UNL     1       5.119  -4.586   0.251  0.00  0.00    +0.126 A 
ATOM     24  C   UNL     1       4.303  -4.072   1.242  0.00  0.00    +0.034 A 
ATOM     25  C   UNL     1       3.874  -2.761   1.173  0.00  0.00    +0.026 A 
BRANCH  23  26
ATOM     26  N   UNL     1       5.577  -5.992   0.328  0.00  0.00    +0.056 N 
ATOM     27  O   UNL     1       5.236  -6.693   1.263  0.00  0.00    -0.126 OA
ATOM     28  O   UNL     1       6.296  -6.446  -0.544  0.00  0.00    -0.126 OA
ENDBRANCH  23  26
ENDBRANCH   9  20
TORSDOF 4
