REMARK  Name = ZINC35774555
REMARK  13 active torsions:
REMARK  status: ('A' for Active; 'I' for Inactive)
REMARK    1  A    between atoms: C_1  and  C_2
REMARK    2  A    between atoms: C_6  and  C_7
REMARK    3  A    between atoms: C_7  and  N_8
REMARK    4  A    between atoms: N_8  and  C_9
REMARK    5  A    between atoms: C_9  and  C_10
REMARK    6  A    between atoms: C_16  and  C_18
REMARK    7  A    between atoms: C_18  and  N_19
REMARK    8  A    between atoms: N_19  and  C_20
REMARK    9  A    between atoms: C_20  and  C_21
REMARK   10  A    between atoms: C_21  and  N_22
REMARK   11  A    between atoms: C_27  and  C_29
REMARK   12  A    between atoms: C_29  and  S_30
REMARK   13  A    between atoms: S_30  and  C_31
REMARK                            x       y       z     vdW  Elec       q    Type
REMARK                         _______ _______ _______ _____ _____    ______ ____
ROOT
ATOM      1  N   UNL     1      -2.942   3.028   1.910  0.00  0.00    -0.294 N 
ATOM      2  C   UNL     1      -3.730   3.055   0.818  0.00  0.00    +0.226 C 
ATOM      3  O   UNL     1      -3.561   2.249  -0.073  0.00  0.00    -0.275 OA
ENDROOT
BRANCH   1   4
ATOM      4  C   UNL     1      -1.880   2.026   2.023  0.00  0.00    +0.203 C 
BRANCH   4   6
ATOM      5  N   UNL     1      -1.597  -0.230   2.998  0.00  0.00    -0.291 N 
ATOM      6  C   UNL     1      -2.423   0.791   2.695  0.00  0.00    +0.234 C 
ATOM      7  O   UNL     1      -3.604   0.717   2.963  0.00  0.00    -0.274 OA
BRANCH   5   8
ATOM      8  C   UNL     1      -0.196  -0.190   2.572  0.00  0.00    +0.150 C 
BRANCH   8  14
ATOM      9  C   UNL     1       0.061  -3.129   1.716  0.00  0.00    +0.044 C 
ATOM     10  C   UNL     1       0.030  -1.989   0.730  0.00  0.00    -0.039 A 
ATOM     11  C   UNL     1       0.113  -2.234  -0.627  0.00  0.00    +0.011 A 
ATOM     12  C   UNL     1       0.083  -1.187  -1.487  0.00  0.00    +0.046 A 
ATOM     13  S   UNL     1      -0.067   0.201  -0.374  0.00  0.00    -0.100 S 
ATOM     14  C   UNL     1      -0.084  -0.710   1.162  0.00  0.00    +0.010 A 
ENDBRANCH   8  14
ENDBRANCH   5   8
BRANCH   5  15
ATOM     15  C   UNL     1      -2.101  -1.380   3.752  0.00  0.00    +0.143 C 
BRANCH  15  16
ATOM     16  C   UNL     1      -1.923  -1.130   5.228  0.00  0.00    -0.030 A 
ATOM     17  C   UNL     1      -0.754  -1.515   5.858  0.00  0.00    +0.005 A 
ATOM     18  C   UNL     1      -0.591  -1.285   7.211  0.00  0.00    +0.000 A 
ATOM     19  C   UNL     1      -1.596  -0.670   7.934  0.00  0.00    +0.000 A 
ATOM     20  C   UNL     1      -2.764  -0.285   7.304  0.00  0.00    +0.000 A 
ATOM     21  C   UNL     1      -2.926  -0.510   5.950  0.00  0.00    +0.005 A 
ENDBRANCH  15  16
ENDBRANCH   5  15
ENDBRANCH   4   6
ENDBRANCH   1   4
BRANCH   1  22
ATOM     22  C   UNL     1      -3.147   4.002   2.986  0.00  0.00    +0.090 C 
BRANCH  22  23
ATOM     23  C   UNL     1      -2.297   5.245   2.717  0.00  0.00    -0.060 C 
BRANCH  23  24
ATOM     24  N   UNL     1      -2.502   6.221   3.795  0.00  0.00    +0.381 N 
ATOM     25  C   UNL     1      -1.917   5.715   5.063  0.00  0.00    -0.079 C 
ATOM     26  C   UNL     1      -1.703   7.005   5.894  0.00  0.00    -0.020 C 
ATOM     27  C   UNL     1      -1.261   8.034   4.829  0.00  0.00    -0.020 C 
ATOM     28  C   UNL     1      -1.782   7.477   3.491  0.00  0.00    -0.079 C 
ATOM     29  H   UNL     1      -3.487   6.406   3.915  0.00  0.00    -0.082 HD
ENDBRANCH  23  24
ENDBRANCH  22  23
ENDBRANCH   1  22
BRANCH   2  30
ATOM     30  C   UNL     1      -4.823   4.087   0.702  0.00  0.00    +0.170 C 
BRANCH  30  31
ATOM     31  S   UNL     1      -5.701   3.864  -0.870  0.00  0.00    -0.116 S 
BRANCH  31  32
ATOM     32  C   UNL     1      -6.930   5.127  -0.854  0.00  0.00    +0.008 A 
ATOM     33  C   UNL     1      -7.021   5.997   0.226  0.00  0.00    +0.015 A 
ATOM     34  C   UNL     1      -7.985   6.985   0.234  0.00  0.00    +0.001 A 
ATOM     35  C   UNL     1      -8.859   7.110  -0.830  0.00  0.00    +0.000 A 
ATOM     36  C   UNL     1      -8.772   6.246  -1.907  0.00  0.00    +0.001 A 
ATOM     37  C   UNL     1      -7.806   5.259  -1.925  0.00  0.00    +0.015 A 
ENDBRANCH  31  32
ENDBRANCH  30  31
ENDBRANCH   2  30
TORSDOF 12
