REMARK  Name = ZINC35455250
REMARK  14 active torsions:
REMARK  status: ('A' for Active; 'I' for Inactive)
REMARK    1  A    between atoms: C_1  and  C_2
REMARK    2  A    between atoms: C_2  and  C_3
REMARK    3  A    between atoms: N_5  and  C_6
REMARK    4  A    between atoms: N_5  and  C_32
REMARK    5  A    between atoms: C_6  and  C_7
REMARK    6  A    between atoms: N_11  and  C_12
REMARK    7  A    between atoms: C_12  and  C_13
REMARK    8  A    between atoms: C_15  and  C_18
REMARK    9  A    between atoms: N_20  and  C_21
REMARK   10  A    between atoms: C_21  and  C_22
REMARK   11  A    between atoms: C_22  and  C_23
REMARK   12  A    between atoms: C_23  and  N_24
REMARK   13  A    between atoms: C_29  and  C_31
REMARK   14  A    between atoms: C_32  and  C_33
REMARK                            x       y       z     vdW  Elec       q    Type
REMARK                         _______ _______ _______ _____ _____    ______ ____
ROOT
ATOM      1  C   UNL     1      -2.739   0.715  -1.944  0.00  0.00    +0.216 A 
ATOM      2  N   UNL     1      -2.536   1.381  -3.041  0.00  0.00    -0.207 NA
ATOM      3  C   UNL     1      -1.271   1.881  -3.014  0.00  0.00    +0.164 A 
ATOM      4  C   UNL     1      -0.709   1.485  -1.839  0.00  0.00    +0.230 A 
ATOM      5  O   UNL     1      -1.636   0.766  -1.185  0.00  0.00    -0.445 OA
ENDROOT
BRANCH   3   6
ATOM      6  C   UNL     1      -0.629   2.699  -4.059  0.00  0.00    +0.266 C 
ATOM      7  O   UNL     1       0.514   3.086  -3.913  0.00  0.00    -0.268 OA
ATOM      8  N   UNL     1      -1.310   3.017  -5.178  0.00  0.00    -0.310 N 
ATOM      9  H   UNL     1      -2.222   2.709  -5.295  0.00  0.00    +0.149 HD
BRANCH   8  10
ATOM     10  C   UNL     1      -0.673   3.829  -6.217  0.00  0.00    +0.103 C 
BRANCH  10  11
ATOM     11  C   UNL     1      -1.655   4.044  -7.371  0.00  0.00    +0.000 C 
BRANCH  11  12
ATOM     12  C   UNL     1      -0.989   4.893  -8.456  0.00  0.00    -0.077 C 
BRANCH  12  13
ATOM     13  N   UNL     1      -1.931   5.099  -9.564  0.00  0.00    +0.381 N 
ATOM     14  C   UNL     1      -3.075   5.887  -9.090  0.00  0.00    -0.078 C 
ATOM     15  C   UNL     1      -4.099   6.036 -10.218  0.00  0.00    -0.019 C 
ATOM     16  C   UNL     1      -3.443   6.747 -11.405  0.00  0.00    -0.003 C 
ATOM     17  C   UNL     1      -2.208   5.955 -11.843  0.00  0.00    -0.016 C 
ATOM     18  C   UNL     1      -1.254   5.809 -10.655  0.00  0.00    -0.072 C 
ATOM     19  C   UNL     1      -0.018   5.019 -11.088  0.00  0.00    -0.013 C 
ATOM     20  H   UNL     1      -2.257   4.204  -9.898  0.00  0.00    -0.081 HD
ENDBRANCH  12  13
ENDBRANCH  11  12
ENDBRANCH  10  11
ENDBRANCH   8  10
ENDBRANCH   3   6
BRANCH   1  21
ATOM     21  C   UNL     1      -4.016   0.002  -1.580  0.00  0.00    +0.217 C 
BRANCH  21  26
ATOM     22  C   UNL     1      -3.370  -2.401  -1.205  0.00  0.00    +0.037 A 
ATOM     23  C   UNL     1      -3.465  -3.557  -1.892  0.00  0.00    +0.024 A 
ATOM     24  C   UNL     1      -4.086  -3.267  -3.122  0.00  0.00    +0.019 A 
ATOM     25  C   UNL     1      -4.348  -1.944  -3.141  0.00  0.00    +0.086 A 
ATOM     26  N   UNL     1      -3.915  -1.408  -1.964  0.00  0.00    -0.340 N 
BRANCH  22  27
ATOM     27  C   UNL     1      -2.770  -2.235   0.168  0.00  0.00    +0.161 C 
BRANCH  27  30
ATOM     28  C   UNL     1      -1.914  -4.439   0.754  0.00  0.00    +0.216 C 
ATOM     29  O   UNL     1      -0.928  -4.204   0.088  0.00  0.00    -0.276 OA
ATOM     30  N   UNL     1      -2.869  -3.500   0.900  0.00  0.00    -0.293 N 
BRANCH  28  32
ATOM     31  C   UNL     1      -0.801  -6.610   1.203  0.00  0.00    +0.013 C 
ATOM     32  C   UNL     1      -2.070  -5.782   1.420  0.00  0.00    +0.092 C 
ENDBRANCH  28  32
BRANCH  30  33
ATOM     33  C   UNL     1      -4.007  -3.744   1.790  0.00  0.00    +0.139 C 
BRANCH  33  34
ATOM     34  C   UNL     1      -3.667  -3.251   3.198  0.00  0.00    +0.136 C 
ATOM     35  C   UNL     1      -4.811  -3.612   4.170  0.00  0.00    +0.035 C 
ATOM     36  C   UNL     1      -4.889  -2.350   5.071  0.00  0.00    +0.031 C 
ATOM     37  C   UNL     1      -4.528  -1.238   4.053  0.00  0.00    +0.160 C 
ATOM     38  O   UNL     1      -3.534  -1.824   3.194  0.00  0.00    -0.375 OA
ENDBRANCH  33  34
ENDBRANCH  30  33
ENDBRANCH  27  30
ENDBRANCH  22  27
ENDBRANCH  21  26
ENDBRANCH   1  21
TORSDOF 12
