REMARK  Name = ZINC26423047
REMARK  3 active torsions:
REMARK  status: ('A' for Active; 'I' for Inactive)
REMARK    1  A    between atoms: C_3  and  C_10
REMARK    2  A    between atoms: C_5  and  N_7
REMARK    3  A    between atoms: N_14  and  C_15
REMARK                            x       y       z     vdW  Elec       q    Type
REMARK                         _______ _______ _______ _____ _____    ______ ____
ROOT
ATOM      1  C   UNL     1      -0.071   5.259   0.178  0.00  0.00    +0.072 A 
ATOM      2  C   UNL     1       1.102   6.170   0.107  0.00  0.00    +0.111 A 
ATOM      3  N   UNL     1       0.639   7.376  -0.062  0.00  0.00    -0.339 N 
ATOM      4  C   UNL     1      -0.715   7.353  -0.101  0.00  0.00    +0.163 A 
ATOM      5  N   UNL     1      -1.170   6.062   0.045  0.00  0.00    -0.288 N 
ATOM      6  S   UNL     1      -1.714   8.729  -0.301  0.00  0.00    -0.013 S 
ATOM      7  H   UNL     1       1.333   8.225  -0.150  0.00  0.00    +0.167 HD
ENDROOT
BRANCH   5   8
ATOM      8  C   UNL     1      -2.508   5.649   0.055  0.00  0.00    +0.049 A 
ATOM      9  C   UNL     1      -3.006   4.880  -0.989  0.00  0.00    +0.027 A 
ATOM     10  C   UNL     1      -4.324   4.469  -0.974  0.00  0.00    +0.022 A 
ATOM     11  C   UNL     1      -5.152   4.832   0.074  0.00  0.00    +0.041 A 
ATOM     12  C   UNL     1      -4.660   5.603   1.113  0.00  0.00    +0.022 A 
ATOM     13  C   UNL     1      -3.341   6.012   1.106  0.00  0.00    +0.027 A 
ATOM     14 CL   UNL     1      -6.811   4.320   0.086  0.00  0.00    -0.084 Cl
ENDBRANCH   5   8
BRANCH   1  17
ATOM     15  C   UNL     1       1.118   1.767   0.220  0.00  0.00    +0.003 A 
ATOM     16  C   UNL     1       1.113   3.120   0.046  0.00  0.00    +0.010 A 
ATOM     17  C   UNL     1      -0.053   3.860   0.347  0.00  0.00    +0.002 A 
ATOM     18  C   UNL     1      -1.202   3.185   0.820  0.00  0.00    +0.042 A 
ATOM     19  C   UNL     1      -1.172   1.830   0.979  0.00  0.00    +0.127 A 
ATOM     20  C   UNL     1      -0.019   1.115   0.680  0.00  0.00    +0.033 A 
BRANCH  19  21
ATOM     21  N   UNL     1      -2.372   1.120   1.474  0.00  0.00    +0.056 N 
ATOM     22  O   UNL     1      -2.346  -0.188   1.630  0.00  0.00    -0.126 OA
ATOM     23  O   UNL     1      -3.466   1.795   1.759  0.00  0.00    -0.126 OA
ENDBRANCH  19  21
ENDBRANCH   1  17
TORSDOF 3
