REMARK  Name = ZINC41511292
REMARK  7 active torsions:
REMARK  status: ('A' for Active; 'I' for Inactive)
REMARK    1  A    between atoms: C_1  and  C_2
REMARK    2  A    between atoms: C_4  and  O_31
REMARK    3  A    between atoms: C_5  and  C_22
REMARK    4  A    between atoms: C_11  and  C_12
REMARK    5  A    between atoms: C_16  and  N_18
REMARK    6  A    between atoms: C_22  and  N_23
REMARK    7  A    between atoms: C_28  and  C_30
REMARK                            x       y       z     vdW  Elec       q    Type
REMARK                         _______ _______ _______ _____ _____    ______ ____
ROOT
ATOM      1  C   UNL     1       0.373   1.463  -0.007  0.00  0.00    +0.045 C 
ATOM      2  C   UNL     1       0.066  -0.013  -0.002  0.00  0.00    -0.033 A 
ATOM      3  C   UNL     1      -0.152  -0.671  -1.179  0.00  0.00    +0.050 A 
ATOM      4  C   UNL     1      -0.436  -2.034  -1.176  0.00  0.00    +0.122 A 
ATOM      5  C   UNL     1      -0.500  -2.738   0.017  0.00  0.00    +0.020 A 
ATOM      6  C   UNL     1      -0.280  -2.084   1.222  0.00  0.00    +0.145 A 
ATOM      7  C   UNL     1       0.010  -0.710   1.206  0.00  0.00    +0.071 A 
ATOM      8  C   UNL     1       0.198  -0.308   2.612  0.00  0.00    +0.232 C 
ATOM      9  O   UNL     1       0.460   0.802   3.042  0.00  0.00    -0.283 OA
ATOM     10  C   UNL     1      -0.004  -1.548   3.379  0.00  0.00    +0.176 C 
ATOM     11  C   UNL     1       0.069  -1.676   4.727  0.00  0.00    +0.058 C 
ATOM     12  O   UNL     1      -0.286  -2.534   2.496  0.00  0.00    -0.451 OA
ENDROOT
BRANCH  11  13
ATOM     13  C   UNL     1      -0.018  -3.007   5.344  0.00  0.00    -0.019 A 
ATOM     14  C   UNL     1      -0.004  -4.156   4.545  0.00  0.00    +0.008 A 
ATOM     15  C   UNL     1      -0.085  -5.401   5.131  0.00  0.00    +0.003 A 
ATOM     16  C   UNL     1      -0.180  -5.516   6.508  0.00  0.00    +0.033 A 
ATOM     17  C   UNL     1      -0.194  -4.386   7.306  0.00  0.00    +0.127 A 
ATOM     18  C   UNL     1      -0.108  -3.134   6.735  0.00  0.00    +0.040 A 
BRANCH  17  19
ATOM     19  N   UNL     1      -0.297  -4.521   8.776  0.00  0.00    +0.056 N 
ATOM     20  O   UNL     1      -0.368  -5.619   9.278  0.00  0.00    -0.126 OA
ATOM     21  O   UNL     1      -0.309  -3.535   9.475  0.00  0.00    -0.126 OA
ENDBRANCH  17  19
ENDBRANCH  11  13
BRANCH   4  22
ATOM     22  O   UNL     1      -0.652  -2.679  -2.350  0.00  0.00    -0.506 OA
ATOM     23  H   UNL     1       0.148  -3.045  -2.751  0.00  0.00    +0.292 HD
ENDBRANCH   4  22
BRANCH   5  24
ATOM     24  C   UNL     1      -0.808  -4.213   0.005  0.00  0.00    -0.035 C 
BRANCH  24  25
ATOM     25  N   UNL     1       0.444  -4.974  -0.093  0.00  0.00    +0.384 N 
ATOM     26  C   UNL     1       1.087  -4.693  -1.383  0.00  0.00    -0.078 C 
ATOM     27  C   UNL     1       2.431  -5.420  -1.456  0.00  0.00    -0.019 C 
ATOM     28  C   UNL     1       2.198  -6.927  -1.318  0.00  0.00    -0.003 C 
ATOM     29  C   UNL     1       1.462  -7.202  -0.004  0.00  0.00    -0.016 C 
ATOM     30  C   UNL     1       0.153  -6.409   0.016  0.00  0.00    -0.071 C 
ATOM     31  C   UNL     1      -0.587  -6.680   1.327  0.00  0.00    -0.013 C 
ATOM     32  H   UNL     1       1.063  -4.700   0.655  0.00  0.00    -0.081 HD
ENDBRANCH  24  25
ENDBRANCH   5  24
TORSDOF 5
