REMARK  Name = ZINC13284796
REMARK  6 active torsions:
REMARK  status: ('A' for Active; 'I' for Inactive)
REMARK    1  A    between atoms: C_1  and  C_2
REMARK    2  A    between atoms: C_7  and  O_10
REMARK    3  A    between atoms: O_10  and  C_11
REMARK    4  A    between atoms: N_15  and  C_16
REMARK    5  A    between atoms: N_19  and  C_24
REMARK    6  A    between atoms: N_22  and  C_23
REMARK                            x       y       z     vdW  Elec       q    Type
REMARK                         _______ _______ _______ _____ _____    ______ ____
ROOT
ATOM      1  C   UNL     1      -2.172  -0.973  -2.436  0.00  0.00    +0.301 A 
ATOM      2  N   UNL     1      -2.191  -0.354  -3.596  0.00  0.00    -0.177 NA
ATOM      3  C   UNL     1      -2.188  -1.247  -4.588  0.00  0.00    +0.172 A 
ATOM      4  C   UNL     1      -2.165  -2.511  -4.009  0.00  0.00    +0.154 A 
ATOM      5  N   UNL     1      -2.150  -2.310  -2.637  0.00  0.00    -0.291 N 
ATOM      6  C   UNL     1      -2.119  -3.347  -1.603  0.00  0.00    +0.154 C 
ATOM      7  C   UNL     1      -2.157  -3.647  -4.840  0.00  0.00    +0.282 A 
ATOM      8  O   UNL     1      -2.137  -4.764  -4.354  0.00  0.00    -0.265 OA
ATOM      9  N   UNL     1      -2.172  -3.485  -6.179  0.00  0.00    -0.262 N 
ATOM     10  C   UNL     1      -2.193  -2.258  -6.728  0.00  0.00    +0.333 A 
ATOM     11  O   UNL     1      -2.206  -2.150  -7.939  0.00  0.00    -0.246 OA
ATOM     12  N   UNL     1      -2.202  -1.145  -5.970  0.00  0.00    -0.279 N 
ATOM     13  C   UNL     1      -2.225   0.174  -6.606  0.00  0.00    +0.155 C 
ATOM     14  C   UNL     1      -2.164  -4.664  -7.048  0.00  0.00    +0.157 C 
ENDROOT
BRANCH   1  15
ATOM     15  O   UNL     1      -2.169  -0.366  -1.228  0.00  0.00    -0.460 OA
BRANCH  15  21
ATOM     16  C   UNL     1      -2.880   1.543   2.537  0.00  0.00    +0.007 C 
ATOM     17  C   UNL     1      -2.164   1.050   1.278  0.00  0.00    -0.011 C 
ATOM     18  C   UNL     1      -0.729   1.579   1.267  0.00  0.00    +0.003 C 
ATOM     19  C   UNL     1      -0.013   1.086   0.008  0.00  0.00    +0.004 C 
ATOM     20  C   UNL     1      -0.753   1.593  -1.232  0.00  0.00    +0.045 C 
ATOM     21  C   UNL     1      -2.188   1.063  -1.221  0.00  0.00    +0.177 C 
ATOM     22  C   UNL     1      -2.904   1.556   0.038  0.00  0.00    +0.048 C 
ENDBRANCH  15  21
ENDBRANCH   1  15
TORSDOF 2
