REMARK  Name = ZINC38686209
REMARK  16 active torsions:
REMARK  status: ('A' for Active; 'I' for Inactive)
REMARK    1  A    between atoms: C_1  and  C_2
REMARK    2  A    between atoms: C_2  and  C_3
REMARK    3  A    between atoms: C_3  and  C_4
REMARK    4  A    between atoms: C_4  and  C_5
REMARK    5  A    between atoms: C_5  and  O_6
REMARK    6  A    between atoms: O_6  and  C_7
REMARK    7  A    between atoms: C_12  and  C_13
REMARK    8  A    between atoms: C_18  and  O_27
REMARK    9  A    between atoms: C_22  and  N_26
REMARK   10  A    between atoms: C_23  and  C_24
REMARK   11  A    between atoms: O_27  and  C_28
REMARK   12  A    between atoms: C_28  and  C_30
REMARK   13  A    between atoms: C_35  and  O_36
REMARK   14  A    between atoms: O_36  and  C_37
REMARK   15  A    between atoms: C_37  and  C_38
REMARK   16  A    between atoms: C_38  and  C_39
REMARK                            x       y       z     vdW  Elec       q    Type
REMARK                         _______ _______ _______ _____ _____    ______ ____
ROOT
ATOM      1  C   UNL     1       1.478  -6.734  -2.542  0.00  0.00    +0.101 C 
ATOM      2  C   UNL     1       0.411  -7.617  -3.132  0.00  0.00    +0.008 A 
ATOM      3  C   UNL     1      -0.850  -7.098  -3.366  0.00  0.00    +0.012 A 
ATOM      4  C   UNL     1      -1.841  -7.894  -3.906  0.00  0.00    +0.047 A 
ATOM      5  C   UNL     1      -1.573  -9.220  -4.218  0.00  0.00    +0.135 A 
ATOM      6  C   UNL     1      -0.311  -9.743  -3.985  0.00  0.00    +0.093 A 
ATOM      7  C   UNL     1       0.684  -8.941  -3.442  0.00  0.00    +0.138 A 
ATOM      8  O   UNL     1       1.914  -9.467  -3.220  0.00  0.00    -0.441 OA
ATOM      9  C   UNL     1       2.756  -8.865  -2.365  0.00  0.00    +0.199 C 
ATOM     10  C   UNL     1       2.603  -7.572  -2.005  0.00  0.00    +0.098 C 
ENDROOT
BRANCH   1  16
ATOM     11  C   UNL     1       1.900  -4.436  -3.454  0.00  0.00    +0.125 A 
ATOM     12  C   UNL     1       2.394  -3.589  -4.435  0.00  0.00    +0.046 A 
ATOM     13  C   UNL     1       2.986  -4.115  -5.566  0.00  0.00    +0.004 A 
ATOM     14  C   UNL     1       3.087  -5.486  -5.721  0.00  0.00    +0.001 A 
ATOM     15  C   UNL     1       2.596  -6.332  -4.745  0.00  0.00    +0.008 A 
ATOM     16  C   UNL     1       2.008  -5.811  -3.609  0.00  0.00    +0.007 A 
BRANCH  11  17
ATOM     17  O   UNL     1       1.317  -3.921  -2.339  0.00  0.00    -0.492 OA
BRANCH  17  18
ATOM     18  C   UNL     1       1.241  -2.497  -2.247  0.00  0.00    +0.229 C 
BRANCH  18  19
ATOM     19  C   UNL     1       0.559  -2.107  -0.934  0.00  0.00    +0.041 C 
BRANCH  19  20
ATOM     20  C   UNL     1       0.477  -0.582  -0.835  0.00  0.00    +0.003 C 
BRANCH  20  22
ATOM     21  C   UNL     1      -0.287   1.332   0.577  0.00  0.00    +0.004 C 
ATOM     22  C   UNL     1      -0.205  -0.192   0.478  0.00  0.00    -0.003 C 
ENDBRANCH  20  22
ENDBRANCH  19  20
ENDBRANCH  18  19
ENDBRANCH  17  18
ENDBRANCH  11  17
ENDBRANCH   1  16
BRANCH   9  23
ATOM     23  N   UNL     1       3.803  -9.584  -1.843  0.00  0.00    -0.328 N 
ATOM     24  H   UNL     1       3.925 -10.513  -2.093  0.00  0.00    +0.145 HD
ATOM     25  H   UNL     1       4.420  -9.163  -1.224  0.00  0.00    +0.145 HD
ENDBRANCH   9  23
BRANCH  10  26
ATOM     26  C   UNL     1       3.537  -6.988  -1.089  0.00  0.00    +0.101 C 
ATOM     27  N   UNL     1       4.278  -6.525  -0.363  0.00  0.00    -0.191 NA
ENDBRANCH  10  26
BRANCH   5  28
ATOM     28  O   UNL     1      -2.547 -10.005  -4.749  0.00  0.00    -0.422 OA
BRANCH  28  29
ATOM     29  C   UNL     1      -2.955  -9.743  -6.006  0.00  0.00    +0.348 C 
ATOM     30  O   UNL     1      -2.384  -8.897  -6.667  0.00  0.00    -0.244 OA
BRANCH  29  31
ATOM     31  C   UNL     1      -4.094 -10.481  -6.581  0.00  0.00    +0.101 A 
ATOM     32  C   UNL     1      -4.758 -11.450  -5.823  0.00  0.00    +0.018 A 
ATOM     33  C   UNL     1      -5.821 -12.137  -6.366  0.00  0.00    +0.001 A 
ATOM     34  C   UNL     1      -6.237 -11.872  -7.661  0.00  0.00    +0.004 A 
ATOM     35  C   UNL     1      -5.591 -10.918  -8.421  0.00  0.00    +0.046 A 
ATOM     36  C   UNL     1      -4.522 -10.212  -7.888  0.00  0.00    +0.134 A 
BRANCH  36  37
ATOM     37  O   UNL     1      -3.890  -9.270  -8.632  0.00  0.00    -0.491 OA
BRANCH  37  38
ATOM     38  C   UNL     1      -4.382  -9.050  -9.955  0.00  0.00    +0.229 C 
BRANCH  38  39
ATOM     39  C   UNL     1      -3.550  -7.960 -10.634  0.00  0.00    +0.038 C 
ATOM     40  C   UNL     1      -4.076  -7.725 -12.051  0.00  0.00    +0.007 C 
ENDBRANCH  38  39
ENDBRANCH  37  38
ENDBRANCH  36  37
ENDBRANCH  29  31
ENDBRANCH  28  29
ENDBRANCH   5  28
TORSDOF 14
