REMARK  Name = ZINC43629037
REMARK  8 active torsions:
REMARK  status: ('A' for Active; 'I' for Inactive)
REMARK    1  A    between atoms: C_1  and  C_2
REMARK    2  A    between atoms: C_2  and  C_4
REMARK    3  A    between atoms: C_2  and  N_18
REMARK    4  A    between atoms: C_7  and  C_9
REMARK    5  A    between atoms: C_12  and  N_15
REMARK    6  A    between atoms: N_18  and  C_19
REMARK    7  A    between atoms: N_18  and  C_20
REMARK    8  A    between atoms: C_20  and  C_21
REMARK                            x       y       z     vdW  Elec       q    Type
REMARK                         _______ _______ _______ _____ _____    ______ ____
ROOT
ATOM      1  C   UNL     1      -0.019   1.526   0.010  0.00  0.00    -0.004 C 
ATOM      2  C   UNL     1       0.002  -0.004   0.002  0.00  0.00    +0.018 C 
ENDROOT
BRANCH   2   3
ATOM      3  C   UNL     1       0.731  -0.503   1.223  0.00  0.00    +0.204 A 
ATOM      4  N   UNL     1       2.021  -0.481   1.412  0.00  0.00    -0.114 NA
ATOM      5  N   UNL     1       2.295  -0.986   2.563  0.00  0.00    -0.107 NA
ATOM      6  C   UNL     1       1.181  -1.350   3.153  0.00  0.00    +0.248 A 
ATOM      7  O   UNL     1       0.168  -1.046   2.316  0.00  0.00    -0.422 OA
BRANCH   6   8
ATOM      8  C   UNL     1       1.058  -1.973   4.488  0.00  0.00    +0.039 A 
ATOM      9  C   UNL     1      -0.199  -2.315   4.989  0.00  0.00    +0.015 A 
ATOM     10  C   UNL     1      -0.306  -2.896   6.236  0.00  0.00    +0.033 A 
ATOM     11  C   UNL     1       0.828  -3.139   6.989  0.00  0.00    +0.126 A 
ATOM     12  C   UNL     1       2.077  -2.802   6.499  0.00  0.00    +0.033 A 
ATOM     13  C   UNL     1       2.199  -2.227   5.251  0.00  0.00    +0.015 A 
BRANCH  11  14
ATOM     14  N   UNL     1       0.705  -3.762   8.326  0.00  0.00    +0.056 N 
ATOM     15  O   UNL     1      -0.385  -4.057   8.758  0.00  0.00    -0.126 OA
ATOM     16  O   UNL     1       1.695  -3.975   8.987  0.00  0.00    -0.126 OA
ENDBRANCH  11  14
ENDBRANCH   6   8
ENDBRANCH   2   3
BRANCH   2  17
ATOM     17  N   UNL     1       0.690  -0.478  -1.207  0.00  0.00    +0.388 N 
ATOM     18  C   UNL     1       0.710  -1.947  -1.215  0.00  0.00    -0.095 C 
ATOM     19  H   UNL     1       1.636  -0.129  -1.214  0.00  0.00    -0.081 HD
BRANCH  17  20
ATOM     20  C   UNL     1      -0.021   0.009  -2.397  0.00  0.00    -0.039 C 
BRANCH  20  21
ATOM     21  C   UNL     1       0.751  -0.373  -3.634  0.00  0.00    -0.029 A 
ATOM     22  C   UNL     1       1.562   0.558  -4.256  0.00  0.00    +0.007 A 
ATOM     23  C   UNL     1       2.270   0.209  -5.390  0.00  0.00    +0.039 A 
ATOM     24  C   UNL     1       2.169  -1.073  -5.904  0.00  0.00    +0.126 A 
ATOM     25  C   UNL     1       1.358  -2.005  -5.281  0.00  0.00    +0.076 A 
ATOM     26  C   UNL     1       0.653  -1.657  -4.142  0.00  0.00    +0.127 A 
ATOM     27  F   UNL     1      -0.135  -2.567  -3.530  0.00  0.00    -0.205 F 
ATOM     28  F   UNL     1       2.861  -1.413  -7.013  0.00  0.00    -0.205 F 
ENDBRANCH  20  21
ENDBRANCH  17  20
ENDBRANCH   2  17
TORSDOF 6
