REMARK  Name = ZINC39469768
REMARK  8 active torsions:
REMARK  status: ('A' for Active; 'I' for Inactive)
REMARK    1  A    between atoms: C_1  and  C_2
REMARK    2  A    between atoms: C_2  and  O_3
REMARK    3  A    between atoms: O_3  and  C_4
REMARK    4  A    between atoms: P_13  and  S_29
REMARK    5  A    between atoms: C_21  and  C_22
REMARK    6  A    between atoms: C_22  and  C_23
REMARK    7  A    between atoms: S_29  and  O_32
REMARK    8  A    between atoms: O_32  and  C_33
REMARK                            x       y       z     vdW  Elec       q    Type
REMARK                         _______ _______ _______ _____ _____    ______ ____
ROOT
ATOM      1  C   UNL     1       0.777  -1.810  -1.336  0.00  0.00    +0.120 C 
ATOM      2  C   UNL     1       0.264  -2.638  -0.423  0.00  0.00    +0.023 C 
ATOM      3  C   UNL     1       0.380  -4.131  -0.623  0.00  0.00    +0.019 C 
ATOM      4  C   UNL     1       1.770  -4.580  -0.171  0.00  0.00    -0.002 C 
ATOM      5  C   UNL     1       1.980  -6.068  -0.476  0.00  0.00    -0.020 C 
ATOM      6  C   UNL     1       3.390  -6.433   0.005  0.00  0.00    +0.158 C 
ATOM      7  O   UNL     1       3.624  -7.836  -0.210  0.00  0.00    -0.301 OA
ATOM      8  P   UNL     1       3.306  -8.437  -1.688  0.00  0.00    +0.431 P 
ATOM      9  O   UNL     1       3.073  -9.896  -1.610  0.00  0.00    -0.246 OA
ATOM     10  N   UNL     1       1.935  -7.664  -2.183  0.00  0.00    -0.271 NA
ATOM     11  N   UNL     1       1.827  -6.316  -1.912  0.00  0.00    +0.398 N 
ATOM     12  C   UNL     1       0.481  -5.923  -2.359  0.00  0.00    -0.046 C 
ATOM     13  C   UNL     1       0.210  -4.443  -2.113  0.00  0.00    +0.005 C 
ATOM     14  C   UNL     1       1.173  -3.610  -2.915  0.00  0.00    -0.017 C 
ATOM     15  C   UNL     1       1.454  -2.362  -2.526  0.00  0.00    -0.005 C 
ATOM     16  H   UNL     1       1.231  -8.141  -2.650  0.00  0.00    +0.113 HD
ATOM     17  H   UNL     1       2.532  -5.804  -2.422  0.00  0.00    -0.055 HD
ENDROOT
BRANCH   8  18
ATOM     18  S   UNL     1       4.909  -8.019  -3.011  0.00  0.00    +0.209 S 
ATOM     19  O   UNL     1       4.619  -8.696  -4.227  0.00  0.00    -0.126 OA
ATOM     20  O   UNL     1       5.128  -6.616  -2.954  0.00  0.00    -0.126 OA
BRANCH  18  21
ATOM     21  O   UNL     1       6.153  -8.678  -2.433  0.00  0.00    -0.339 OA
BRANCH  21  22
ATOM     22  C   UNL     1       6.187 -10.027  -2.587  0.00  0.00    +0.157 A 
ATOM     23  C   UNL     1       5.638 -10.852  -1.616  0.00  0.00    +0.048 A 
ATOM     24  C   UNL     1       5.674 -12.224  -1.776  0.00  0.00    +0.004 A 
ATOM     25  C   UNL     1       6.256 -12.775  -2.903  0.00  0.00    +0.000 A 
ATOM     26  C   UNL     1       6.804 -11.955  -3.872  0.00  0.00    +0.004 A 
ATOM     27  C   UNL     1       6.766 -10.583  -3.720  0.00  0.00    +0.048 A 
ENDBRANCH  21  22
ENDBRANCH  18  21
ENDBRANCH   8  18
BRANCH   1  28
ATOM     28  O   UNL     1       0.671  -0.465  -1.174  0.00  0.00    -0.492 OA
BRANCH  28  30
ATOM     29  C   UNL     1      -0.019   1.526   0.010  0.00  0.00    +0.048 C 
ATOM     30  C   UNL     1       0.002  -0.004   0.002  0.00  0.00    +0.225 C 
ENDBRANCH  28  30
ENDBRANCH   1  28
BRANCH  15  31
ATOM     31  C   UNL     1       2.432  -1.518  -3.303  0.00  0.00    +0.073 C 
BRANCH  31  32
ATOM     32  C   UNL     1       1.683  -0.675  -4.303  0.00  0.00    -0.043 A 
ATOM     33  C   UNL     1       1.439  -1.162  -5.573  0.00  0.00    +0.004 A 
ATOM     34  C   UNL     1       0.752  -0.388  -6.490  0.00  0.00    +0.000 A 
ATOM     35  C   UNL     1       0.309   0.872  -6.136  0.00  0.00    +0.000 A 
ATOM     36  C   UNL     1       0.551   1.359  -4.865  0.00  0.00    +0.000 A 
ATOM     37  C   UNL     1       1.235   0.584  -3.947  0.00  0.00    +0.004 A 
ENDBRANCH  31  32
ENDBRANCH  15  31
TORSDOF 7
