REMARK  Name = ZINC38689072
REMARK  9 active torsions:
REMARK  status: ('A' for Active; 'I' for Inactive)
REMARK    1  A    between atoms: C_1  and  C_2
REMARK    2  A    between atoms: C_7  and  C_31
REMARK    3  A    between atoms: C_9  and  N_12
REMARK    4  A    between atoms: C_13  and  C_15
REMARK    5  A    between atoms: C_15  and  N_16
REMARK    6  A    between atoms: C_19  and  C_22
REMARK    7  A    between atoms: C_19  and  N_25
REMARK    8  A    between atoms: C_31  and  O_33
REMARK    9  A    between atoms: O_33  and  C_34
REMARK                            x       y       z     vdW  Elec       q    Type
REMARK                         _______ _______ _______ _____ _____    ______ ____
ROOT
ATOM      1  N   UNL     1       0.202  -2.505   3.762  0.00  0.00    -0.285 N 
ATOM      2  C   UNL     1       0.014  -1.241   4.192  0.00  0.00    +0.231 C 
ATOM      3  O   UNL     1      -0.311  -0.376   3.408  0.00  0.00    -0.274 OA
ATOM      4  H   UNL     1       0.381  -3.212   4.401  0.00  0.00    +0.155 HD
ENDROOT
BRANCH   1  12
ATOM      5  C   UNL     1       0.260  -7.806   2.132  0.00  0.00    +0.044 C 
ATOM      6  C   UNL     1       0.192  -6.418   1.547  0.00  0.00    -0.050 A 
ATOM      7  C   UNL     1       0.114  -6.267   0.160  0.00  0.00    +0.005 A 
ATOM      8  C   UNL     1       0.050  -5.046  -0.424  0.00  0.00    +0.026 A 
ATOM      9  C   UNL     1       0.060  -3.877   0.381  0.00  0.00    +0.045 A 
ATOM     10  N   UNL     1       0.008  -2.599   0.063  0.00  0.00    -0.367 N 
ATOM     11  C   UNL     1       0.051  -1.798   1.291  0.00  0.00    +0.234 C 
ATOM     12  C   UNL     1       0.139  -2.788   2.431  0.00  0.00    +0.053 C 
ATOM     13  C   UNL     1       0.142  -4.040   1.842  0.00  0.00    +0.018 A 
ATOM     14  C   UNL     1       0.201  -5.349   2.380  0.00  0.00    +0.015 A 
ATOM     15  H   UNL     1      -0.049  -2.245  -0.838  0.00  0.00    +0.161 HD
BRANCH  11  16
ATOM     16  C   UNL     1       1.264  -0.903   1.284  0.00  0.00    +0.335 C 
ATOM     17  O   UNL     1       2.236  -1.207   0.634  0.00  0.00    -0.248 OA
BRANCH  16  18
ATOM     18  O   UNL     1       1.264   0.232   2.001  0.00  0.00    -0.466 OA
ATOM     19  C   UNL     1       2.447   1.032   1.948  0.00  0.00    +0.280 C 
ENDBRANCH  16  18
ENDBRANCH  11  16
ENDBRANCH   1  12
BRANCH   2  20
ATOM     20  C   UNL     1       0.208  -0.904   5.648  0.00  0.00    +0.180 C 
BRANCH  20  21
ATOM     21  N   UNL     1      -0.055   0.526   5.859  0.00  0.00    -0.294 NA
ATOM     22  C   UNL     1       0.944   1.352   5.168  0.00  0.00    +0.084 C 
ATOM     23  C   UNL     1       0.557   2.828   5.287  0.00  0.00    +0.013 C 
ATOM     24  C   UNL     1       0.485   3.213   6.767  0.00  0.00    +0.015 C 
ATOM     25  C   UNL     1      -0.526   2.307   7.474  0.00  0.00    +0.013 C 
ATOM     26  C   UNL     1      -0.109   0.846   7.291  0.00  0.00    +0.084 C 
BRANCH  24  27
ATOM     27  N   UNL     1       0.058   4.614   6.889  0.00  0.00    +0.389 N 
ATOM     28  C   UNL     1       0.956   5.468   6.102  0.00  0.00    -0.077 C 
ATOM     29  C   UNL     1       0.468   6.917   6.160  0.00  0.00    -0.019 C 
ATOM     30  C   UNL     1       0.458   7.389   7.617  0.00  0.00    -0.004 C 
ATOM     31  C   UNL     1      -0.422   6.447   8.443  0.00  0.00    -0.019 C 
ATOM     32  C   UNL     1       0.098   5.015   8.300  0.00  0.00    -0.077 C 
ATOM     33  H   UNL     1      -0.884   4.708   6.540  0.00  0.00    -0.080 HD
ENDBRANCH  24  27
BRANCH  24  34
ATOM     34  C   UNL     1       1.842   3.043   7.399  0.00  0.00    +0.200 C 
ATOM     35  O   UNL     1       2.841   3.090   6.713  0.00  0.00    -0.278 OA
ATOM     36  N   UNL     1       1.946   2.837   8.727  0.00  0.00    -0.330 N 
ATOM     37  H   UNL     1       1.147   2.726   9.264  0.00  0.00    +0.145 HD
ATOM     38  H   UNL     1       2.821   2.799   9.145  0.00  0.00    +0.145 HD
ENDBRANCH  24  34
ENDBRANCH  20  21
ENDBRANCH   2  20
TORSDOF 7
