REMARK  Name = ZINC11854844
REMARK  8 active torsions:
REMARK  status: ('A' for Active; 'I' for Inactive)
REMARK    1  A    between atoms: C_1  and  C_2
REMARK    2  A    between atoms: C_2  and  C_3
REMARK    3  A    between atoms: C_3  and  C_4
REMARK    4  A    between atoms: C_13  and  N_22
REMARK    5  A    between atoms: C_15  and  C_17
REMARK    6  A    between atoms: C_23  and  C_25
REMARK    7  A    between atoms: C_25  and  C_26
REMARK    8  A    between atoms: C_35  and  C_37
REMARK                            x       y       z     vdW  Elec       q    Type
REMARK                         _______ _______ _______ _____ _____    ______ ____
ROOT
ATOM      1  C   UNL     1       5.423  -0.354  -0.003  0.00  0.00    +0.050 A 
ATOM      2  C   UNL     1       6.111   0.823  -0.036  0.00  0.00    +0.093 A 
ATOM      3  C   UNL     1       5.393   2.026  -0.177  0.00  0.00    +0.253 A 
ATOM      4  O   UNL     1       5.975   3.097  -0.211  0.00  0.00    -0.268 OA
ATOM      5  N   UNL     1       4.048   1.970  -0.274  0.00  0.00    -0.291 N 
ATOM      6  H   UNL     1       3.532   2.785  -0.372  0.00  0.00    +0.172 HD
ATOM      7  C   UNL     1       3.417   0.765  -0.235  0.00  0.00    +0.234 A 
ATOM      8  N   UNL     1       4.095  -0.354  -0.098  0.00  0.00    -0.217 NA
ATOM      9  N   UNL     1       2.041   0.717  -0.334  0.00  0.00    -0.185 N 
ATOM     10  C   UNL     1       1.273  -0.412  -0.310  0.00  0.00    +0.132 A 
ATOM     11  C   UNL     1      -0.024  -0.032  -0.434  0.00  0.00    +0.074 A 
ATOM     12  C   UNL     1      -0.053   1.375  -0.537  0.00  0.00    +0.102 A 
ATOM     13  N   UNL     1       1.186   1.818  -0.477  0.00  0.00    -0.162 NA
ENDROOT
BRANCH  12  14
ATOM     14  C   UNL     1      -1.265   2.208  -0.693  0.00  0.00    +0.039 A 
ATOM     15  C   UNL     1      -1.369   3.569  -0.793  0.00  0.00    +0.018 A 
ATOM     16  C   UNL     1      -2.619   4.129  -0.938  0.00  0.00    +0.008 A 
ATOM     17  C   UNL     1      -3.708   3.318  -0.966  0.00  0.00    +0.046 A 
ATOM     18  S   UNL     1      -2.974   1.700  -0.791  0.00  0.00    -0.095 S 
ENDBRANCH  12  14
BRANCH  10  19
ATOM     19  N   UNL     1       1.737  -1.720  -0.181  0.00  0.00    -0.270 N 
ATOM     20  C   UNL     1       0.865  -2.747  -0.172  0.00  0.00    +0.220 C 
ATOM     21  O   UNL     1      -0.325  -2.533  -0.276  0.00  0.00    -0.275 OA
ATOM     22  H   UNL     1       2.688  -1.890  -0.098  0.00  0.00    +0.156 HD
BRANCH  20  23
ATOM     23  C   UNL     1       1.367  -4.161  -0.033  0.00  0.00    +0.122 C 
BRANCH  23  24
ATOM     24  C   UNL     1       0.178  -5.114   0.099  0.00  0.00    +0.112 C 
ATOM     25  C   UNL     1      -0.608  -4.742   1.365  0.00  0.00    +0.103 C 
ATOM     26  S   UNL     1      -0.530  -6.307   2.305  0.00  0.00    -0.086 S 
ATOM     27  C   UNL     1       0.414  -7.285   1.156  0.00  0.00    +0.172 A 
ATOM     28  N   UNL     1       0.679  -6.487   0.085  0.00  0.00    -0.283 N 
ATOM     29  C   UNL     1       1.406  -7.045  -0.934  0.00  0.00    +0.255 A 
ATOM     30  O   UNL     1       1.677  -6.383  -1.922  0.00  0.00    -0.268 OA
ATOM     31  C   UNL     1       1.837  -8.372  -0.844  0.00  0.00    +0.093 A 
ATOM     32  C   UNL     1       1.528  -9.104   0.266  0.00  0.00    +0.046 A 
ATOM     33  N   UNL     1       0.821  -8.534   1.238  0.00  0.00    -0.228 NA
ATOM     34  C   UNL     1       1.980 -10.537   0.388  0.00  0.00    +0.066 C 
ENDBRANCH  23  24
ENDBRANCH  20  23
ENDBRANCH  10  19
BRANCH   1  35
ATOM     35  C   UNL     1       6.167  -1.656   0.147  0.00  0.00    +0.055 C 
BRANCH  35  37
ATOM     36  C   UNL     1       6.956  -3.378   1.777  0.00  0.00    +0.004 C 
ATOM     37  C   UNL     1       6.201  -2.056   1.624  0.00  0.00    +0.003 C 
ENDBRANCH  35  37
ENDBRANCH   1  35
TORSDOF 6
