REMARK  Name = ZINC12644274
REMARK  5 active torsions:
REMARK  status: ('A' for Active; 'I' for Inactive)
REMARK    1  A    between atoms: C_3  and  N_4
REMARK    2  A    between atoms: C_5  and  C_9
REMARK    3  A    between atoms: C_9  and  N_66
REMARK    4  A    between atoms: C_17  and  N_19
REMARK    5  A    between atoms: N_22  and  C_23
REMARK                            x       y       z     vdW  Elec       q    Type
REMARK                         _______ _______ _______ _____ _____    ______ ____
ROOT
ATOM      1  C   UNL     1      -2.940   4.504   7.305  0.00  0.00    -0.066 C 
ATOM      2  C   UNL     1      -3.582   4.483   5.899  0.00  0.00    -0.017 C 
ATOM      3  C   UNL     1      -3.761   2.986   5.569  0.00  0.00    -0.017 C 
ATOM      4  C   UNL     1      -3.210   2.239   6.805  0.00  0.00    -0.066 C 
ATOM      5  C   UNL     1      -1.704   2.019   6.590  0.00  0.00    +0.007 C 
ATOM      6  C   UNL     1      -1.072   3.336   6.131  0.00  0.00    +0.071 C 
ATOM      7  C   UNL     1      -1.414   4.449   7.126  0.00  0.00    +0.007 C 
ATOM      8  N   UNL     1      -3.340   3.216   7.881  0.00  0.00    +0.388 N 
ATOM      9  H   UNL     1      -2.718   2.968   8.659  0.00  0.00    -0.080 HD
ENDROOT
BRANCH   6  10
ATOM     10  N   UNL     1      -1.590   3.690   4.807  0.00  0.00    -0.297 N 
ATOM     11  C   UNL     1      -0.745   3.820   3.765  0.00  0.00    +0.300 C 
ATOM     12  O   UNL     1       0.448   3.642   3.924  0.00  0.00    -0.253 OA
ATOM     13  N   UNL     1      -1.221   4.145   2.548  0.00  0.00    -0.294 N 
ATOM     14  H   UNL     1      -2.541   3.832   4.681  0.00  0.00    +0.151 HD
ATOM     15  H   UNL     1      -2.172   4.287   2.421  0.00  0.00    +0.151 HD
BRANCH  13  16
ATOM     16  C   UNL     1      -0.302   4.286   1.415  0.00  0.00    +0.037 C 
ATOM     17  C   UNL     1       0.428   2.962   1.184  0.00  0.00    +0.029 C 
ATOM     18  C   UNL     1       1.388   3.108   0.001  0.00  0.00    -0.008 C 
ATOM     19  C   UNL     1       0.597   3.480  -1.254  0.00  0.00    +0.007 C 
ATOM     20  C   UNL     1      -0.134   4.804  -1.023  0.00  0.00    -0.008 C 
ATOM     21  C   UNL     1      -1.094   4.658   0.160  0.00  0.00    +0.029 C 
ATOM     22  C   UNL     1       0.886   5.903  -0.719  0.00  0.00    +0.007 C 
ATOM     23  C   UNL     1       1.677   5.532   0.536  0.00  0.00    -0.008 C 
ATOM     24  C   UNL     1       2.408   4.207   0.305  0.00  0.00    +0.007 C 
ATOM     25  C   UNL     1       0.718   5.385   1.719  0.00  0.00    +0.029 C 
ENDBRANCH  13  16
ENDBRANCH   6  10
BRANCH   8  26
ATOM     26  C   UNL     1      -4.752   3.280   8.379  0.00  0.00    +0.001 C 
BRANCH  26  28
ATOM     27  N   UNL     1      -5.813   0.998   7.962  0.00  0.00    -0.228 N 
ATOM     28  C   UNL     1      -5.218   1.899   8.765  0.00  0.00    +0.135 A 
ATOM     29  N   UNL     1      -5.127   1.345   9.949  0.00  0.00    -0.115 NA
ATOM     30  N   UNL     1      -5.635   0.163   9.876  0.00  0.00    -0.023 NA
ATOM     31  N   UNL     1      -6.048  -0.051   8.676  0.00  0.00    -0.044 NA
BRANCH  27  34
ATOM     32  C   UNL     1      -6.993   0.101   5.874  0.00  0.00    +0.029 C 
ATOM     33  C   UNL     1      -5.500   0.197   5.550  0.00  0.00    +0.029 C 
ATOM     34  C   UNL     1      -6.132   1.174   6.543  0.00  0.00    +0.111 C 
ENDBRANCH  27  34
ENDBRANCH  26  28
ENDBRANCH   8  26
TORSDOF 5
