REMARK  Name = ZINC13064558
REMARK  15 active torsions:
REMARK  status: ('A' for Active; 'I' for Inactive)
REMARK    1  A    between atoms: C_1  and  C_2
REMARK    2  A    between atoms: C_2  and  C_3
REMARK    3  A    between atoms: C_3  and  C_5
REMARK    4  A    between atoms: C_3  and  N_71
REMARK    5  A    between atoms: N_9  and  C_10
REMARK    6  A    between atoms: C_10  and  C_11
REMARK    7  A    between atoms: C_10  and  C_12
REMARK    8  A    between atoms: C_10  and  C_13
REMARK    9  A    between atoms: C_14  and  C_15
REMARK   10  A    between atoms: C_14  and  N_71
REMARK   11  A    between atoms: C_15  and  C_16
REMARK   12  A    between atoms: C_22  and  C_23
REMARK   13  A    between atoms: C_22  and  N_71
REMARK   14  A    between atoms: C_27  and  C_36
REMARK   15  A    between atoms: C_28  and  C_35
REMARK                            x       y       z     vdW  Elec       q    Type
REMARK                         _______ _______ _______ _____ _____    ______ ____
ROOT
ATOM      1  N   UNL     1      -5.980   3.261  -2.163  0.00  0.00    +0.389 N 
ATOM      2  H   UNL     1      -5.196   3.783  -2.570  0.00  0.00    -0.080 HD
ENDROOT
BRANCH   1   3
ATOM      3  C   UNL     1      -5.952   1.875  -2.675  0.00  0.00    +0.003 C 
BRANCH   3   4
ATOM      4  C   UNL     1      -5.318   1.882  -4.042  0.00  0.00    +0.139 A 
ATOM      5  N   UNL     1      -5.404   2.833  -4.940  0.00  0.00    -0.115 NA
ATOM      6  N   UNL     1      -4.727   2.468  -5.973  0.00  0.00    -0.023 NA
ATOM      7  N   UNL     1      -4.216   1.305  -5.761  0.00  0.00    -0.043 NA
ATOM      8  N   UNL     1      -4.558   0.910  -4.581  0.00  0.00    -0.226 N 
BRANCH   8   9
ATOM      9  C   UNL     1      -4.189  -0.358  -3.947  0.00  0.00    +0.059 C 
ATOM     10  C   UNL     1      -5.447  -1.049  -3.417  0.00  0.00    +0.036 C 
ATOM     11  C   UNL     1      -3.506  -1.262  -4.975  0.00  0.00    +0.036 C 
ATOM     12  C   UNL     1      -3.228  -0.087  -2.787  0.00  0.00    +0.036 C 
ENDBRANCH   8   9
ENDBRANCH   3   4
BRANCH   3  14
ATOM     13  C   UNL     1      -7.949   1.138  -1.368  0.00  0.00    +0.002 C 
ATOM     14  C   UNL     1      -7.372   1.314  -2.774  0.00  0.00    -0.011 C 
ENDBRANCH   3  14
ENDBRANCH   1   3
BRANCH   1  15
ATOM     15  C   UNL     1      -7.247   3.917  -2.551  0.00  0.00    -0.073 C 
BRANCH  15  16
ATOM     16  C   UNL     1      -7.234   4.156  -4.063  0.00  0.00    +0.016 C 
BRANCH  16  17
ATOM     17  C   UNL     1      -8.438   4.974  -4.452  0.00  0.00    -0.049 A 
ATOM     18  C   UNL     1      -9.646   4.349  -4.702  0.00  0.00    +0.003 A 
ATOM     19  C   UNL     1     -10.752   5.100  -5.054  0.00  0.00    +0.000 A 
ATOM     20  C   UNL     1     -10.648   6.474  -5.166  0.00  0.00    +0.000 A 
ATOM     21  C   UNL     1      -9.439   7.098  -4.922  0.00  0.00    +0.000 A 
ATOM     22  C   UNL     1      -8.334   6.347  -4.564  0.00  0.00    +0.003 A 
ENDBRANCH  16  17
ENDBRANCH  15  16
ENDBRANCH   1  15
BRANCH   1  23
ATOM     23  C   UNL     1      -5.843   3.259  -0.691  0.00  0.00    -0.037 C 
BRANCH  23  24
ATOM     24  C   UNL     1      -4.398   3.018  -0.341  0.00  0.00    +0.001 A 
ATOM     25  C   UNL     1      -3.560   4.070  -0.169  0.00  0.00    +0.017 A 
ATOM     26  C   UNL     1      -2.160   3.802   0.165  0.00  0.00    -0.001 A 
ATOM     27  C   UNL     1      -1.244   4.846   0.336  0.00  0.00    +0.013 A 
ATOM     28  C   UNL     1       0.055   4.563   0.647  0.00  0.00    -0.047 A 
ATOM     29  C   UNL     1       0.476   3.248   0.795  0.00  0.00    -0.046 A 
ATOM     30  C   UNL     1      -0.409   2.204   0.631  0.00  0.00    +0.030 A 
ATOM     31  C   UNL     1      -1.736   2.468   0.308  0.00  0.00    +0.049 A 
ATOM     32  N   UNL     1      -2.641   1.443   0.133  0.00  0.00    -0.322 N 
ATOM     33  H   UNL     1      -2.348   0.524   0.236  0.00  0.00    +0.169 HD
ATOM     34  C   UNL     1      -3.923   1.698  -0.180  0.00  0.00    +0.251 A 
ATOM     35  O   UNL     1      -4.696   0.767  -0.329  0.00  0.00    -0.268 OA
ATOM     36  C   UNL     1       1.914   2.959   1.139  0.00  0.00    +0.044 C 
ATOM     37  C   UNL     1       1.041   5.687   0.832  0.00  0.00    +0.044 C 
ENDBRANCH  23  24
ENDBRANCH   1  23
TORSDOF 9
