REMARK  Name = ZINC63140104
REMARK  9 active torsions:
REMARK  status: ('A' for Active; 'I' for Inactive)
REMARK    1  A    between atoms: C_1  and  C_2
REMARK    2  A    between atoms: C_2  and  C_3
REMARK    3  A    between atoms: C_2  and  C_4
REMARK    4  A    between atoms: C_7  and  C_10
REMARK    5  A    between atoms: N_29  and  C_32
REMARK    6  A    between atoms: C_32  and  C_33
REMARK    7  A    between atoms: C_33  and  C_34
REMARK    8  A    between atoms: C_37  and  O_40
REMARK    9  A    between atoms: O_40  and  C_41
REMARK                            x       y       z     vdW  Elec       q    Type
REMARK                         _______ _______ _______ _____ _____    ______ ____
ROOT
ATOM      1  C   UNL     1      -5.419  -2.005   0.043  0.00  0.00    +0.133 C 
ATOM      2  C   UNL     1      -6.283  -1.119  -0.854  0.00  0.00    +0.131 C 
ATOM      3  C   UNL     1      -5.927  -1.505  -2.288  0.00  0.00    -0.034 C 
ATOM      4  C   UNL     1      -5.441  -0.415  -2.867  0.00  0.00    -0.001 A 
ATOM      5  C   UNL     1      -4.961  -0.165  -4.236  0.00  0.00    +0.010 A 
ATOM      6  C   UNL     1      -4.518   1.094  -4.495  0.00  0.00    +0.001 A 
ATOM      7  C   UNL     1      -4.505   2.116  -3.541  0.00  0.00    +0.002 A 
ATOM      8  C   UNL     1      -4.929   1.975  -2.260  0.00  0.00    +0.026 A 
ATOM      9  C   UNL     1      -5.419   0.696  -1.867  0.00  0.00    +0.043 A 
ATOM     10  N   UNL     1      -5.899   0.291  -0.709  0.00  0.00    -0.375 N 
ATOM     11  C   UNL     1      -6.122  -2.909  -2.789  0.00  0.00    +0.065 C 
ATOM     12  C   UNL     1      -5.704  -3.893  -1.727  0.00  0.00    +0.167 C 
ATOM     13  N   UNL     1      -5.415  -3.390  -0.403  0.00  0.00    -0.279 N 
ATOM     14  C   UNL     1      -5.050  -4.341   0.519  0.00  0.00    +0.234 C 
ATOM     15  O   UNL     1      -4.848  -4.055   1.680  0.00  0.00    -0.274 OA
ATOM     16  C   UNL     1      -4.912  -5.763   0.018  0.00  0.00    +0.203 C 
ATOM     17  N   UNL     1      -4.189  -5.737  -1.267  0.00  0.00    -0.291 N 
ATOM     18  C   UNL     1      -4.591  -4.807  -2.176  0.00  0.00    +0.237 C 
ATOM     19  O   UNL     1      -4.088  -4.721  -3.276  0.00  0.00    -0.274 OA
ATOM     20  H   UNL     1      -5.984   0.819   0.100  0.00  0.00    +0.160 HD
ENDROOT
BRANCH   1  24
ATOM     21  C   UNL     1      -1.412  -0.526   0.013  0.00  0.00    -0.045 A 
ATOM     22  C   UNL     1      -2.259  -0.204   1.056  0.00  0.00    +0.004 A 
ATOM     23  C   UNL     1      -3.556  -0.683   1.066  0.00  0.00    +0.006 A 
ATOM     24  C   UNL     1      -4.006  -1.482   0.032  0.00  0.00    -0.025 A 
ATOM     25  C   UNL     1      -3.159  -1.803  -1.012  0.00  0.00    +0.006 A 
ATOM     26  C   UNL     1      -1.863  -1.321  -1.024  0.00  0.00    +0.004 A 
BRANCH  21  28
ATOM     27  C   UNL     1      -0.019   1.526   0.010  0.00  0.00    +0.012 C 
ATOM     28  C   UNL     1       0.002  -0.004   0.002  0.00  0.00    +0.013 C 
ATOM     29  C   UNL     1       0.742  -0.511   1.242  0.00  0.00    +0.012 C 
ENDBRANCH  21  28
ENDBRANCH   1  24
BRANCH  17  30
ATOM     30  C   UNL     1      -3.091  -6.666  -1.550  0.00  0.00    +0.113 C 
BRANCH  30  31
ATOM     31  C   UNL     1      -3.651  -7.934  -2.198  0.00  0.00    +0.054 C 
BRANCH  31  32
ATOM     32  C   UNL     1      -2.522  -8.889  -2.490  0.00  0.00    -0.046 A 
ATOM     33  C   UNL     1      -1.864  -8.830  -3.704  0.00  0.00    +0.007 A 
ATOM     34  C   UNL     1      -0.829  -9.704  -3.974  0.00  0.00    +0.046 A 
ATOM     35  C   UNL     1      -0.450 -10.642  -3.025  0.00  0.00    +0.120 A 
ATOM     36  C   UNL     1      -1.112 -10.699  -1.807  0.00  0.00    +0.046 A 
ATOM     37  C   UNL     1      -2.142  -9.819  -1.540  0.00  0.00    +0.007 A 
BRANCH  35  38
ATOM     38  O   UNL     1       0.567 -11.504  -3.288  0.00  0.00    -0.495 OA
ATOM     39  C   UNL     1       0.903 -12.443  -2.264  0.00  0.00    +0.277 C 
ENDBRANCH  35  38
ENDBRANCH  31  32
ENDBRANCH  30  31
ENDBRANCH  17  30
TORSDOF 6
