REMARK  Name = ZINC63279466
REMARK  6 active torsions:
REMARK  status: ('A' for Active; 'I' for Inactive)
REMARK    1  A    between atoms: C_1  and  C_2
REMARK    2  A    between atoms: C_5  and  C_8
REMARK    3  A    between atoms: C_19  and  C_21
REMARK    4  A    between atoms: N_22  and  C_23
REMARK    5  A    between atoms: C_23  and  C_24
REMARK    6  A    between atoms: C_24  and  C_25
REMARK                            x       y       z     vdW  Elec       q    Type
REMARK                         _______ _______ _______ _____ _____    ______ ____
ROOT
ATOM      1  C   UNL     1       0.059  -4.275  -0.021  0.00  0.00    +0.198 C 
ATOM      2  N   UNL     1      -0.663  -4.783  -1.201  0.00  0.00    -0.295 N 
ATOM      3  C   UNL     1      -2.033  -4.868  -1.161  0.00  0.00    +0.180 C 
ATOM      4  N   UNL     1      -2.712  -4.790  -0.061  0.00  0.00    -0.215 NA
ATOM      5  C   UNL     1      -2.091  -4.566   1.239  0.00  0.00    +0.290 C 
ATOM      6  N   UNL     1      -0.650  -4.797   1.162  0.00  0.00    -0.238 N 
ATOM      7  C   UNL     1       0.023  -5.461   2.112  0.00  0.00    +0.245 C 
ATOM      8  O   UNL     1       1.240  -5.499   2.075  0.00  0.00    -0.270 OA
ATOM      9  C   UNL     1      -0.668  -6.117   3.156  0.00  0.00    +0.085 C 
ATOM     10  C   UNL     1      -2.013  -6.065   3.204  0.00  0.00    +0.008 C 
ATOM     11  N   UNL     1      -2.711  -5.375   2.273  0.00  0.00    -0.311 N 
ATOM     12  C   UNL     1      -2.746  -6.802   4.296  0.00  0.00    +0.060 C 
ATOM     13  N   UNL     1      -2.715  -5.044  -2.342  0.00  0.00    -0.317 N 
ATOM     14  H   UNL     1      -3.679  -5.416   2.312  0.00  0.00    +0.149 HD
ATOM     15  H   UNL     1      -2.227  -5.106  -3.178  0.00  0.00    +0.149 HD
ATOM     16  H   UNL     1      -0.177  -5.054  -1.995  0.00  0.00    +0.151 HD
ENDROOT
BRANCH   1  21
ATOM     17  C   UNL     1      -0.018   1.503   0.010  0.00  0.00    +0.044 C 
ATOM     18  C   UNL     1       0.002  -0.004   0.002  0.00  0.00    -0.050 A 
ATOM     19  C   UNL     1       0.006  -0.689  -1.199  0.00  0.00    +0.004 A 
ATOM     20  C   UNL     1       0.025  -2.071  -1.206  0.00  0.00    +0.007 A 
ATOM     21  C   UNL     1       0.040  -2.768  -0.013  0.00  0.00    -0.009 A 
ATOM     22  C   UNL     1       0.037  -2.084   1.188  0.00  0.00    +0.007 A 
ATOM     23  C   UNL     1       0.023  -0.702   1.195  0.00  0.00    +0.004 A 
ENDBRANCH   1  21
BRANCH  13  24
ATOM     24  C   UNL     1      -4.176  -5.139  -2.337  0.00  0.00    +0.108 C 
BRANCH  24  25
ATOM     25  C   UNL     1      -4.680  -5.331  -3.769  0.00  0.00    +0.052 C 
BRANCH  25  26
ATOM     26  C   UNL     1      -6.184  -5.428  -3.764  0.00  0.00    -0.040 C 
ATOM     27  C   UNL     1      -7.064  -4.424  -3.979  0.00  0.00    -0.001 A 
ATOM     28  C   UNL     1      -6.892  -2.996  -4.269  0.00  0.00    +0.010 A 
ATOM     29  C   UNL     1      -7.990  -2.224  -4.439  0.00  0.00    +0.001 A 
ATOM     30  C   UNL     1      -9.284  -2.752  -4.343  0.00  0.00    +0.002 A 
ATOM     31  C   UNL     1      -9.523  -4.054  -4.078  0.00  0.00    +0.026 A 
ATOM     32  C   UNL     1      -8.442  -4.958  -3.883  0.00  0.00    +0.043 A 
ATOM     33  N   UNL     1      -8.414  -6.242  -3.619  0.00  0.00    -0.380 N 
ATOM     34  C   UNL     1      -7.014  -6.669  -3.523  0.00  0.00    +0.144 C 
ATOM     35  H   UNL     1      -9.190  -6.814  -3.510  0.00  0.00    +0.160 HD
ENDBRANCH  25  26
ENDBRANCH  24  25
ENDBRANCH  13  24
TORSDOF 4
