REMARK  Name = ZINC37131411
REMARK  8 active torsions:
REMARK  status: ('A' for Active; 'I' for Inactive)
REMARK    1  A    between atoms: C_1  and  C_2
REMARK    2  A    between atoms: C_3  and  C_8
REMARK    3  A    between atoms: C_5  and  C_7
REMARK    4  A    between atoms: C_8  and  C_10
REMARK    5  A    between atoms: C_8  and  N_11
REMARK    6  A    between atoms: N_11  and  C_12
REMARK    7  A    between atoms: C_15  and  N_20
REMARK    8  A    between atoms: C_17  and  C_18
REMARK                            x       y       z     vdW  Elec       q    Type
REMARK                         _______ _______ _______ _____ _____    ______ ____
ROOT
ATOM      1  N   UNL     1      -3.235  -1.192  -0.967  0.00  0.00    -0.335 N 
ATOM      2  H   UNL     1      -2.940  -2.079  -1.225  0.00  0.00    +0.147 HD
ENDROOT
BRANCH   1   3
ATOM      3  C   UNL     1      -4.388  -0.653  -1.525  0.00  0.00    +0.045 A 
ATOM      4  C   UNL     1      -4.811   0.620  -1.162  0.00  0.00    +0.026 A 
ATOM      5  C   UNL     1      -5.956   1.153  -1.717  0.00  0.00    +0.034 A 
ATOM      6  C   UNL     1      -6.694   0.426  -2.638  0.00  0.00    +0.128 A 
ATOM      7  C   UNL     1      -6.290  -0.838  -3.010  0.00  0.00    +0.053 A 
ATOM      8  C   UNL     1      -5.130  -1.389  -2.462  0.00  0.00    +0.075 A 
BRANCH   6   9
ATOM      9  N   UNL     1      -7.920   1.010  -3.225  0.00  0.00    +0.056 N 
ATOM     10  O   UNL     1      -8.277   2.119  -2.900  0.00  0.00    -0.126 OA
ATOM     11  O   UNL     1      -8.566   0.379  -4.029  0.00  0.00    -0.126 OA
ENDBRANCH   6   9
BRANCH   8  12
ATOM     12  C   UNL     1      -4.702  -2.700  -2.849  0.00  0.00    +0.101 C 
ATOM     13  N   UNL     1      -4.363  -3.740  -3.156  0.00  0.00    -0.191 NA
ENDBRANCH   8  12
ENDBRANCH   1   3
BRANCH   1  14
ATOM     14  C   UNL     1      -2.464  -0.419   0.011  0.00  0.00    +0.117 C 
ATOM     15  C   UNL     1      -3.058  -0.625   1.405  0.00  0.00    +0.034 C 
BRANCH  14  18
ATOM     16  C   UNL     1      -0.018   1.503   0.010  0.00  0.00    +0.053 C 
ATOM     17  C   UNL     1       0.002  -0.004   0.002  0.00  0.00    +0.011 A 
ATOM     18  C   UNL     1      -1.031  -0.885   0.002  0.00  0.00    +0.071 A 
ATOM     19  N   UNL     1      -0.723  -2.167  -0.007  0.00  0.00    -0.247 NA
ATOM     20  C   UNL     1       0.524  -2.568  -0.014  0.00  0.00    +0.076 A 
ATOM     21  S   UNL     1       1.391  -1.126  -0.018  0.00  0.00    -0.077 S 
ATOM     22  C   UNL     1       1.053  -3.979  -0.024  0.00  0.00    +0.073 C 
ENDBRANCH  14  18
ENDBRANCH   1  14
TORSDOF 5
