REMARK  Name = ZINC60094060
REMARK  7 active torsions:
REMARK  status: ('A' for Active; 'I' for Inactive)
REMARK    1  A    between atoms: C_1  and  N_2
REMARK    2  A    between atoms: N_2  and  C_3
REMARK    3  A    between atoms: N_2  and  C_4
REMARK    4  A    between atoms: C_4  and  C_6
REMARK    5  A    between atoms: C_4  and  C_24
REMARK    6  A    between atoms: C_6  and  N_7
REMARK    7  A    between atoms: C_8  and  C_10
REMARK                            x       y       z     vdW  Elec       q    Type
REMARK                         _______ _______ _______ _____ _____    ______ ____
ROOT
ATOM      1  N   UNL     1      -1.766   1.531  -1.169  0.00  0.00    -0.314 N 
ATOM      2  C   UNL     1      -2.260   2.263  -2.188  0.00  0.00    +0.248 C 
ATOM      3  O   UNL     1      -2.935   1.732  -3.045  0.00  0.00    -0.272 OA
ATOM      4  H   UNL     1      -1.227   1.956  -0.484  0.00  0.00    +0.149 HD
ENDROOT
BRANCH   2   5
ATOM      5  C   UNL     1      -1.974   3.741  -2.262  0.00  0.00    +0.169 C 
ATOM      6  C   UNL     1      -0.473   4.067  -2.250  0.00  0.00    +0.056 C 
ATOM      7  C   UNL     1      -0.170   4.030  -3.770  0.00  0.00    +0.100 C 
ATOM      8  C   UNL     1      -1.490   4.377  -4.422  0.00  0.00    +0.221 C 
ATOM      9  O   UNL     1      -1.640   4.614  -5.602  0.00  0.00    -0.275 OA
ATOM     10  N   UNL     1      -2.485   4.384  -3.497  0.00  0.00    -0.246 N 
ATOM     11  C   UNL     1      -3.790   4.900  -3.363  0.00  0.00    +0.053 A 
ATOM     12  C   UNL     1      -4.686   5.153  -4.413  0.00  0.00    +0.044 A 
ATOM     13  C   UNL     1      -5.938   5.671  -4.167  0.00  0.00    +0.043 A 
ATOM     14  C   UNL     1      -6.353   5.957  -2.878  0.00  0.00    +0.021 A 
ATOM     15  C   UNL     1      -5.490   5.711  -1.822  0.00  0.00    +0.018 A 
ATOM     16  C   UNL     1      -4.243   5.190  -2.070  0.00  0.00    +0.032 A 
ATOM     17  S   UNL     1      -2.889   4.722  -1.008  0.00  0.00    -0.088 S 
ATOM     18 CL   UNL     1      -7.014   5.970  -5.496  0.00  0.00    -0.083 Cl
ENDBRANCH   2   5
BRANCH   1  19
ATOM     19  C   UNL     1      -2.044   0.095  -1.098  0.00  0.00    +0.093 C 
BRANCH  19  20
ATOM     20  C   UNL     1      -1.281  -0.514   0.081  0.00  0.00    -0.021 C 
BRANCH  20  21
ATOM     21  C   UNL     1      -1.799   0.070   1.370  0.00  0.00    -0.059 A 
ATOM     22  C   UNL     1      -2.967  -0.414   1.928  0.00  0.00    +0.002 A 
ATOM     23  C   UNL     1      -3.442   0.122   3.111  0.00  0.00    +0.000 A 
ATOM     24  C   UNL     1      -2.748   1.141   3.735  0.00  0.00    +0.000 A 
ATOM     25  C   UNL     1      -1.579   1.625   3.178  0.00  0.00    +0.000 A 
ATOM     26  C   UNL     1      -1.102   1.086   1.997  0.00  0.00    +0.002 A 
ENDBRANCH  20  21
BRANCH  20  28
ATOM     27  C   UNL     1      -0.970  -2.540  -1.166  0.00  0.00    -0.096 C 
ATOM     28  N   UNL     1      -1.476  -1.970   0.090  0.00  0.00    +0.382 N 
ATOM     29  C   UNL     1      -0.744  -2.555   1.222  0.00  0.00    -0.096 C 
ATOM     30  H   UNL     1      -2.459  -2.178   0.182  0.00  0.00    -0.082 HD
ENDBRANCH  20  28
ENDBRANCH  19  20
ENDBRANCH   1  19
TORSDOF 5
