REMARK  Name = ZINC09694509
REMARK  8 active torsions:
REMARK  status: ('A' for Active; 'I' for Inactive)
REMARK    1  A    between atoms: C_1  and  O_2
REMARK    2  A    between atoms: O_2  and  C_3
REMARK    3  A    between atoms: C_6  and  C_13
REMARK    4  A    between atoms: C_7  and  O_11
REMARK    5  A    between atoms: C_8  and  O_9
REMARK    6  A    between atoms: O_9  and  C_10
REMARK    7  A    between atoms: O_11  and  C_12
REMARK    8  A    between atoms: C_15  and  C_24
REMARK                            x       y       z     vdW  Elec       q    Type
REMARK                         _______ _______ _______ _____ _____    ______ ____
ROOT
ATOM      1  C   UNL     1      -3.126   5.734   0.524  0.00  0.00    +0.002 A 
ATOM      2  C   UNL     1      -2.974   6.631  -0.527  0.00  0.00    +0.037 A 
ATOM      3  C   UNL     1      -4.096   7.291  -1.035  0.00  0.00    +0.074 A 
ATOM      4  N   UNL     1      -5.305   7.093  -0.533  0.00  0.00    -0.227 NA
ATOM      5  C   UNL     1      -5.513   6.251   0.477  0.00  0.00    +0.166 A 
ATOM      6  C   UNL     1      -4.427   5.540   1.042  0.00  0.00    +0.066 A 
ATOM      7  C   UNL     1      -4.683   4.656   2.111  0.00  0.00    +0.129 A 
ATOM      8  N   UNL     1      -5.936   4.532   2.537  0.00  0.00    -0.220 NA
ATOM      9  C   UNL     1      -6.921   5.215   1.980  0.00  0.00    +0.225 A 
ATOM     10  N   UNL     1      -6.739   6.050   0.985  0.00  0.00    -0.216 NA
ATOM     11  N   UNL     1      -3.662   3.939   2.698  0.00  0.00    -0.343 N 
ATOM     12  H   UNL     1      -3.663   3.788   3.656  0.00  0.00    +0.144 HD
ATOM     13  H   UNL     1      -2.942   3.586   2.152  0.00  0.00    +0.144 HD
ENDROOT
BRANCH   3  14
ATOM     14  C   UNL     1      -3.928   8.242  -2.159  0.00  0.00    +0.004 A 
ATOM     15  C   UNL     1      -2.683   8.387  -2.770  0.00  0.00    +0.014 A 
ATOM     16  C   UNL     1      -2.527   9.272  -3.817  0.00  0.00    +0.050 A 
ATOM     17  C   UNL     1      -3.607  10.020  -4.265  0.00  0.00    +0.166 A 
ATOM     18  C   UNL     1      -4.854   9.878  -3.658  0.00  0.00    +0.167 A 
ATOM     19  C   UNL     1      -5.015   8.988  -2.612  0.00  0.00    +0.059 A 
ATOM     20  O   UNL     1      -5.737  10.715  -4.276  0.00  0.00    -0.453 OA
ATOM     21  C   UNL     1      -5.121  11.066  -5.529  0.00  0.00    +0.466 C 
ATOM     22  O   UNL     1      -3.711  10.945  -5.263  0.00  0.00    -0.453 OA
ENDBRANCH   3  14
BRANCH   1  26
ATOM     23  C   UNL     1       0.222   3.657   2.134  0.00  0.00    +0.165 A 
ATOM     24  C   UNL     1      -0.236   3.357   0.858  0.00  0.00    +0.050 A 
ATOM     25  C   UNL     1      -1.319   4.029   0.333  0.00  0.00    +0.016 A 
ATOM     26  C   UNL     1      -1.964   5.012   1.086  0.00  0.00    +0.029 A 
ATOM     27  C   UNL     1      -1.507   5.312   2.375  0.00  0.00    +0.173 A 
ATOM     28  C   UNL     1      -0.415   4.631   2.895  0.00  0.00    +0.204 A 
BRANCH  23  30
ATOM     29  C   UNL     1       1.901   2.006   1.808  0.00  0.00    +0.277 C 
ATOM     30  O   UNL     1       1.294   2.994   2.643  0.00  0.00    -0.491 OA
ENDBRANCH  23  30
BRANCH  28  31
ATOM     31  O   UNL     1       0.034   4.919   4.147  0.00  0.00    -0.488 OA
ATOM     32  C   UNL     1      -0.533   4.175   5.227  0.00  0.00    +0.277 C 
ENDBRANCH  28  31
BRANCH  27  33
ATOM     33  O   UNL     1      -2.129   6.268   3.113  0.00  0.00    -0.491 OA
ATOM     34  C   UNL     1      -1.578   7.586   3.065  0.00  0.00    +0.277 C 
ENDBRANCH  27  33
ENDBRANCH   1  26
TORSDOF 5
