REMARK  Name = ZINC36915929
REMARK  6 active torsions:
REMARK  status: ('A' for Active; 'I' for Inactive)
REMARK    1  A    between atoms: C_1  and  C_2
REMARK    2  A    between atoms: C_2  and  C_3
REMARK    3  A    between atoms: C_3  and  C_5
REMARK    4  A    between atoms: C_3  and  C_7
REMARK    5  A    between atoms: C_7  and  C_9
REMARK    6  A    between atoms: C_10  and  C_14
REMARK                            x       y       z     vdW  Elec       q    Type
REMARK                         _______ _______ _______ _____ _____    ______ ____
ROOT
ATOM      1  C   UNL     1       0.657  -2.014   1.298  0.00  0.00    +0.187 C 
ATOM      2  O   UNL     1       0.581  -2.657   0.270  0.00  0.00    -0.290 OA
ENDROOT
BRANCH   1   3
ATOM      3  C   UNL     1       0.665  -2.676   2.546  0.00  0.00    +0.059 A 
ATOM      4  C   UNL     1       0.602  -4.040   2.816  0.00  0.00    -0.033 A 
ATOM      5  C   UNL     1       0.630  -4.384   4.143  0.00  0.00    +0.011 A 
ATOM      6  C   UNL     1       0.715  -3.404   5.079  0.00  0.00    +0.046 A 
ATOM      7  S   UNL     1       0.767  -1.983   4.185  0.00  0.00    -0.093 S 
ATOM      8  C   UNL     1       0.507  -5.071   1.721  0.00  0.00    +0.045 C 
ENDBRANCH   1   3
BRANCH   1   9
ATOM      9  C   UNL     1       0.742  -0.511   1.242  0.00  0.00    +0.163 C 
BRANCH   9  11
ATOM     10  C   UNL     1      -0.019   1.526   0.010  0.00  0.00    +0.005 C 
ATOM     11  C   UNL     1       0.002  -0.004   0.002  0.00  0.00    +0.023 C 
ENDBRANCH   9  11
BRANCH   9  12
ATOM     12  C   UNL     1       2.154  -0.102   1.171  0.00  0.00    +0.074 C 
ATOM     13  N   UNL     1       3.244   0.214   1.117  0.00  0.00    -0.196 NA
ENDBRANCH   9  12
ENDBRANCH   1   9
TORSDOF 4
