REMARK  Name = ZINC39016129
REMARK  9 active torsions:
REMARK  status: ('A' for Active; 'I' for Inactive)
REMARK    1  A    between atoms: C_1  and  O_2
REMARK    2  A    between atoms: O_2  and  C_3
REMARK    3  A    between atoms: C_5  and  O_28
REMARK    4  A    between atoms: C_6  and  C_11
REMARK    5  A    between atoms: C_7  and  O_9
REMARK    6  A    between atoms: O_9  and  C_10
REMARK    7  A    between atoms: N_12  and  N_13
REMARK    8  A    between atoms: C_14  and  C_20
REMARK    9  A    between atoms: O_28  and  C_29
REMARK                            x       y       z     vdW  Elec       q    Type
REMARK                         _______ _______ _______ _____ _____    ______ ____
ROOT
ATOM      1  N   UNL     1       3.068  -4.412  -5.571  0.00  0.00    -0.172 N 
ATOM      2  C   UNL     1       3.105  -5.855  -5.875  0.00  0.00    +0.265 C 
ATOM      3  N   UNL     1       3.766  -5.920  -7.188  0.00  0.00    -0.189 NA
ATOM      4  N   UNL     1       4.037  -4.769  -7.539  0.00  0.00    -0.219 N 
ATOM      5  C   UNL     1       3.651  -3.825  -6.639  0.00  0.00    +0.174 C 
ATOM      6  S   UNL     1       3.876  -2.139  -6.829  0.00  0.00    -0.015 S 
ATOM      7  H   UNL     1       4.479  -4.558  -8.376  0.00  0.00    +0.176 HD
ENDROOT
BRANCH   2   8
ATOM      8  C   UNL     1       1.709  -6.415  -5.954  0.00  0.00    +0.016 A 
ATOM      9  C   UNL     1       0.675  -5.791  -5.281  0.00  0.00    +0.010 A 
ATOM     10  C   UNL     1      -0.606  -6.304  -5.353  0.00  0.00    +0.020 A 
ATOM     11  C   UNL     1      -0.855  -7.444  -6.098  0.00  0.00    +0.042 A 
ATOM     12  C   UNL     1       0.179  -8.068  -6.772  0.00  0.00    +0.040 A 
ATOM     13  C   UNL     1       1.460  -7.551  -6.704  0.00  0.00    +0.049 A 
ATOM     14 CL   UNL     1       2.758  -8.331  -7.554  0.00  0.00    -0.083 Cl
ATOM     15 CL   UNL     1      -2.464  -8.089  -6.187  0.00  0.00    -0.083 Cl
ENDBRANCH   2   8
BRANCH   1  17
ATOM     16  C   UNL     1       2.683  -2.509  -4.266  0.00  0.00    +0.145 C 
ATOM     17  N   UNL     1       2.540  -3.790  -4.432  0.00  0.00    -0.183 NA
BRANCH  16  21
ATOM     18  C   UNL     1       0.786  -0.563  -0.999  0.00  0.00    +0.127 A 
ATOM     19  C   UNL     1       1.558   0.173  -1.887  0.00  0.00    +0.092 A 
ATOM     20  C   UNL     1       2.179  -0.453  -2.953  0.00  0.00    +0.136 A 
ATOM     21  C   UNL     1       2.027  -1.835  -3.135  0.00  0.00    +0.078 A 
ATOM     22  C   UNL     1       1.245  -2.572  -2.233  0.00  0.00    +0.136 A 
ATOM     23  C   UNL     1       0.634  -1.932  -1.169  0.00  0.00    +0.092 A 
BRANCH  18  25
ATOM     24  C   UNL     1       0.375   1.470   0.163  0.00  0.00    +0.277 C 
ATOM     25  O   UNL     1       0.179   0.059   0.045  0.00  0.00    -0.495 OA
ENDBRANCH  18  25
BRANCH  22  26
ATOM     26  O   UNL     1       1.092  -3.911  -2.402  0.00  0.00    -0.494 OA
ATOM     27  C   UNL     1       0.282  -4.596  -1.445  0.00  0.00    +0.277 C 
ENDBRANCH  22  26
BRANCH  20  28
ATOM     28  O   UNL     1       2.933   0.269  -3.821  0.00  0.00    -0.494 OA
ATOM     29  C   UNL     1       3.043   1.672  -3.574  0.00  0.00    +0.277 C 
ENDBRANCH  20  28
ENDBRANCH  16  21
ENDBRANCH   1  17
TORSDOF 6
