REMARK  Name = ZINC39836393
REMARK  9 active torsions:
REMARK  status: ('A' for Active; 'I' for Inactive)
REMARK    1  A    between atoms: C_1  and  C_2
REMARK    2  A    between atoms: C_2  and  C_3
REMARK    3  A    between atoms: C_6  and  O_9
REMARK    4  A    between atoms: O_9  and  C_10
REMARK    5  A    between atoms: C_10  and  C_11
REMARK    6  A    between atoms: N_13  and  C_14
REMARK    7  A    between atoms: C_15  and  C_25
REMARK    8  A    between atoms: C_20  and  C_24
REMARK    9  A    between atoms: N_27  and  C_28
REMARK                            x       y       z     vdW  Elec       q    Type
REMARK                         _______ _______ _______ _____ _____    ______ ____
ROOT
ATOM      1  C   UNL     1       6.376  -3.214  -7.233  0.00  0.00    +0.084 A 
ATOM      2  C   UNL     1       7.683  -3.534  -7.564  0.00  0.00    +0.069 A 
ATOM      3  C   UNL     1       7.933  -3.980  -8.924  0.00  0.00    -0.023 A 
ATOM      4  C   UNL     1       6.830  -4.025  -9.702  0.00  0.00    -0.004 A 
ATOM      5  S   UNL     1       5.514  -3.496  -8.646  0.00  0.00    -0.077 S 
ATOM      6  C   UNL     1       6.760  -4.438 -11.140  0.00  0.00    +0.046 C 
ATOM      7  C   UNL     1       8.186  -4.445 -11.710  0.00  0.00    -0.009 C 
ATOM      8  C   UNL     1       9.104  -5.196 -10.741  0.00  0.00    +0.008 C 
ATOM      9  C   UNL     1       9.300  -4.374  -9.465  0.00  0.00    +0.037 C 
ATOM     10  C   UNL     1       8.191  -5.145 -13.070  0.00  0.00    +0.008 C 
ENDROOT
BRANCH   1  13
ATOM     11  C   UNL     1       4.577  -2.509  -5.864  0.00  0.00    +0.255 C 
ATOM     12  O   UNL     1       3.819  -2.664  -6.798  0.00  0.00    -0.272 OA
ATOM     13  N   UNL     1       5.891  -2.769  -6.012  0.00  0.00    -0.277 N 
ATOM     14  H   UNL     1       6.497  -2.645  -5.265  0.00  0.00    +0.155 HD
BRANCH  11  15
ATOM     15  C   UNL     1       4.050  -2.025  -4.538  0.00  0.00    +0.324 C 
BRANCH  15  16
ATOM     16  O   UNL     1       2.638  -1.822  -4.632  0.00  0.00    -0.483 OA
BRANCH  16  20
ATOM     17  C   UNL     1       0.707  -0.490  -1.238  0.00  0.00    -0.047 A 
ATOM     18  C   UNL     1      -0.012  -0.718  -2.397  0.00  0.00    +0.007 A 
ATOM     19  C   UNL     1       0.632  -1.164  -3.534  0.00  0.00    +0.046 A 
ATOM     20  C   UNL     1       2.002  -1.383  -3.514  0.00  0.00    +0.121 A 
ATOM     21  C   UNL     1       2.722  -1.153  -2.350  0.00  0.00    +0.046 A 
ATOM     22  C   UNL     1       2.074  -0.702  -1.216  0.00  0.00    +0.007 A 
BRANCH  17  24
ATOM     23  C   UNL     1      -0.019   1.526   0.010  0.00  0.00    +0.009 C 
ATOM     24  C   UNL     1       0.002  -0.004   0.002  0.00  0.00    +0.032 C 
ENDBRANCH  17  24
ENDBRANCH  16  20
ENDBRANCH  15  16
ENDBRANCH  11  15
ENDBRANCH   1  13
BRANCH   2  25
ATOM     25  C   UNL     1       8.768  -3.425  -6.584  0.00  0.00    +0.247 C 
ATOM     26  O   UNL     1       9.051  -4.378  -5.881  0.00  0.00    -0.270 OA
ATOM     27  N   UNL     1       9.454  -2.271  -6.463  0.00  0.00    -0.307 N 
ATOM     28  H   UNL     1       9.229  -1.512  -7.023  0.00  0.00    +0.149 HD
BRANCH  27  29
ATOM     29  C   UNL     1      10.538  -2.163  -5.483  0.00  0.00    +0.096 C 
ATOM     30  C   UNL     1      11.842  -2.688  -6.106  0.00  0.00    +0.046 C 
ATOM     31  C   UNL     1      13.021  -2.277  -5.178  0.00  0.00    +0.168 C 
ATOM     32  S   UNL     1      12.513  -0.565  -4.725  0.00  0.00    -0.029 S 
ATOM     33  O   UNL     1      13.101   0.349  -5.641  0.00  0.00    -0.174 OA
ATOM     34  O   UNL     1      12.707  -0.380  -3.330  0.00  0.00    -0.174 OA
ATOM     35  C   UNL     1      10.711  -0.681  -5.070  0.00  0.00    +0.188 C 
ENDBRANCH  27  29
ENDBRANCH   2  25
TORSDOF 7
