REMARK  Name = ZINC02595210
REMARK  9 active torsions:
REMARK  status: ('A' for Active; 'I' for Inactive)
REMARK    1  A    between atoms: C_1  and  C_2
REMARK    2  A    between atoms: C_2  and  C_3
REMARK    3  A    between atoms: C_2  and  O_4
REMARK    4  A    between atoms: O_4  and  C_5
REMARK    5  A    between atoms: C_8  and  C_11
REMARK    6  A    between atoms: N_13  and  C_14
REMARK    7  A    between atoms: C_14  and  C_28
REMARK    8  A    between atoms: N_17  and  C_21
REMARK    9  A    between atoms: C_18  and  O_20
REMARK                            x       y       z     vdW  Elec       q    Type
REMARK                         _______ _______ _______ _____ _____    ______ ____
ROOT
ATOM      1  C   UNL     1      -5.835  -1.513  -6.306  0.00  0.00    +0.304 C 
ATOM      2  C   UNL     1      -5.117  -2.606  -7.073  0.00  0.00    +0.279 C 
ATOM      3  O   UNL     1      -3.963  -2.609  -7.446  0.00  0.00    -0.270 OA
ATOM      4  N   UNL     1      -6.040  -3.575  -7.248  0.00  0.00    -0.219 N 
ATOM      5  C   UNL     1      -7.236  -3.212  -6.685  0.00  0.00    +0.288 C 
ATOM      6  N   UNL     1      -7.196  -2.044  -6.127  0.00  0.00    -0.192 NA
ENDROOT
BRANCH   4   7
ATOM      7  C   UNL     1      -5.798  -4.840  -7.946  0.00  0.00    +0.086 C 
ATOM      8  C   UNL     1      -6.707  -4.907  -9.191  0.00  0.00    +0.023 C 
ATOM      9  C   UNL     1      -6.124  -5.904 -10.155  0.00  0.00    +0.002 C 
ATOM     10  C   UNL     1      -6.733  -7.309  -9.989  0.00  0.00    +0.000 C 
ATOM     11  C   UNL     1      -6.916  -7.711  -8.513  0.00  0.00    +0.000 C 
ATOM     12  C   UNL     1      -5.742  -7.315  -7.659  0.00  0.00    +0.002 C 
ATOM     13  C   UNL     1      -6.038  -5.941  -7.024  0.00  0.00    +0.023 C 
ENDBRANCH   4   7
BRANCH   1  16
ATOM     14  C   UNL     1      -3.874  -1.033  -4.943  0.00  0.00    +0.246 C 
ATOM     15  O   UNL     1      -3.229  -0.902  -5.966  0.00  0.00    -0.270 OA
ATOM     16  N   UNL     1      -5.195  -1.290  -5.008  0.00  0.00    -0.273 N 
ATOM     17  H   UNL     1      -5.722  -1.326  -4.194  0.00  0.00    +0.152 HD
BRANCH  14  21
ATOM     18  C   UNL     1      -1.961  -0.680  -1.168  0.00  0.00    +0.121 A 
ATOM     19  C   UNL     1      -1.222  -0.532  -2.336  0.00  0.00    +0.046 A 
ATOM     20  C   UNL     1      -1.839  -0.645  -3.562  0.00  0.00    +0.016 A 
ATOM     21  C   UNL     1      -3.209  -0.911  -3.631  0.00  0.00    +0.037 A 
ATOM     22  C   UNL     1      -3.948  -1.060  -2.455  0.00  0.00    +0.016 A 
ATOM     23  C   UNL     1      -3.323  -0.950  -1.232  0.00  0.00    +0.046 A 
BRANCH  18  24
ATOM     24  O   UNL     1      -1.349  -0.568   0.038  0.00  0.00    -0.489 OA
BRANCH  24  26
ATOM     25  C   UNL     1       0.141   1.332  -0.050  0.00  0.00    +0.051 C 
ATOM     26  C   UNL     1       0.029  -0.191   0.034  0.00  0.00    +0.167 C 
ATOM     27  C   UNL     1       0.695  -0.682   1.321  0.00  0.00    +0.051 C 
ENDBRANCH  24  26
ENDBRANCH  18  24
ENDBRANCH  14  21
ENDBRANCH   1  16
BRANCH   1  28
ATOM     28  C   UNL     1      -5.868  -0.216  -7.118  0.00  0.00    +0.440 C 
ATOM     29  F   UNL     1      -4.561   0.162  -7.444  0.00  0.00    -0.166 F 
ATOM     30  F   UNL     1      -6.602  -0.419  -8.291  0.00  0.00    -0.166 F 
ATOM     31  F   UNL     1      -6.470   0.793  -6.359  0.00  0.00    -0.166 F 
ENDBRANCH   1  28
BRANCH   5  32
ATOM     32  O   UNL     1      -8.340  -3.990  -6.709  0.00  0.00    -0.481 OA
ATOM     33  H   UNL     1      -9.107  -3.598  -6.269  0.00  0.00    +0.295 HD
ENDBRANCH   5  32
TORSDOF 7
