REMARK  Name = ZINC07425532
REMARK  6 active torsions:
REMARK  status: ('A' for Active; 'I' for Inactive)
REMARK    1  A    between atoms: C_1  and  C_2
REMARK    2  A    between atoms: N_12  and  C_13
REMARK    3  A    between atoms: C_13  and  C_14
REMARK    4  A    between atoms: C_14  and  C_15
REMARK    5  A    between atoms: C_14  and  C_16
REMARK    6  A    between atoms: N_23  and  C_24
REMARK                            x       y       z     vdW  Elec       q    Type
REMARK                         _______ _______ _______ _____ _____    ______ ____
ROOT
ATOM      1  C   UNL     1      -6.348   2.624  -2.253  0.00  0.00    +0.007 C 
ATOM      2  C   UNL     1      -5.471   2.751  -1.006  0.00  0.00    -0.011 C 
ATOM      3  C   UNL     1      -5.025   1.359  -0.550  0.00  0.00    +0.022 C 
ATOM      4  C   UNL     1      -4.098   1.496   0.660  0.00  0.00    +0.108 C 
ATOM      5  N   UNL     1      -2.931   2.309   0.294  0.00  0.00    -0.301 N 
ATOM      6  C   UNL     1      -3.331   3.665  -0.102  0.00  0.00    +0.108 C 
ATOM      7  C   UNL     1      -4.234   3.592  -1.335  0.00  0.00    +0.022 C 
ATOM      8  C   UNL     1      -2.014   2.345   1.320  0.00  0.00    +0.201 A 
ATOM      9  N   UNL     1      -2.245   2.810   2.531  0.00  0.00    -0.196 NA
ATOM     10  C   UNL     1      -1.145   2.702   3.278  0.00  0.00    +0.170 A 
ATOM     11  C   UNL     1      -0.156   2.127   2.487  0.00  0.00    +0.153 A 
ATOM     12  N   UNL     1      -0.731   1.904   1.243  0.00  0.00    -0.306 N 
ATOM     13  C   UNL     1       1.118   1.900   3.038  0.00  0.00    +0.280 A 
ATOM     14  O   UNL     1       1.999   1.397   2.363  0.00  0.00    -0.265 OA
ATOM     15  N   UNL     1       1.353   2.244   4.320  0.00  0.00    -0.273 N 
ATOM     16  H   UNL     1       2.258   2.084   4.715  0.00  0.00    +0.173 HD
ATOM     17  C   UNL     1       0.391   2.800   5.076  0.00  0.00    +0.331 A 
ATOM     18  O   UNL     1       0.639   3.098   6.229  0.00  0.00    -0.246 OA
ATOM     19  N   UNL     1      -0.842   3.035   4.588  0.00  0.00    -0.280 N 
ATOM     20  C   UNL     1      -1.865   3.642   5.444  0.00  0.00    +0.155 C 
ENDROOT
BRANCH  12  21
ATOM     21  C   UNL     1      -0.079   1.312   0.072  0.00  0.00    +0.128 C 
BRANCH  21  22
ATOM     22  C   UNL     1      -0.390  -0.185   0.017  0.00  0.00    +0.003 C 
ATOM     23  C   UNL     1       0.186  -0.778  -1.270  0.00  0.00    +0.009 C 
ATOM     24  C   UNL     1       0.240  -0.881   1.225  0.00  0.00    +0.009 C 
ENDBRANCH  21  22
ENDBRANCH  12  21
TORSDOF 2
