REMARK  Name = ZINC63561388
REMARK  7 active torsions:
REMARK  status: ('A' for Active; 'I' for Inactive)
REMARK    1  A    between atoms: C_1  and  C_2
REMARK    2  A    between atoms: C_4  and  C_26
REMARK    3  A    between atoms: N_6  and  C_13
REMARK    4  A    between atoms: C_13  and  C_14
REMARK    5  A    between atoms: C_14  and  C_15
REMARK    6  A    between atoms: C_18  and  O_24
REMARK    7  A    between atoms: O_24  and  C_25
REMARK                            x       y       z     vdW  Elec       q    Type
REMARK                         _______ _______ _______ _____ _____    ______ ____
ROOT
ATOM      1  C   UNL     1      -0.044  -3.925   2.443  0.00  0.00    +0.067 C 
ATOM      2  C   UNL     1      -0.661  -2.728   1.767  0.00  0.00    +0.064 C 
ATOM      3  C   UNL     1      -0.843  -2.618   0.478  0.00  0.00    +0.013 C 
ATOM      4  C   UNL     1      -1.032  -3.097  -0.943  0.00  0.00    +0.138 C 
ATOM      5  N   UNL     1      -2.309  -2.454  -1.343  0.00  0.00    -0.288 N 
ATOM      6  C   UNL     1      -2.519  -1.343  -0.583  0.00  0.00    +0.247 C 
ATOM      7  O   UNL     1      -3.497  -0.626  -0.618  0.00  0.00    -0.273 OA
ATOM      8  C   UNL     1      -1.322  -1.168   0.302  0.00  0.00    +0.243 C 
ATOM      9  N   UNL     1      -1.543  -0.733   1.667  0.00  0.00    -0.170 NA
ATOM     10  N   UNL     1      -1.107  -1.623   2.417  0.00  0.00    -0.158 NA
ENDROOT
BRANCH   4  11
ATOM     11  C   UNL     1      -1.149  -4.598  -0.988  0.00  0.00    -0.004 A 
ATOM     12  C   UNL     1      -2.376  -5.203  -0.783  0.00  0.00    +0.008 A 
ATOM     13  C   UNL     1      -2.484  -6.580  -0.825  0.00  0.00    +0.020 A 
ATOM     14  C   UNL     1      -1.364  -7.355  -1.072  0.00  0.00    +0.042 A 
ATOM     15  C   UNL     1      -0.137  -6.751  -1.278  0.00  0.00    +0.040 A 
ATOM     16  C   UNL     1      -0.030  -5.372  -1.241  0.00  0.00    +0.048 A 
ATOM     17 CL   UNL     1       1.508  -4.613  -1.505  0.00  0.00    -0.083 Cl
ATOM     18 CL   UNL     1      -1.500  -9.085  -1.124  0.00  0.00    -0.083 Cl
ENDBRANCH   4  11
BRANCH   5  19
ATOM     19  C   UNL     1      -3.206  -2.941  -2.394  0.00  0.00    +0.113 C 
BRANCH  19  20
ATOM     20  C   UNL     1      -2.794  -2.333  -3.736  0.00  0.00    +0.052 C 
BRANCH  20  21
ATOM     21  C   UNL     1      -3.787  -2.736  -4.796  0.00  0.00    -0.040 C 
ATOM     22  C   UNL     1      -4.853  -2.023  -5.225  0.00  0.00    +0.002 A 
ATOM     23  C   UNL     1      -5.388  -0.710  -4.849  0.00  0.00    +0.055 A 
ATOM     24  C   UNL     1      -6.500  -0.241  -5.466  0.00  0.00    +0.121 A 
ATOM     25  C   UNL     1      -7.169  -0.972  -6.463  0.00  0.00    +0.047 A 
ATOM     26  C   UNL     1      -6.754  -2.188  -6.876  0.00  0.00    +0.029 A 
ATOM     27  C   UNL     1      -5.559  -2.792  -6.276  0.00  0.00    +0.043 A 
ATOM     28  N   UNL     1      -4.954  -3.934  -6.488  0.00  0.00    -0.380 N 
ATOM     29  C   UNL     1      -3.790  -4.018  -5.599  0.00  0.00    +0.144 C 
ATOM     30  H   UNL     1      -5.228  -4.609  -7.128  0.00  0.00    +0.160 HD
BRANCH  24  31
ATOM     31  O   UNL     1      -6.985   0.977  -5.107  0.00  0.00    -0.495 OA
ATOM     32  C   UNL     1      -8.159   1.432  -5.783  0.00  0.00    +0.277 C 
ENDBRANCH  24  31
ENDBRANCH  20  21
ENDBRANCH  19  20
ENDBRANCH   5  19
TORSDOF 5
