REMARK  Name = ZINC08671773
REMARK  4 active torsions:
REMARK  status: ('A' for Active; 'I' for Inactive)
REMARK    1  A    between atoms: C_6  and  S_7
REMARK    2  A    between atoms: S_7  and  N_10
REMARK    3  A    between atoms: C_14  and  C_16
REMARK    4  A    between atoms: N_18  and  C_19
REMARK                            x       y       z     vdW  Elec       q    Type
REMARK                         _______ _______ _______ _____ _____    ______ ____
ROOT
ATOM      1  N   UNL     1      -1.949  -1.145  -1.567  0.00  0.00    -0.165 NA
ATOM      2  C   UNL     1      -2.782  -0.237  -2.377  0.00  0.00    +0.110 C 
ATOM      3  C   UNL     1      -2.393  -0.545  -3.844  0.00  0.00    +0.019 C 
ATOM      4  C   UNL     1      -2.179  -2.081  -3.795  0.00  0.00    +0.031 C 
ATOM      5  C   UNL     1      -1.565  -2.297  -2.396  0.00  0.00    +0.165 C 
ENDROOT
BRANCH   5   6
ATOM      6  C   UNL     1      -2.108  -3.567  -1.792  0.00  0.00    +0.232 C 
ATOM      7  O   UNL     1      -2.756  -3.522  -0.767  0.00  0.00    -0.274 OA
ATOM      8  N   UNL     1      -1.875  -4.752  -2.390  0.00  0.00    -0.311 N 
ATOM      9  H   UNL     1      -1.357  -4.787  -3.210  0.00  0.00    +0.149 HD
BRANCH   8  10
ATOM     10  C   UNL     1      -2.403  -5.986  -1.803  0.00  0.00    +0.073 C 
ATOM     11  C   UNL     1      -3.844  -6.198  -2.272  0.00  0.00    +0.022 C 
ATOM     12  C   UNL     1      -4.260  -7.645  -2.002  0.00  0.00    +0.002 C 
ATOM     13  C   UNL     1      -4.549  -7.822  -0.509  0.00  0.00    +0.000 C 
ATOM     14  C   UNL     1      -3.230  -7.888   0.262  0.00  0.00    +0.000 C 
ATOM     15  C   UNL     1      -2.247  -8.794  -0.484  0.00  0.00    +0.000 C 
ATOM     16  C   UNL     1      -1.083  -7.955  -1.016  0.00  0.00    +0.002 C 
ATOM     17  C   UNL     1      -1.542  -7.170  -2.246  0.00  0.00    +0.022 C 
ENDBRANCH   8  10
ENDBRANCH   5   6
BRANCH   1  18
ATOM     18  S   UNL     1      -1.513  -0.904   0.012  0.00  0.00    +0.062 S 
ATOM     19  O   UNL     1      -1.221  -2.185   0.553  0.00  0.00    -0.153 OA
ATOM     20  O   UNL     1      -2.492  -0.043   0.577  0.00  0.00    -0.153 OA
BRANCH  18  26
ATOM     21  C   UNL     1      -0.017   1.378   0.010  0.00  0.00    +0.030 A 
ATOM     22  C   UNL     1       1.169   2.087   0.002  0.00  0.00    +0.025 A 
ATOM     23  C   UNL     1       2.380   1.409  -0.013  0.00  0.00    +0.037 A 
ATOM     24  C   UNL     1       2.396   0.020  -0.020  0.00  0.00    -0.024 A 
ATOM     25  C   UNL     1       1.208  -0.682  -0.013  0.00  0.00    +0.034 A 
ATOM     26  C   UNL     1       0.002  -0.004   0.002  0.00  0.00    +0.106 A 
ATOM     27  C   UNL     1       3.711  -0.715  -0.036  0.00  0.00    +0.046 C 
ATOM     28  C   UNL     1       4.733   0.084  -0.846  0.00  0.00    +0.101 C 
ATOM     29  C   UNL     1       4.727   1.522  -0.402  0.00  0.00    +0.218 C 
ATOM     30  O   UNL     1       5.766   2.148  -0.389  0.00  0.00    -0.275 OA
ATOM     31  N   UNL     1       3.584   2.120  -0.020  0.00  0.00    -0.285 N 
ATOM     32  H   UNL     1       3.595   3.051   0.251  0.00  0.00    +0.155 HD
ENDBRANCH  18  26
ENDBRANCH   1  18
TORSDOF 4
