REMARK  Name = ZINC51040362
REMARK  4 active torsions:
REMARK  status: ('A' for Active; 'I' for Inactive)
REMARK    1  A    between atoms: C_8  and  N_13
REMARK    2  A    between atoms: C_9  and  N_12
REMARK    3  A    between atoms: N_13  and  C_14
REMARK    4  A    between atoms: C_14  and  C_15
REMARK                            x       y       z     vdW  Elec       q    Type
REMARK                         _______ _______ _______ _____ _____    ______ ____
ROOT
ATOM      1  C   UNL     1       0.188  -3.260  -2.979  0.00  0.00    +0.017 A 
ATOM      2  C   UNL     1       0.145  -1.901  -2.920  0.00  0.00    +0.027 A 
ATOM      3  C   UNL     1       1.122  -1.203  -2.188  0.00  0.00    +0.048 A 
ATOM      4  C   UNL     1       2.137  -1.935  -1.524  0.00  0.00    +0.022 A 
ATOM      5  C   UNL     1       2.151  -3.335  -1.606  0.00  0.00    +0.027 A 
ATOM      6  C   UNL     1       1.188  -3.978  -2.325  0.00  0.00    +0.019 A 
ATOM      7 BR   UNL     1       1.208  -5.865  -2.435  0.00  0.00    -0.050 Br
ATOM      8  C   UNL     1       3.119  -1.232  -0.789  0.00  0.00    +0.059 A 
ATOM      9  C   UNL     1       3.037   0.155  -0.755  0.00  0.00    +0.063 A 
ATOM     10  C   UNL     1       2.006   0.800  -1.436  0.00  0.00    +0.107 A 
ATOM     11  N   UNL     1       1.101   0.132  -2.114  0.00  0.00    -0.359 N 
ATOM     12  H   UNL     1       0.401   0.620  -2.575  0.00  0.00    +0.165 HD
ENDROOT
BRANCH   9  13
ATOM     13  N   UNL     1       3.985   0.901  -0.040  0.00  0.00    -0.355 N 
ATOM     14  H   UNL     1       4.625   0.450   0.532  0.00  0.00    +0.142 HD
ATOM     15  H   UNL     1       4.000   1.868  -0.118  0.00  0.00    +0.142 HD
ENDBRANCH   9  13
BRANCH   8  16
ATOM     16  N   UNL     1       4.135  -1.908  -0.120  0.00  0.00    -0.332 N 
ATOM     17  H   UNL     1       3.972  -2.279   0.761  0.00  0.00    +0.147 HD
BRANCH  16  18
ATOM     18  C   UNL     1       5.450  -2.059  -0.747  0.00  0.00    +0.227 C 
BRANCH  18  19
ATOM     19  C   UNL     1       5.713  -3.519  -1.017  0.00  0.00    +0.373 C 
ATOM     20  O   UNL     1       4.879  -4.355  -0.714  0.00  0.00    -0.245 OA
ATOM     21  O   UNL     1       6.760  -3.863  -1.539  0.00  0.00    -0.245 OA
ENDBRANCH  18  19
ENDBRANCH  16  18
ENDBRANCH   8  16
TORSDOF 4
