REMARK  Name = ZINC09993412
REMARK  16 active torsions:
REMARK  status: ('A' for Active; 'I' for Inactive)
REMARK    1  A    between atoms: C_1  and  C_2
REMARK    2  A    between atoms: C_2  and  O_3
REMARK    3  A    between atoms: O_3  and  C_4
REMARK    4  A    between atoms: C_4  and  C_6
REMARK    5  A    between atoms: C_8  and  C_35
REMARK    6  A    between atoms: C_15  and  C_26
REMARK    7  A    between atoms: C_17  and  C_21
REMARK    8  A    between atoms: C_18  and  C_20
REMARK    9  A    between atoms: C_21  and  O_23
REMARK   10  A    between atoms: O_23  and  C_24
REMARK   11  A    between atoms: C_24  and  C_25
REMARK   12  A    between atoms: C_29  and  N_32
REMARK   13  A    between atoms: N_32  and  C_33
REMARK   14  A    between atoms: N_32  and  C_34
REMARK   15  A    between atoms: C_39  and  O_41
REMARK   16  A    between atoms: O_41  and  C_42
REMARK                            x       y       z     vdW  Elec       q    Type
REMARK                         _______ _______ _______ _____ _____    ______ ____
ROOT
ATOM      1  C   UNL     1      -3.387  -2.876  -0.274  0.00  0.00    +0.176 C 
ATOM      2  C   UNL     1      -2.717  -4.239  -0.069  0.00  0.00    +0.046 C 
ATOM      3  C   UNL     1      -1.815  -4.155   1.164  0.00  0.00    +0.060 C 
ATOM      4  C   UNL     1      -2.637  -3.762   2.367  0.00  0.00    +0.016 C 
ATOM      5  C   UNL     1      -3.725  -2.974   2.237  0.00  0.00    +0.025 C 
ATOM      6  C   UNL     1      -4.138  -2.505   0.976  0.00  0.00    +0.176 C 
ATOM      7  O   UNL     1      -5.115  -1.788   0.894  0.00  0.00    -0.291 OA
ATOM      8  C   UNL     1      -4.532  -2.571   3.446  0.00  0.00    +0.092 C 
ATOM      9  C   UNL     1      -4.241  -3.469   4.612  0.00  0.00    +0.065 C 
ATOM     10  C   UNL     1      -3.139  -4.239   4.641  0.00  0.00    +0.016 C 
ATOM     11  N   UNL     1      -2.256  -4.224   3.598  0.00  0.00    -0.321 N 
ATOM     12  C   UNL     1      -2.876  -5.125   5.832  0.00  0.00    +0.061 C 
ATOM     13  H   UNL     1      -1.350  -4.545   3.731  0.00  0.00    +0.152 HD
ENDROOT
BRANCH   8  14
ATOM     14  C   UNL     1      -4.188  -1.151   3.819  0.00  0.00    -0.035 A 
ATOM     15  C   UNL     1      -2.886  -0.821   4.147  0.00  0.00    +0.006 A 
ATOM     16  C   UNL     1      -2.567   0.479   4.490  0.00  0.00    +0.023 A 
ATOM     17  C   UNL     1      -3.556   1.454   4.503  0.00  0.00    +0.029 A 
ATOM     18  C   UNL     1      -4.863   1.119   4.172  0.00  0.00    +0.023 A 
ATOM     19  C   UNL     1      -5.173  -0.182   3.826  0.00  0.00    +0.006 A 
BRANCH  17  20
ATOM     20  N   UNL     1      -3.237   2.769   4.849  0.00  0.00    -0.336 N 
ATOM     21  C   UNL     1      -1.858   3.121   5.198  0.00  0.00    +0.129 C 
ATOM     22  C   UNL     1      -4.281   3.797   4.863  0.00  0.00    +0.129 C 
ENDBRANCH  17  20
ENDBRANCH   8  14
BRANCH   2  23
ATOM     23  C   UNL     1      -1.892  -4.584  -1.282  0.00  0.00    -0.039 A 
ATOM     24  C   UNL     1      -0.652  -5.177  -1.128  0.00  0.00    +0.004 A 
ATOM     25  C   UNL     1       0.107  -5.495  -2.239  0.00  0.00    +0.004 A 
ATOM     26  C   UNL     1      -0.371  -5.222  -3.506  0.00  0.00    +0.045 A 
ATOM     27  C   UNL     1      -1.615  -4.627  -3.663  0.00  0.00    +0.120 A 
ATOM     28  C   UNL     1      -2.377  -4.314  -2.547  0.00  0.00    +0.049 A 
BRANCH  27  29
ATOM     29  O   UNL     1      -2.087  -4.357  -4.908  0.00  0.00    -0.495 OA
ATOM     30  C   UNL     1      -1.251  -4.712  -6.011  0.00  0.00    +0.277 C 
ENDBRANCH  27  29
ENDBRANCH   2  23
BRANCH   1  31
ATOM     31  C   UNL     1      -2.336  -1.835  -0.559  0.00  0.00    +0.318 C 
ATOM     32  O   UNL     1      -1.183  -2.165  -0.709  0.00  0.00    -0.250 OA
BRANCH  31  33
ATOM     33  O   UNL     1      -2.680  -0.540  -0.647  0.00  0.00    -0.464 OA
BRANCH  33  35
ATOM     34  C   UNL     1      -2.213   1.807  -0.983  0.00  0.00    +0.048 C 
ATOM     35  C   UNL     1      -1.633   0.393  -0.920  0.00  0.00    +0.229 C 
ENDBRANCH  33  35
ENDBRANCH  31  33
ENDBRANCH   1  31
BRANCH   9  36
ATOM     36  C   UNL     1      -5.143  -3.507   5.701  0.00  0.00    +0.338 C 
ATOM     37  O   UNL     1      -4.985  -4.318   6.594  0.00  0.00    -0.245 OA
BRANCH  36  38
ATOM     38  O   UNL     1      -6.178  -2.643   5.749  0.00  0.00    -0.462 OA
BRANCH  38  39
ATOM     39  C   UNL     1      -7.050  -2.737   6.878  0.00  0.00    +0.229 C 
ATOM     40  C   UNL     1      -8.155  -1.686   6.759  0.00  0.00    +0.048 C 
ENDBRANCH  38  39
ENDBRANCH  36  38
ENDBRANCH   9  36
TORSDOF 10
