REMARK  Name = ZINC02637728
REMARK  8 active torsions:
REMARK  status: ('A' for Active; 'I' for Inactive)
REMARK    1  A    between atoms: C_3  and  S_26
REMARK    2  A    between atoms: C_6  and  C_7
REMARK    3  A    between atoms: C_7  and  O_9
REMARK    4  A    between atoms: O_9  and  C_10
REMARK    5  A    between atoms: C_10  and  C_11
REMARK    6  A    between atoms: N_13  and  C_14
REMARK    7  A    between atoms: C_15  and  C_23
REMARK    8  A    between atoms: S_26  and  N_29
REMARK                            x       y       z     vdW  Elec       q    Type
REMARK                         _______ _______ _______ _____ _____    ______ ____
ROOT
ATOM      1  O   UNL     1       1.143   1.900   0.001  0.00  0.00    -0.452 OA
ENDROOT
BRANCH   1   2
ATOM      2  C   UNL     1      -0.014   1.210   0.009  0.00  0.00    +0.340 C 
ATOM      3  O   UNL     1       0.002  -0.004   0.002  0.00  0.00    -0.245 OA
BRANCH   2   9
ATOM      4  C   UNL     1      -1.326   3.328   0.032  0.00  0.00    +0.017 A 
ATOM      5  C   UNL     1      -2.534   3.995   0.036  0.00  0.00    +0.029 A 
ATOM      6  C   UNL     1      -3.720   3.284   0.037  0.00  0.00    +0.106 A 
ATOM      7  C   UNL     1      -3.705   1.900   0.030  0.00  0.00    +0.029 A 
ATOM      8  C   UNL     1      -2.505   1.220   0.021  0.00  0.00    +0.017 A 
ATOM      9  C   UNL     1      -1.304   1.932   0.019  0.00  0.00    +0.059 A 
BRANCH   6  10
ATOM     10  S   UNL     1      -5.258   4.144   0.049  0.00  0.00    +0.061 S 
ATOM     11  O   UNL     1      -5.007   5.432  -0.496  0.00  0.00    -0.153 OA
ATOM     12  O   UNL     1      -6.223   3.258  -0.503  0.00  0.00    -0.153 OA
BRANCH  10  13
ATOM     13  N   UNL     1      -5.679   4.374   1.634  0.00  0.00    -0.177 NA
ATOM     14  C   UNL     1      -6.479   3.366   2.292  0.00  0.00    +0.109 C 
ATOM     15  C   UNL     1      -7.978   3.673   2.093  0.00  0.00    +0.017 C 
ATOM     16  C   UNL     1      -8.368   4.849   2.886  0.00  0.00    +0.001 C 
ATOM     17  C   UNL     1      -7.660   6.140   2.485  0.00  0.00    +0.001 C 
ATOM     18  C   UNL     1      -6.330   6.221   3.192  0.00  0.00    +0.017 C 
ATOM     19  C   UNL     1      -5.226   5.603   2.314  0.00  0.00    +0.109 C 
ENDBRANCH  10  13
ENDBRANCH   6  10
ENDBRANCH   2   9
ENDBRANCH   1   2
BRANCH   1  20
ATOM     20  C   UNL     1       2.371   1.126  -0.015  0.00  0.00    +0.328 C 
BRANCH  20  21
ATOM     21  C   UNL     1       3.554   2.060  -0.021  0.00  0.00    +0.255 C 
ATOM     22  O   UNL     1       3.379   3.260  -0.013  0.00  0.00    -0.272 OA
ATOM     23  N   UNL     1       4.806   1.562  -0.035  0.00  0.00    -0.277 N 
ATOM     24  H   UNL     1       4.946   0.602  -0.042  0.00  0.00    +0.155 HD
BRANCH  23  25
ATOM     25  C   UNL     1       5.894   2.421  -0.041  0.00  0.00    +0.084 A 
ATOM     26  C   UNL     1       7.245   2.103  -0.050  0.00  0.00    +0.068 A 
ATOM     27  C   UNL     1       8.194   3.202  -0.058  0.00  0.00    -0.023 A 
ATOM     28  C   UNL     1       7.645   4.436  -0.046  0.00  0.00    -0.004 A 
ATOM     29  S   UNL     1       5.897   4.154  -0.031  0.00  0.00    -0.077 S 
ATOM     30  C   UNL     1       8.369   5.747  -0.044  0.00  0.00    +0.043 C 
ATOM     31  C   UNL     1       9.838   5.488   0.320  0.00  0.00    +0.005 C 
ATOM     32  C   UNL     1      10.358   4.324  -0.529  0.00  0.00    +0.005 C 
ATOM     33  C   UNL     1       9.706   3.017  -0.073  0.00  0.00    +0.037 C 
BRANCH  26  34
ATOM     34  C   UNL     1       7.697   0.708  -0.056  0.00  0.00    +0.244 C 
ATOM     35  O   UNL     1       7.878   0.131  -1.112  0.00  0.00    -0.270 OA
ATOM     36  N   UNL     1       7.911   0.065   1.109  0.00  0.00    -0.325 N 
ATOM     37  H   UNL     1       7.766   0.524   1.951  0.00  0.00    +0.145 HD
ATOM     38  H   UNL     1       8.210  -0.858   1.106  0.00  0.00    +0.145 HD
ENDBRANCH  26  34
ENDBRANCH  23  25
ENDBRANCH  20  21
ENDBRANCH   1  20
TORSDOF 8
