REMARK  Name = ZINC23486601
REMARK  6 active torsions:
REMARK  status: ('A' for Active; 'I' for Inactive)
REMARK    1  A    between atoms: N_9  and  S_11
REMARK    2  A    between atoms: S_11  and  C_14
REMARK    3  A    between atoms: C_18  and  C_20
REMARK    4  A    between atoms: N_22  and  C_23
REMARK    5  A    between atoms: C_23  and  C_24
REMARK    6  A    between atoms: C_24  and  N_30
REMARK                            x       y       z     vdW  Elec       q    Type
REMARK                         _______ _______ _______ _____ _____    ______ ____
ROOT
ATOM      1  C   UNL     1       5.508  -3.599  -1.109  0.00  0.00    +0.106 A 
ATOM      2  C   UNL     1       5.579  -4.893  -1.594  0.00  0.00    +0.028 A 
ATOM      3  C   UNL     1       6.784  -5.405  -2.040  0.00  0.00    +0.003 A 
ATOM      4  C   UNL     1       7.924  -4.628  -2.002  0.00  0.00    +0.013 A 
ATOM      5  C   UNL     1       7.859  -3.323  -1.514  0.00  0.00    +0.039 A 
ATOM      6  C   UNL     1       6.638  -2.810  -1.071  0.00  0.00    +0.041 A 
ENDROOT
BRANCH   5   7
ATOM      7  C   UNL     1       9.076  -2.485  -1.470  0.00  0.00    +0.244 C 
ATOM      8  O   UNL     1       9.017  -1.348  -1.044  0.00  0.00    -0.270 OA
ATOM      9  N   UNL     1      10.252  -2.981  -1.903  0.00  0.00    -0.310 N 
ATOM     10  H   UNL     1      10.300  -3.889  -2.243  0.00  0.00    +0.149 HD
BRANCH   9  11
ATOM     11  C   UNL     1      11.458  -2.151  -1.860  0.00  0.00    +0.126 C 
BRANCH  11  12
ATOM     12  C   UNL     1      12.617  -2.901  -2.519  0.00  0.00    +0.038 C 
ATOM     13  C   UNL     1      13.906  -2.092  -2.356  0.00  0.00    +0.024 C 
ATOM     14  C   UNL     1      13.738  -0.725  -3.023  0.00  0.00    +0.002 C 
ATOM     15  C   UNL     1      13.441  -0.917  -4.511  0.00  0.00    +0.000 C 
ATOM     16  C   UNL     1      12.152  -1.725  -4.674  0.00  0.00    +0.002 C 
ATOM     17  C   UNL     1      12.320  -3.092  -4.007  0.00  0.00    +0.024 C 
BRANCH  12  18
ATOM     18  N   UNL     1      12.779  -4.213  -1.879  0.00  0.00    -0.291 NA
ATOM     19  C   UNL     1      13.013  -4.070  -0.435  0.00  0.00    +0.113 C 
ATOM     20  C   UNL     1      13.115  -5.459   0.201  0.00  0.00    +0.175 C 
ATOM     21  O   UNL     1      14.155  -6.198  -0.446  0.00  0.00    -0.377 OA
ATOM     22  C   UNL     1      13.959  -6.357  -1.854  0.00  0.00    +0.175 C 
ATOM     23  C   UNL     1      13.865  -4.977  -2.510  0.00  0.00    +0.113 C 
ENDBRANCH  12  18
ENDBRANCH  11  12
ENDBRANCH   9  11
ENDBRANCH   5   7
BRANCH   1  24
ATOM     24  S   UNL     1       3.968  -2.955  -0.544  0.00  0.00    +0.061 S 
ATOM     25  O   UNL     1       4.274  -1.905   0.363  0.00  0.00    -0.153 OA
ATOM     26  O   UNL     1       3.171  -4.073  -0.175  0.00  0.00    -0.153 OA
BRANCH  24  35
ATOM     27  C   UNL     1      -0.248   1.106  -3.143  0.00  0.00    +0.000 A 
ATOM     28  C   UNL     1       0.902   1.841  -2.923  0.00  0.00    +0.000 A 
ATOM     29  C   UNL     1       2.078   1.192  -2.608  0.00  0.00    +0.005 A 
ATOM     30  C   UNL     1       2.114  -0.193  -2.508  0.00  0.00    -0.028 A 
ATOM     31  C   UNL     1       0.967  -0.925  -2.717  0.00  0.00    -0.042 A 
ATOM     32  C   UNL     1      -0.214  -0.269  -3.041  0.00  0.00    +0.004 A 
ATOM     33  C   UNL     1       0.922  -2.425  -2.595  0.00  0.00    +0.052 C 
ATOM     34  C   UNL     1       2.322  -3.023  -2.720  0.00  0.00    +0.114 C 
ATOM     35  N   UNL     1       3.223  -2.253  -1.846  0.00  0.00    -0.172 NA
ATOM     36  C   UNL     1       3.435  -0.840  -2.175  0.00  0.00    +0.144 C 
ENDBRANCH  24  35
ENDBRANCH   1  24
TORSDOF 6
