REMARK  Name = ZINC39201006
REMARK  10 active torsions:
REMARK  status: ('A' for Active; 'I' for Inactive)
REMARK    1  A    between atoms: C_1  and  C_2
REMARK    2  A    between atoms: C_5  and  C_8
REMARK    3  A    between atoms: C_11  and  C_13
REMARK    4  A    between atoms: C_13  and  S_14
REMARK    5  A    between atoms: S_14  and  C_15
REMARK    6  A    between atoms: C_18  and  C_20
REMARK    7  A    between atoms: C_20  and  C_21
REMARK    8  A    between atoms: C_21  and  N_22
REMARK    9  A    between atoms: N_25  and  C_28
REMARK   10  A    between atoms: C_28  and  C_29
REMARK                            x       y       z     vdW  Elec       q    Type
REMARK                         _______ _______ _______ _____ _____    ______ ____
ROOT
ATOM      1  C   UNL     1       1.674  -9.519   2.725  0.00  0.00    +0.278 A 
ATOM      2  N   UNL     1       0.556 -10.100   3.092  0.00  0.00    -0.101 NA
ATOM      3  N   UNL     1       0.829 -11.146   3.789  0.00  0.00    -0.112 NA
ATOM      4  C   UNL     1       2.119 -11.275   3.895  0.00  0.00    +0.216 A 
ATOM      5  O   UNL     1       2.687 -10.255   3.221  0.00  0.00    -0.416 OA
ENDROOT
BRANCH   1   6
ATOM      6  S   UNL     1       1.822  -8.054   1.758  0.00  0.00    -0.056 S 
BRANCH   6   7
ATOM      7  C   UNL     1       0.105  -7.574   1.424  0.00  0.00    +0.176 C 
BRANCH   7  11
ATOM      8  C   UNL     1       0.059  -4.251  -0.021  0.00  0.00    +0.248 A 
ATOM      9  N   UNL     1       0.070  -5.024  -1.082  0.00  0.00    -0.107 NA
ATOM     10  N   UNL     1       0.087  -6.255  -0.710  0.00  0.00    -0.111 NA
ATOM     11  C   UNL     1       0.087  -6.317   0.592  0.00  0.00    +0.228 A 
ATOM     12  O   UNL     1       0.075  -5.057   1.060  0.00  0.00    -0.419 OA
BRANCH   8  17
ATOM     13  C   UNL     1      -0.018   1.503   0.010  0.00  0.00    +0.044 C 
ATOM     14  C   UNL     1       0.002  -0.004   0.002  0.00  0.00    -0.050 A 
ATOM     15  C   UNL     1       0.006  -0.686  -1.202  0.00  0.00    +0.004 A 
ATOM     16  C   UNL     1       0.024  -2.066  -1.216  0.00  0.00    +0.013 A 
ATOM     17  C   UNL     1       0.040  -2.773  -0.013  0.00  0.00    +0.038 A 
ATOM     18  C   UNL     1       0.036  -2.079   1.198  0.00  0.00    +0.013 A 
ATOM     19  C   UNL     1       0.023  -0.699   1.198  0.00  0.00    +0.004 A 
ENDBRANCH   8  17
ENDBRANCH   7  11
ENDBRANCH   6   7
ENDBRANCH   1   6
BRANCH   4  20
ATOM     20  C   UNL     1       2.848 -12.369   4.632  0.00  0.00    +0.079 C 
BRANCH  20  21
ATOM     21  C   UNL     1       3.114 -13.536   3.679  0.00  0.00    -0.069 C 
BRANCH  21  22
ATOM     22  N   UNL     1       3.824 -14.603   4.397  0.00  0.00    +0.382 N 
ATOM     23  C   UNL     1       2.954 -15.148   5.448  0.00  0.00    -0.063 C 
ATOM     24  C   UNL     1       3.700 -16.246   6.209  0.00  0.00    +0.066 C 
ATOM     25  N   UNL     1       4.090 -17.309   5.272  0.00  0.00    -0.302 NA
ATOM     26  C   UNL     1       4.941 -16.773   4.200  0.00  0.00    +0.066 C 
ATOM     27  C   UNL     1       4.185 -15.671   3.455  0.00  0.00    -0.063 C 
ATOM     28  H   UNL     1       4.661 -14.226   4.816  0.00  0.00    -0.082 HD
BRANCH  25  29
ATOM     29  C   UNL     1       4.760 -18.411   5.975  0.00  0.00    +0.119 C 
BRANCH  29  30
ATOM     30  C   UNL     1       4.924 -19.579   5.037  0.00  0.00    -0.030 A 
ATOM     31  C   UNL     1       3.932 -20.538   4.949  0.00  0.00    +0.009 A 
ATOM     32  C   UNL     1       4.078 -21.611   4.090  0.00  0.00    +0.050 A 
ATOM     33  C   UNL     1       5.220 -21.729   3.315  0.00  0.00    +0.166 A 
ATOM     34  C   UNL     1       6.219 -20.763   3.404  0.00  0.00    +0.167 A 
ATOM     35  C   UNL     1       6.064 -19.687   4.263  0.00  0.00    +0.054 A 
ATOM     36  O   UNL     1       7.229 -21.101   2.550  0.00  0.00    -0.453 OA
ATOM     37  C   UNL     1       7.023 -22.492   2.242  0.00  0.00    +0.466 C 
ATOM     38  O   UNL     1       5.604 -22.672   2.406  0.00  0.00    -0.453 OA
ENDBRANCH  29  30
ENDBRANCH  25  29
ENDBRANCH  21  22
ENDBRANCH  20  21
ENDBRANCH   4  20
TORSDOF 9
