REMARK  Name = ZINC16735279
REMARK  9 active torsions:
REMARK  status: ('A' for Active; 'I' for Inactive)
REMARK    1  A    between atoms: C_1  and  C_2
REMARK    2  A    between atoms: C_5  and  C_8
REMARK    3  A    between atoms: C_8  and  C_10
REMARK    4  A    between atoms: C_10  and  N_12
REMARK    5  A    between atoms: C_10  and  N_26
REMARK    6  A    between atoms: N_12  and  C_13
REMARK    7  A    between atoms: C_14  and  C_22
REMARK    8  A    between atoms: N_24  and  C_25
REMARK    9  A    between atoms: C_27  and  C_29
REMARK                            x       y       z     vdW  Elec       q    Type
REMARK                         _______ _______ _______ _____ _____    ______ ____
ROOT
ATOM      1  C   UNL     1       2.534   0.837  -0.222  0.00  0.00    +0.232 C 
ENDROOT
BRANCH   1   2
ATOM      2  N   UNL     1       1.167   1.338  -0.064  0.00  0.00    -0.286 N 
ATOM      3  C   UNL     1       0.120   0.509  -0.252  0.00  0.00    +0.252 C 
ATOM      4  O   UNL     1       0.311  -0.654  -0.553  0.00  0.00    -0.270 OA
ATOM      5  H   UNL     1       1.014   2.265   0.175  0.00  0.00    +0.151 HD
BRANCH   3   6
ATOM      6  C   UNL     1      -1.249   1.012  -0.100  0.00  0.00    +0.074 A 
ATOM      7  C   UNL     1      -2.449   0.336  -0.253  0.00  0.00    +0.021 A 
ATOM      8  C   UNL     1      -3.601   1.055  -0.049  0.00  0.00    +0.008 A 
ATOM      9  C   UNL     1      -3.513   2.369   0.286  0.00  0.00    +0.046 A 
ATOM     10  S   UNL     1      -1.803   2.651   0.336  0.00  0.00    -0.092 S 
ENDBRANCH   3   6
ENDBRANCH   1   2
BRANCH   1  11
ATOM     11  C   UNL     1       3.341   1.824  -1.025  0.00  0.00    +0.201 C 
ATOM     12  O   UNL     1       4.443   2.158  -0.645  0.00  0.00    -0.288 OA
BRANCH  11  17
ATOM     13  C   UNL     1       1.193   4.010  -5.889  0.00  0.00    +0.044 C 
ATOM     14  C   UNL     1       1.757   3.437  -4.614  0.00  0.00    -0.050 A 
ATOM     15  C   UNL     1       2.955   3.916  -4.114  0.00  0.00    +0.004 A 
ATOM     16  C   UNL     1       3.476   3.397  -2.948  0.00  0.00    +0.012 A 
ATOM     17  C   UNL     1       2.792   2.384  -2.270  0.00  0.00    +0.021 A 
ATOM     18  C   UNL     1       1.585   1.900  -2.785  0.00  0.00    +0.012 A 
ATOM     19  C   UNL     1       1.073   2.434  -3.949  0.00  0.00    +0.004 A 
ENDBRANCH  11  17
ENDBRANCH   1  11
BRANCH   1  20
ATOM     20  N   UNL     1       3.146   0.665   1.098  0.00  0.00    -0.314 N 
ATOM     21  H   UNL     1       3.442   1.440   1.601  0.00  0.00    +0.149 HD
BRANCH  20  22
ATOM     22  C   UNL     1       3.303  -0.602   1.627  0.00  0.00    +0.080 A 
ATOM     23  C   UNL     1       3.860  -0.965   2.847  0.00  0.00    +0.068 A 
ATOM     24  C   UNL     1       3.901  -2.382   3.170  0.00  0.00    -0.023 A 
ATOM     25  C   UNL     1       3.394  -3.202   2.226  0.00  0.00    -0.005 A 
ATOM     26  S   UNL     1       2.860  -2.124   0.928  0.00  0.00    -0.078 S 
ATOM     27  C   UNL     1       3.309  -4.697   2.278  0.00  0.00    +0.043 C 
ATOM     28  C   UNL     1       4.226  -5.194   3.405  0.00  0.00    +0.005 C 
ATOM     29  C   UNL     1       3.954  -4.365   4.663  0.00  0.00    +0.005 C 
ATOM     30  C   UNL     1       4.473  -2.939   4.468  0.00  0.00    +0.037 C 
BRANCH  23  31
ATOM     31  C   UNL     1       4.382   0.041   3.774  0.00  0.00    +0.246 C 
ATOM     32  O   UNL     1       3.651   0.532   4.614  0.00  0.00    -0.270 OA
ATOM     33  N   UNL     1       5.672   0.424   3.697  0.00  0.00    -0.314 N 
ATOM     34  C   UNL     1       6.194   1.431   4.624  0.00  0.00    +0.128 C 
ATOM     35  H   UNL     1       6.255   0.033   3.027  0.00  0.00    +0.149 HD
ENDBRANCH  23  31
ENDBRANCH  20  22
ENDBRANCH   1  20
TORSDOF 7
