REMARK  Name = ZINC34734713
REMARK  9 active torsions:
REMARK  status: ('A' for Active; 'I' for Inactive)
REMARK    1  A    between atoms: C_1  and  C_2
REMARK    2  A    between atoms: C_2  and  C_4
REMARK    3  A    between atoms: C_4  and  N_5
REMARK    4  A    between atoms: C_20  and  C_22
REMARK    5  A    between atoms: C_20  and  C_23
REMARK    6  A    between atoms: N_26  and  C_27
REMARK    7  A    between atoms: C_27  and  C_28
REMARK    8  A    between atoms: N_30  and  C_31
REMARK    9  A    between atoms: N_30  and  C_32
REMARK                            x       y       z     vdW  Elec       q    Type
REMARK                         _______ _______ _______ _____ _____    ______ ____
ROOT
ATOM      1  N   UNL     1      -2.358  -0.240  -0.998  0.00  0.00    +0.384 N 
ATOM      2  C   UNL     1      -3.812  -0.202  -1.198  0.00  0.00    -0.059 C 
ATOM      3  C   UNL     1      -4.163  -0.882  -2.525  0.00  0.00    +0.089 C 
ATOM      4  N   UNL     1      -3.386  -0.239  -3.597  0.00  0.00    -0.304 N 
ATOM      5  C   UNL     1      -1.935  -0.088  -3.406  0.00  0.00    +0.089 C 
ATOM      6  C   UNL     1      -1.690   0.554  -2.037  0.00  0.00    -0.059 C 
ATOM      7  C   UNL     1      -3.998   0.205  -4.743  0.00  0.00    +0.202 A 
ATOM      8  N   UNL     1      -4.543   1.403  -4.765  0.00  0.00    -0.208 NA
ATOM      9  C   UNL     1      -5.141   1.859  -5.859  0.00  0.00    +0.118 A 
ATOM     10  C   UNL     1      -5.225   1.097  -7.038  0.00  0.00    +0.076 A 
ATOM     11  C   UNL     1      -5.915   1.733  -8.158  0.00  0.00    -0.018 A 
ATOM     12  C   UNL     1      -6.400   2.977  -7.955  0.00  0.00    +0.021 A 
ATOM     13  S   UNL     1      -5.973   3.370  -6.283  0.00  0.00    -0.071 S 
ATOM     14  C   UNL     1      -7.136   3.814  -8.955  0.00  0.00    +0.203 C 
ATOM     15  O   UNL     1      -6.963   3.212 -10.248  0.00  0.00    -0.368 OA
ATOM     16  C   UNL     1      -7.218   1.805 -10.260  0.00  0.00    +0.068 C 
ATOM     17  C   UNL     1      -6.106   1.061  -9.516  0.00  0.00    +0.071 C 
ATOM     18  C   UNL     1      -8.559   1.526  -9.578  0.00  0.00    +0.041 C 
ATOM     19  C   UNL     1      -7.277   1.313 -11.708  0.00  0.00    +0.041 C 
ATOM     20  C   UNL     1      -4.623  -0.200  -6.984  0.00  0.00    +0.264 A 
ATOM     21  O   UNL     1      -4.645  -0.933  -7.958  0.00  0.00    -0.267 OA
ATOM     22  N   UNL     1      -4.028  -0.599  -5.844  0.00  0.00    -0.271 N 
ATOM     23  H   UNL     1      -2.038  -1.196  -1.050  0.00  0.00    -0.081 HD
ENDROOT
BRANCH   1  24
ATOM     24  C   UNL     1      -2.032   0.312   0.323  0.00  0.00    -0.048 C 
BRANCH  24  26
ATOM     25  C   UNL     1      -1.837  -1.812   1.828  0.00  0.00    +0.036 C 
ATOM     26  C   UNL     1      -2.596  -0.584   1.395  0.00  0.00    -0.096 C 
ATOM     27  C   UNL     1      -3.747  -0.295   1.952  0.00  0.00    +0.005 C 
ENDBRANCH  24  26
ENDBRANCH   1  24
BRANCH  22  28
ATOM     28  C   UNL     1      -3.405  -1.923  -5.784  0.00  0.00    +0.224 C 
BRANCH  28  29
ATOM     29  C   UNL     1      -4.449  -2.954  -5.440  0.00  0.00    +0.235 C 
ATOM     30  O   UNL     1      -5.601  -2.615  -5.263  0.00  0.00    -0.274 OA
ATOM     31  N   UNL     1      -4.104  -4.252  -5.330  0.00  0.00    -0.306 N 
ATOM     32  C   UNL     1      -5.120  -5.254  -4.996  0.00  0.00    +0.131 C 
ATOM     33  C   UNL     1      -2.714  -4.661  -5.544  0.00  0.00    +0.131 C 
ENDBRANCH  28  29
ENDBRANCH  22  28
TORSDOF 4
