REMARK  Name = ZINC18120493
REMARK  6 active torsions:
REMARK  status: ('A' for Active; 'I' for Inactive)
REMARK    1  A    between atoms: C_1  and  C_2
REMARK    2  A    between atoms: C_5  and  C_8
REMARK    3  A    between atoms: N_16  and  C_19
REMARK    4  A    between atoms: C_19  and  C_20
REMARK    5  A    between atoms: N_27  and  C_28
REMARK    6  A    between atoms: C_32  and  N_34
REMARK                            x       y       z     vdW  Elec       q    Type
REMARK                         _______ _______ _______ _____ _____    ______ ____
ROOT
ATOM      1  C   UNL     1       0.059  -4.275  -0.021  0.00  0.00    +0.157 C 
ATOM      2  C   UNL     1      -1.294  -4.832   0.404  0.00  0.00    +0.145 C 
ATOM      3  C   UNL     1      -1.020  -4.858   1.956  0.00  0.00    +0.249 C 
ATOM      4  C   UNL     1      -2.366  -4.947   2.486  0.00  0.00    +0.254 C 
ATOM      5  O   UNL     1      -2.724  -5.522   3.491  0.00  0.00    -0.272 OA
ATOM      6  N   UNL     1      -3.148  -4.241   1.609  0.00  0.00    -0.235 N 
ATOM      7  C   UNL     1      -2.506  -3.954   0.424  0.00  0.00    +0.231 C 
ATOM      8  O   UNL     1      -2.842  -3.157  -0.425  0.00  0.00    -0.275 OA
ATOM      9  O   UNL     1       0.198  -5.473   2.038  0.00  0.00    -0.257 OA
ATOM     10  N   UNL     1       0.996  -4.794   1.017  0.00  0.00    -0.244 N 
ENDROOT
BRANCH   1  15
ATOM     11  C   UNL     1      -0.018   1.503   0.011  0.00  0.00    +0.044 C 
ATOM     12  C   UNL     1       0.002  -0.004   0.003  0.00  0.00    -0.050 A 
ATOM     13  C   UNL     1      -0.221  -0.692  -1.176  0.00  0.00    +0.004 A 
ATOM     14  C   UNL     1      -0.202  -2.074  -1.184  0.00  0.00    +0.006 A 
ATOM     15  C   UNL     1       0.040  -2.768  -0.013  0.00  0.00    -0.022 A 
ATOM     16  C   UNL     1       0.264  -2.081   1.165  0.00  0.00    +0.006 A 
ATOM     17  C   UNL     1       0.249  -0.699   1.172  0.00  0.00    +0.004 A 
ENDBRANCH   1  15
BRANCH  10  18
ATOM     18  C   UNL     1       2.386  -4.662   1.009  0.00  0.00    +0.067 A 
ATOM     19  C   UNL     1       3.015  -3.991  -0.033  0.00  0.00    +0.028 A 
ATOM     20  C   UNL     1       4.390  -3.861  -0.038  0.00  0.00    +0.004 A 
ATOM     21  C   UNL     1       5.141  -4.398   0.992  0.00  0.00    +0.033 A 
ATOM     22  C   UNL     1       4.518  -5.067   2.030  0.00  0.00    +0.128 A 
ATOM     23  C   UNL     1       3.143  -5.195   2.044  0.00  0.00    +0.060 A 
BRANCH  22  24
ATOM     24  N   UNL     1       5.326  -5.640   3.129  0.00  0.00    +0.056 N 
ATOM     25  O   UNL     1       6.529  -5.524   3.120  0.00  0.00    -0.126 OA
ATOM     26  O   UNL     1       4.782  -6.225   4.037  0.00  0.00    -0.126 OA
ENDBRANCH  22  24
ENDBRANCH  10  18
BRANCH   6  27
ATOM     27  C   UNL     1      -4.529  -3.844   1.893  0.00  0.00    +0.151 C 
BRANCH  27  28
ATOM     28  C   UNL     1      -4.536  -2.489   2.554  0.00  0.00    -0.030 A 
ATOM     29  C   UNL     1      -4.463  -2.391   3.930  0.00  0.00    +0.005 A 
ATOM     30  C   UNL     1      -4.470  -1.149   4.536  0.00  0.00    +0.000 A 
ATOM     31  C   UNL     1      -4.549  -0.004   3.765  0.00  0.00    +0.000 A 
ATOM     32  C   UNL     1      -4.621  -0.102   2.388  0.00  0.00    +0.000 A 
ATOM     33  C   UNL     1      -4.610  -1.345   1.782  0.00  0.00    +0.005 A 
ENDBRANCH  27  28
ENDBRANCH   6  27
TORSDOF 5
