REMARK  Name = ZINC02727139
REMARK  16 active torsions:
REMARK  status: ('A' for Active; 'I' for Inactive)
REMARK    1  A    between atoms: C_1  and  C_2
REMARK    2  A    between atoms: C_2  and  O_3
REMARK    3  A    between atoms: O_3  and  C_4
REMARK    4  A    between atoms: C_4  and  C_5
REMARK    5  A    between atoms: C_5  and  O_6
REMARK    6  A    between atoms: O_6  and  C_7
REMARK    7  A    between atoms: C_7  and  C_9
REMARK    8  A    between atoms: C_10  and  C_39
REMARK    9  A    between atoms: C_14  and  C_16
REMARK   10  A    between atoms: C_18  and  O_26
REMARK   11  A    between atoms: C_19  and  O_24
REMARK   12  A    between atoms: C_21  and  O_22
REMARK   13  A    between atoms: O_22  and  C_23
REMARK   14  A    between atoms: O_24  and  C_25
REMARK   15  A    between atoms: O_26  and  C_27
REMARK   16  A    between atoms: C_31  and  C_34
REMARK                            x       y       z     vdW  Elec       q    Type
REMARK                         _______ _______ _______ _____ _____    ______ ____
ROOT
ATOM      1  C   UNL     1       3.861   2.952   0.527  0.00  0.00    +0.065 C 
ATOM      2  C   UNL     1       2.871   3.559   1.204  0.00  0.00    +0.016 C 
ATOM      3  N   UNL     1       1.564   3.271   0.926  0.00  0.00    -0.321 N 
ATOM      4  C   UNL     1       1.227   2.118   0.270  0.00  0.00    +0.016 C 
ATOM      5  C   UNL     1       2.152   1.440  -0.444  0.00  0.00    +0.024 C 
ATOM      6  C   UNL     1       3.567   1.951  -0.551  0.00  0.00    +0.096 C 
ATOM      7  C   UNL     1       1.824   0.246  -1.109  0.00  0.00    +0.162 C 
ATOM      8  O   UNL     1       2.677  -0.333  -1.752  0.00  0.00    -0.292 OA
ATOM      9  C   UNL     1       0.435  -0.328  -1.039  0.00  0.00    +0.088 C 
ATOM     10  C   UNL     1      -0.214   0.096   0.283  0.00  0.00    +0.039 C 
ATOM     11  C   UNL     1      -0.195   1.624   0.365  0.00  0.00    +0.060 C 
ATOM     12  C   UNL     1       3.204   4.564   2.276  0.00  0.00    +0.061 C 
ATOM     13  H   UNL     1       0.770   3.969   1.231  0.00  0.00    +0.152 HD
ENDROOT
BRANCH   6  14
ATOM     14  C   UNL     1       3.757   2.604  -1.896  0.00  0.00    +0.010 A 
ATOM     15  C   UNL     1       2.919   3.631  -2.289  0.00  0.00    +0.057 A 
ATOM     16  C   UNL     1       3.091   4.232  -3.525  0.00  0.00    +0.162 A 
ATOM     17  C   UNL     1       4.109   3.802  -4.372  0.00  0.00    +0.165 A 
ATOM     18  C   UNL     1       4.947   2.773  -3.976  0.00  0.00    +0.095 A 
ATOM     19  C   UNL     1       4.775   2.177  -2.736  0.00  0.00    +0.128 A 
BRANCH  19  20
ATOM     20  O   UNL     1       5.601   1.171  -2.344  0.00  0.00    -0.495 OA
ATOM     21  C   UNL     1       6.686   0.846  -3.216  0.00  0.00    +0.277 C 
ENDBRANCH  19  20
BRANCH  17  22
ATOM     22  O   UNL     1       4.279   4.391  -5.585  0.00  0.00    -0.491 OA
ATOM     23  C   UNL     1       5.344   3.898  -6.402  0.00  0.00    +0.277 C 
ENDBRANCH  17  22
BRANCH  16  24
ATOM     24  O   UNL     1       2.267   5.244  -3.911  0.00  0.00    -0.491 OA
ATOM     25  C   UNL     1       1.245   5.634  -2.992  0.00  0.00    +0.277 C 
ENDBRANCH  16  24
ENDBRANCH   6  14
BRANCH  10  26
ATOM     26  C   UNL     1      -1.638  -0.396   0.332  0.00  0.00    -0.006 A 
ATOM     27  C   UNL     1      -2.225  -1.221   1.234  0.00  0.00    +0.011 A 
ATOM     28  C   UNL     1      -3.561  -1.540   1.079  0.00  0.00    +0.008 A 
ATOM     29  C   UNL     1      -4.245  -1.018   0.032  0.00  0.00    +0.045 A 
ATOM     30  S   UNL     1      -2.991  -0.037  -0.775  0.00  0.00    -0.101 S 
ENDBRANCH  10  26
BRANCH   1  31
ATOM     31  C   UNL     1       5.206   3.263   0.837  0.00  0.00    +0.338 C 
ATOM     32  O   UNL     1       5.868   2.494   1.509  0.00  0.00    -0.245 OA
BRANCH  31  33
ATOM     33  O   UNL     1       5.754   4.411   0.388  0.00  0.00    -0.459 OA
BRANCH  33  34
ATOM     34  C   UNL     1       7.149   4.604   0.633  0.00  0.00    +0.260 C 
BRANCH  34  35
ATOM     35  C   UNL     1       7.564   5.995   0.151  0.00  0.00    +0.201 C 
BRANCH  35  36
ATOM     36  O   UNL     1       6.907   6.989   0.940  0.00  0.00    -0.377 OA
BRANCH  36  38
ATOM     37  C   UNL     1       6.494   9.307   1.482  0.00  0.00    +0.034 C 
ATOM     38  C   UNL     1       7.142   8.328   0.501  0.00  0.00    +0.156 C 
ENDBRANCH  36  38
ENDBRANCH  35  36
ENDBRANCH  34  35
ENDBRANCH  33  34
ENDBRANCH  31  33
ENDBRANCH   1  31
TORSDOF 11
