REMARK  Name = ZINC09906752
REMARK  7 active torsions:
REMARK  status: ('A' for Active; 'I' for Inactive)
REMARK    1  A    between atoms: C_1  and  C_2
REMARK    2  A    between atoms: C_2  and  O_3
REMARK    3  A    between atoms: O_3  and  C_4
REMARK    4  A    between atoms: C_4  and  C_6
REMARK    5  A    between atoms: C_9  and  N_12
REMARK    6  A    between atoms: C_16  and  N_60
REMARK    7  A    between atoms: C_22  and  N_25
REMARK                            x       y       z     vdW  Elec       q    Type
REMARK                         _______ _______ _______ _____ _____    ______ ____
ROOT
ATOM      1  N   UNL     1      -6.704  -4.073   0.044  0.00  0.00    -0.212 N 
ATOM      2  C   UNL     1      -6.928  -5.388  -0.065  0.00  0.00    +0.225 C 
ATOM      3  O   UNL     1      -6.073  -6.239  -0.181  0.00  0.00    -0.275 OA
ATOM      4  C   UNL     1      -8.419  -5.645  -0.015  0.00  0.00    +0.090 C 
ATOM      5  C   UNL     1      -9.024  -4.234   0.133  0.00  0.00    +0.029 C 
ATOM      6  C   UNL     1      -7.811  -3.329   0.157  0.00  0.00    +0.213 C 
ATOM      7  O   UNL     1      -7.839  -2.122   0.261  0.00  0.00    -0.277 OA
ENDROOT
BRANCH   5  13
ATOM      8  C   UNL     1     -10.877  -5.095   1.430  0.00  0.00    -0.076 C 
ATOM      9  C   UNL     1     -11.547  -5.051   2.806  0.00  0.00    +0.006 C 
ATOM     10  C   UNL     1     -12.077  -3.639   3.066  0.00  0.00    +0.089 C 
ATOM     11  C   UNL     1     -10.920  -2.641   2.969  0.00  0.00    +0.006 C 
ATOM     12  C   UNL     1     -10.269  -2.754   1.589  0.00  0.00    -0.076 C 
ATOM     13  N   UNL     1      -9.757  -4.130   1.411  0.00  0.00    +0.388 N 
ATOM     14  H   UNL     1      -9.116  -4.349   2.182  0.00  0.00    -0.081 HD
BRANCH  10  15
ATOM     15  N   UNL     1     -12.667  -3.576   4.405  0.00  0.00    -0.289 N 
ATOM     16  C   UNL     1     -13.989  -3.249   4.699  0.00  0.00    +0.070 A 
ATOM     17  C   UNL     1     -15.082  -2.908   3.917  0.00  0.00    +0.028 A 
ATOM     18  C   UNL     1     -16.295  -2.631   4.514  0.00  0.00    +0.002 A 
ATOM     19  C   UNL     1     -16.426  -2.692   5.891  0.00  0.00    +0.002 A 
ATOM     20  C   UNL     1     -15.343  -3.030   6.679  0.00  0.00    +0.028 A 
ATOM     21  C   UNL     1     -14.120  -3.310   6.088  0.00  0.00    +0.067 A 
ATOM     22  N   UNL     1     -12.875  -3.673   6.595  0.00  0.00    -0.306 N 
ATOM     23  H   UNL     1     -12.657  -3.795   7.532  0.00  0.00    +0.170 HD
ATOM     24  C   UNL     1     -12.026  -3.830   5.561  0.00  0.00    +0.328 A 
ATOM     25  O   UNL     1     -10.856  -4.151   5.658  0.00  0.00    -0.247 OA
ENDBRANCH  10  15
ENDBRANCH   5  13
BRANCH   1  29
ATOM     26  C   UNL     1      -2.874  -2.427   0.017  0.00  0.00    +0.059 A 
ATOM     27  C   UNL     1      -3.752  -2.177  -1.042  0.00  0.00    +0.017 A 
ATOM     28  C   UNL     1      -5.014  -2.727  -1.032  0.00  0.00    +0.025 A 
ATOM     29  C   UNL     1      -5.420  -3.521   0.035  0.00  0.00    +0.044 A 
ATOM     30  C   UNL     1      -4.551  -3.768   1.093  0.00  0.00    +0.025 A 
ATOM     31  C   UNL     1      -3.285  -3.226   1.087  0.00  0.00    +0.017 A 
BRANCH  26  32
ATOM     32  C   UNL     1      -1.518  -1.845   0.007  0.00  0.00    +0.339 C 
ATOM     33  O   UNL     1      -0.758  -2.059   0.930  0.00  0.00    -0.245 OA
BRANCH  32  34
ATOM     34  O   UNL     1      -1.123  -1.075  -1.026  0.00  0.00    -0.461 OA
BRANCH  34  36
ATOM     35  C   UNL     1       0.489   0.306  -2.219  0.00  0.00    +0.048 C 
ATOM     36  C   UNL     1       0.223  -0.535  -0.969  0.00  0.00    +0.229 C 
ENDBRANCH  34  36
ENDBRANCH  32  34
ENDBRANCH  26  32
ENDBRANCH   1  29
TORSDOF 6
