REMARK  Name = ZINC39881545
REMARK  6 active torsions:
REMARK  status: ('A' for Active; 'I' for Inactive)
REMARK    1  A    between atoms: C_1  and  C_2
REMARK    2  A    between atoms: N_12  and  C_15
REMARK    3  A    between atoms: C_18  and  C_21
REMARK    4  A    between atoms: N_23  and  N_24
REMARK    5  A    between atoms: C_25  and  C_27
REMARK    6  A    between atoms: C_30  and  N_33
REMARK                            x       y       z     vdW  Elec       q    Type
REMARK                         _______ _______ _______ _____ _____    ______ ____
ROOT
ATOM      1  C   UNL     1       0.087  -4.526   4.776  0.00  0.00    +0.035 A 
ATOM      2  C   UNL     1       0.170  -3.168   5.073  0.00  0.00    +0.024 A 
ATOM      3  C   UNL     1       0.171  -2.748   6.384  0.00  0.00    +0.015 A 
ATOM      4  C   UNL     1       0.089  -3.686   7.417  0.00  0.00    +0.038 A 
ATOM      5  C   UNL     1       0.005  -5.049   7.115  0.00  0.00    +0.015 A 
ATOM      6  C   UNL     1       0.000  -5.462   5.802  0.00  0.00    +0.024 A 
ENDROOT
BRANCH   1  18
ATOM      7  C   UNL     1       6.878  -3.105   1.470  0.00  0.00    +0.044 C 
ATOM      8  C   UNL     1       5.524  -3.693   1.171  0.00  0.00    -0.048 A 
ATOM      9  C   UNL     1       5.260  -4.193  -0.102  0.00  0.00    +0.004 A 
ATOM     10  C   UNL     1       4.045  -4.731  -0.403  0.00  0.00    +0.010 A 
ATOM     11  C   UNL     1       3.047  -4.781   0.582  0.00  0.00    -0.001 A 
ATOM     12  C   UNL     1       1.776  -5.329   0.313  0.00  0.00    +0.017 A 
ATOM     13  C   UNL     1       0.855  -5.347   1.315  0.00  0.00    -0.007 A 
ATOM     14  C   UNL     1       1.164  -4.832   2.580  0.00  0.00    +0.107 A 
ATOM     15  N   UNL     1       2.365  -4.320   2.818  0.00  0.00    -0.342 N 
ATOM     16  C   UNL     1       3.311  -4.273   1.877  0.00  0.00    +0.048 A 
ATOM     17  C   UNL     1       4.579  -3.731   2.150  0.00  0.00    +0.029 A 
ATOM     18  N   UNL     1       0.087  -4.947   3.449  0.00  0.00    -0.286 N 
ATOM     19  C   UNL     1      -1.050  -5.576   2.773  0.00  0.00    +0.117 C 
ATOM     20  C   UNL     1      -0.569  -5.856   1.340  0.00  0.00    +0.058 C 
ATOM     21  H   UNL     1       2.561  -3.967   3.700  0.00  0.00    +0.167 HD
ENDBRANCH   1  18
BRANCH   4  22
ATOM     22  C   UNL     1       0.090  -3.239   8.823  0.00  0.00    +0.260 C 
ATOM     23  O   UNL     1       0.163  -2.054   9.084  0.00  0.00    -0.269 OA
ATOM     24  N   UNL     1       0.011  -4.145   9.818  0.00  0.00    -0.230 N 
ATOM     25  H   UNL     1      -0.047  -5.091   9.610  0.00  0.00    +0.173 HD
BRANCH  24  26
ATOM     26  N   UNL     1       0.012  -3.721  11.153  0.00  0.00    -0.230 N 
ATOM     27  C   UNL     1      -0.067  -4.626  12.148  0.00  0.00    +0.260 C 
ATOM     28  O   UNL     1      -0.140  -5.811  11.887  0.00  0.00    -0.269 OA
ATOM     29  H   UNL     1       0.070  -2.775  11.361  0.00  0.00    +0.173 HD
BRANCH  27  30
ATOM     30  C   UNL     1      -0.066  -4.178  13.557  0.00  0.00    +0.038 A 
ATOM     31  C   UNL     1       0.012  -2.818  13.860  0.00  0.00    +0.015 A 
ATOM     32  C   UNL     1       0.013  -2.407  15.177  0.00  0.00    +0.033 A 
ATOM     33  C   UNL     1      -0.063  -3.340  16.196  0.00  0.00    +0.126 A 
ATOM     34  C   UNL     1      -0.140  -4.689  15.903  0.00  0.00    +0.033 A 
ATOM     35  C   UNL     1      -0.148  -5.114  14.590  0.00  0.00    +0.015 A 
BRANCH  33  36
ATOM     36  N   UNL     1      -0.061  -2.891  17.607  0.00  0.00    +0.056 N 
ATOM     37  O   UNL     1       0.007  -1.712  17.866  0.00  0.00    -0.126 OA
ATOM     38  O   UNL     1      -0.127  -3.704  18.500  0.00  0.00    -0.126 OA
ENDBRANCH  33  36
ENDBRANCH  27  30
ENDBRANCH  24  26
ENDBRANCH   4  22
TORSDOF 5
