REMARK  Name = ZINC03538450
REMARK  3 active torsions:
REMARK  status: ('A' for Active; 'I' for Inactive)
REMARK    1  A    between atoms: C_10  and  N_12
REMARK    2  A    between atoms: C_13  and  C_15
REMARK    3  A    between atoms: C_20  and  N_21
REMARK                            x       y       z     vdW  Elec       q    Type
REMARK                         _______ _______ _______ _____ _____    ______ ____
ROOT
ATOM      1  N   UNL     1       3.610   2.218   0.832  0.00  0.00    -0.304 N 
ATOM      2  C   UNL     1       4.133   3.402   0.457  0.00  0.00    +0.247 C 
ATOM      3  O   UNL     1       3.940   3.823  -0.667  0.00  0.00    -0.270 OA
ATOM      4  H   UNL     1       3.764   1.882   1.728  0.00  0.00    +0.150 HD
ENDROOT
BRANCH   1  14
ATOM      5  C   UNL     1      -1.179   2.980  -0.068  0.00  0.00    +0.000 A 
ATOM      6  C   UNL     1      -0.090   3.832  -0.044  0.00  0.00    +0.000 A 
ATOM      7  C   UNL     1       1.187   3.311  -0.058  0.00  0.00    +0.006 A 
ATOM      8  C   UNL     1       1.389   1.937  -0.095  0.00  0.00    -0.024 A 
ATOM      9  C   UNL     1       0.305   1.089  -0.115  0.00  0.00    -0.042 A 
ATOM     10  C   UNL     1      -0.981   1.615  -0.097  0.00  0.00    +0.004 A 
ATOM     11  C   UNL     1       0.449  -0.410  -0.149  0.00  0.00    +0.035 C 
ATOM     12  C   UNL     1       1.857  -0.805  -0.590  0.00  0.00    +0.007 C 
ATOM     13  C   UNL     1       2.866  -0.038   0.274  0.00  0.00    +0.027 C 
ATOM     14  C   UNL     1       2.810   1.438  -0.116  0.00  0.00    +0.104 C 
ENDBRANCH   1  14
BRANCH   2  15
ATOM     15  C   UNL     1       4.940   4.190   1.413  0.00  0.00    +0.067 A 
ATOM     16  C   UNL     1       5.052   3.778   2.742  0.00  0.00    +0.015 A 
ATOM     17  C   UNL     1       5.811   4.514   3.628  0.00  0.00    +0.001 A 
ATOM     18  C   UNL     1       6.453   5.664   3.204  0.00  0.00    +0.002 A 
ATOM     19  C   UNL     1       6.342   6.081   1.889  0.00  0.00    +0.033 A 
ATOM     20  C   UNL     1       5.590   5.351   0.992  0.00  0.00    +0.138 A 
BRANCH  20  21
ATOM     21  N   UNL     1       5.472   5.798  -0.414  0.00  0.00    +0.057 N 
ATOM     22  O   UNL     1       5.696   5.018  -1.322  0.00  0.00    -0.126 OA
ATOM     23  O   UNL     1       5.150   6.947  -0.663  0.00  0.00    -0.126 OA
ENDBRANCH  20  21
ENDBRANCH   2  15
TORSDOF 3
