REMARK  Name = ZINC02835102
REMARK  6 active torsions:
REMARK  status: ('A' for Active; 'I' for Inactive)
REMARK    1  A    between atoms: C_4  and  N_28
REMARK    2  A    between atoms: C_5  and  C_7
REMARK    3  A    between atoms: C_10  and  C_12
REMARK    4  A    between atoms: C_17  and  S_19
REMARK    5  A    between atoms: S_19  and  C_20
REMARK    6  A    between atoms: C_20  and  C_21
REMARK                            x       y       z     vdW  Elec       q    Type
REMARK                         _______ _______ _______ _____ _____    ______ ____
ROOT
ATOM      1  C   UNL     1      -1.105  -0.832   0.008  0.00  0.00    +0.078 C 
ATOM      2  C   UNL     1      -2.405  -0.274   0.023  0.00  0.00    +0.123 C 
ATOM      3  C   UNL     1      -3.638  -1.134   0.030  0.00  0.00    +0.244 C 
ATOM      4  O   UNL     1      -3.743  -2.343   0.025  0.00  0.00    -0.278 OA
ATOM      5  S   UNL     1      -4.908   0.126   0.049  0.00  0.00    -0.019 S 
ATOM      6  C   UNL     1      -3.828   1.549   0.046  0.00  0.00    +0.139 C 
ATOM      7  N   UNL     1      -2.601   1.006   0.037  0.00  0.00    -0.229 NA
ENDROOT
BRANCH   1  11
ATOM      8  C   UNL     1       1.248   1.804  -0.000  0.00  0.00    +0.138 A 
ATOM      9  C   UNL     1       2.123   0.704  -0.014  0.00  0.00    +0.050 A 
ATOM     10  C   UNL     1       1.358  -0.424  -0.013  0.00  0.00    +0.050 A 
ATOM     11  C   UNL     1       0.002  -0.004   0.002  0.00  0.00    +0.131 A 
ATOM     12  O   UNL     1      -0.016   1.347   0.009  0.00  0.00    -0.455 OA
BRANCH   8  17
ATOM     13  C   UNL     1       2.968   5.003   0.922  0.00  0.00    +0.001 A 
ATOM     14  C   UNL     1       2.403   5.881   0.011  0.00  0.00    +0.002 A 
ATOM     15  C   UNL     1       1.462   5.435  -0.904  0.00  0.00    +0.033 A 
ATOM     16  C   UNL     1       1.080   4.112  -0.915  0.00  0.00    +0.137 A 
ATOM     17  C   UNL     1       1.647   3.215   0.004  0.00  0.00    +0.047 A 
ATOM     18  C   UNL     1       2.595   3.678   0.930  0.00  0.00    +0.014 A 
BRANCH  16  19
ATOM     19  N   UNL     1       0.075   3.638  -1.893  0.00  0.00    +0.057 N 
ATOM     20  O   UNL     1      -0.456   4.481  -2.754  0.00  0.00    -0.126 OA
ATOM     21  O   UNL     1      -0.289   2.372  -1.901  0.00  0.00    -0.126 OA
ENDBRANCH  16  19
ENDBRANCH   8  17
ENDBRANCH   1  11
BRANCH   6  22
ATOM     22  S   UNL     1      -4.256   3.206   0.060  0.00  0.00    -0.094 S 
BRANCH  22  23
ATOM     23  C   UNL     1      -2.609   3.956   0.049  0.00  0.00    +0.111 C 
BRANCH  23  24
ATOM     24  C   UNL     1      -2.740   5.457   0.058  0.00  0.00    -0.037 A 
ATOM     25  C   UNL     1      -2.806   6.153  -1.135  0.00  0.00    +0.006 A 
ATOM     26  C   UNL     1      -2.933   7.529  -1.126  0.00  0.00    +0.020 A 
ATOM     27  C   UNL     1      -2.982   8.212   0.076  0.00  0.00    +0.041 A 
ATOM     28  C   UNL     1      -2.910   7.516   1.270  0.00  0.00    +0.020 A 
ATOM     29  C   UNL     1      -2.789   6.139   1.260  0.00  0.00    +0.006 A 
ATOM     30 CL   UNL     1      -3.134   9.941   0.087  0.00  0.00    -0.084 Cl
ENDBRANCH  23  24
ENDBRANCH  22  23
ENDBRANCH   6  22
TORSDOF 6
