REMARK  Name = ZINC01142060
REMARK  10 active torsions:
REMARK  status: ('A' for Active; 'I' for Inactive)
REMARK    1  A    between atoms: C_1  and  C_2
REMARK    2  A    between atoms: C_5  and  S_8
REMARK    3  A    between atoms: S_8  and  N_11
REMARK    4  A    between atoms: N_11  and  C_12
REMARK    5  A    between atoms: N_11  and  C_31
REMARK    6  A    between atoms: C_12  and  C_13
REMARK    7  A    between atoms: N_15  and  C_16
REMARK    8  A    between atoms: C_21  and  C_22
REMARK    9  A    between atoms: N_24  and  C_25
REMARK   10  A    between atoms: C_25  and  C_26
REMARK                            x       y       z     vdW  Elec       q    Type
REMARK                         _______ _______ _______ _____ _____    ______ ____
ROOT
ATOM      1  C   UNL     1      -1.086  -2.050   0.073  0.00  0.00    +0.236 C 
ATOM      2  O   UNL     1      -0.021  -2.610   0.229  0.00  0.00    -0.274 OA
ATOM      3  N   UNL     1      -1.135  -0.705  -0.002  0.00  0.00    -0.283 N 
ATOM      4  H   UNL     1      -1.992  -0.253  -0.050  0.00  0.00    +0.155 HD
ENDROOT
BRANCH   3   5
ATOM      5  C   UNL     1       0.044   0.035  -0.011  0.00  0.00    +0.046 A 
ATOM      6  C   UNL     1       1.176  -0.463  -0.643  0.00  0.00    +0.024 A 
ATOM      7  C   UNL     1       2.344   0.273  -0.650  0.00  0.00    +0.002 A 
ATOM      8  C   UNL     1       2.397   1.511  -0.030  0.00  0.00    +0.001 A 
ATOM      9  C   UNL     1       1.284   2.021   0.601  0.00  0.00    +0.015 A 
ATOM     10  C   UNL     1       0.095   1.288   0.617  0.00  0.00    +0.058 A 
BRANCH  10  11
ATOM     11  C   UNL     1      -1.102   1.832   1.286  0.00  0.00    +0.246 C 
ATOM     12  O   UNL     1      -2.160   1.236   1.217  0.00  0.00    -0.270 OA
ATOM     13  N   UNL     1      -1.024   2.988   1.974  0.00  0.00    -0.304 N 
ATOM     14  H   UNL     1      -0.180   3.463   2.029  0.00  0.00    +0.149 HD
BRANCH  13  15
ATOM     15  C   UNL     1      -2.213   3.527   2.639  0.00  0.00    +0.179 C 
BRANCH  15  16
ATOM     16  C   UNL     1      -1.859   4.818   3.332  0.00  0.00    +0.122 A 
ATOM     17  C   UNL     1      -1.927   6.047   2.789  0.00  0.00    +0.046 A 
ATOM     18  C   UNL     1      -1.507   6.958   3.785  0.00  0.00    +0.041 A 
ATOM     19  C   UNL     1      -1.206   6.232   4.876  0.00  0.00    +0.195 A 
ATOM     20  O   UNL     1      -1.427   4.937   4.598  0.00  0.00    -0.466 OA
ENDBRANCH  15  16
ENDBRANCH  13  15
ENDBRANCH  10  11
ENDBRANCH   3   5
BRANCH   1  21
ATOM     21  C   UNL     1      -2.353  -2.858  -0.036  0.00  0.00    +0.227 C 
BRANCH  21  22
ATOM     22  N   UNL     1      -2.035  -4.283   0.075  0.00  0.00    -0.191 N 
BRANCH  22  23
ATOM     23  C   UNL     1      -1.923  -4.878   1.335  0.00  0.00    +0.087 A 
ATOM     24  C   UNL     1      -3.057  -5.340   1.990  0.00  0.00    +0.027 A 
ATOM     25  C   UNL     1      -2.943  -5.931   3.234  0.00  0.00    +0.002 A 
ATOM     26  C   UNL     1      -1.703  -6.055   3.832  0.00  0.00    +0.003 A 
ATOM     27  C   UNL     1      -0.571  -5.593   3.186  0.00  0.00    +0.040 A 
ATOM     28  C   UNL     1      -0.676  -5.005   1.939  0.00  0.00    +0.146 A 
ATOM     29  F   UNL     1       0.429  -4.552   1.308  0.00  0.00    -0.203 F 
ENDBRANCH  22  23
BRANCH  22  30
ATOM     30  S   UNL     1      -1.807  -5.190  -1.292  0.00  0.00    +0.075 S 
ATOM     31  O   UNL     1      -2.075  -6.539  -0.934  0.00  0.00    -0.150 OA
ATOM     32  O   UNL     1      -2.502  -4.528  -2.339  0.00  0.00    -0.150 OA
BRANCH  30  37
ATOM     33  C   UNL     1       4.061  -4.904  -2.666  0.00  0.00    +0.044 C 
ATOM     34  C   UNL     1       2.595  -4.976  -2.323  0.00  0.00    -0.050 A 
ATOM     35  C   UNL     1       2.128  -5.975  -1.490  0.00  0.00    +0.005 A 
ATOM     36  C   UNL     1       0.784  -6.040  -1.175  0.00  0.00    +0.029 A 
ATOM     37  C   UNL     1      -0.093  -5.106  -1.693  0.00  0.00    +0.109 A 
ATOM     38  C   UNL     1       0.372  -4.110  -2.531  0.00  0.00    +0.029 A 
ATOM     39  C   UNL     1       1.718  -4.042  -2.842  0.00  0.00    +0.005 A 
ENDBRANCH  30  37
ENDBRANCH  22  30
ENDBRANCH  21  22
ENDBRANCH   1  21
TORSDOF 9
