REMARK  Name = ZINC35671700
REMARK  8 active torsions:
REMARK  status: ('A' for Active; 'I' for Inactive)
REMARK    1  A    between atoms: C_1  and  C_2
REMARK    2  A    between atoms: C_5  and  N_8
REMARK    3  A    between atoms: C_10  and  C_34
REMARK    4  A    between atoms: C_14  and  C_16
REMARK    5  A    between atoms: C_16  and  N_17
REMARK    6  A    between atoms: N_17  and  C_18
REMARK    7  A    between atoms: C_18  and  C_19
REMARK    8  A    between atoms: C_25  and  C_27
REMARK                            x       y       z     vdW  Elec       q    Type
REMARK                         _______ _______ _______ _____ _____    ______ ____
ROOT
ATOM      1  N   UNL     1       1.203  -2.705   0.061  0.00  0.00    -0.287 N 
ATOM      2  C   UNL     1       0.477  -3.244  -0.973  0.00  0.00    +0.122 A 
ATOM      3  C   UNL     1       0.705  -4.582  -0.957  0.00  0.00    +0.091 A 
ATOM      4  N   UNL     1       1.549  -4.850   0.063  0.00  0.00    -0.214 NA
ATOM      5  C   UNL     1       1.857  -3.733   0.674  0.00  0.00    +0.207 A 
ATOM      6  N   UNL     1       2.705  -3.616   1.767  0.00  0.00    -0.254 N 
ATOM      7  C   UNL     1       3.294  -4.713   2.284  0.00  0.00    +0.237 C 
ATOM      8  O   UNL     1       3.083  -5.802   1.794  0.00  0.00    -0.274 OA
ATOM      9  H   UNL     1       2.874  -2.745   2.159  0.00  0.00    +0.158 HD
ENDROOT
BRANCH   1  14
ATOM     10  C   UNL     1       1.451   2.779   1.501  0.00  0.00    +0.044 C 
ATOM     11  C   UNL     1       1.385   1.323   1.119  0.00  0.00    -0.050 A 
ATOM     12  C   UNL     1       1.585   0.945  -0.196  0.00  0.00    +0.005 A 
ATOM     13  C   UNL     1       1.525  -0.389  -0.550  0.00  0.00    +0.026 A 
ATOM     14  C   UNL     1       1.265  -1.351   0.417  0.00  0.00    +0.049 A 
ATOM     15  C   UNL     1       1.065  -0.968   1.737  0.00  0.00    +0.026 A 
ATOM     16  C   UNL     1       1.131   0.367   2.085  0.00  0.00    +0.005 A 
ENDBRANCH   1  14
BRANCH   3  17
ATOM     17  C   UNL     1       0.128  -5.575  -1.895  0.00  0.00    +0.002 A 
ATOM     18  C   UNL     1      -0.730  -5.161  -2.912  0.00  0.00    +0.010 A 
ATOM     19  C   UNL     1      -1.264  -6.090  -3.782  0.00  0.00    +0.001 A 
ATOM     20  C   UNL     1      -0.950  -7.430  -3.645  0.00  0.00    +0.000 A 
ATOM     21  C   UNL     1      -0.099  -7.847  -2.638  0.00  0.00    +0.001 A 
ATOM     22  C   UNL     1       0.446  -6.926  -1.766  0.00  0.00    +0.010 A 
ENDBRANCH   3  17
BRANCH   7  23
ATOM     23  C   UNL     1       4.214  -4.586   3.470  0.00  0.00    +0.204 C 
BRANCH  23  24
ATOM     24  N   UNL     1       4.722  -5.910   3.838  0.00  0.00    -0.286 N 
ATOM     25  C   UNL     1       4.155  -6.590   4.854  0.00  0.00    +0.247 C 
ATOM     26  O   UNL     1       4.606  -7.668   5.190  0.00  0.00    -0.270 OA
BRANCH  25  27
ATOM     27  C   UNL     1       2.985  -6.027   5.559  0.00  0.00    +0.037 A 
ATOM     28  C   UNL     1       1.952  -5.429   4.835  0.00  0.00    +0.014 A 
ATOM     29  C   UNL     1       0.862  -4.905   5.498  0.00  0.00    +0.021 A 
ATOM     30  C   UNL     1       0.792  -4.971   6.880  0.00  0.00    +0.041 A 
ATOM     31  C   UNL     1       1.814  -5.563   7.604  0.00  0.00    +0.021 A 
ATOM     32  C   UNL     1       2.906  -6.096   6.951  0.00  0.00    +0.014 A 
ATOM     33 CL   UNL     1      -0.582  -4.308   7.709  0.00  0.00    -0.084 Cl
ENDBRANCH  25  27
BRANCH  24  34
ATOM     34  C   UNL     1       5.846  -6.494   3.102  0.00  0.00    +0.140 C 
BRANCH  34  35
ATOM     35  C   UNL     1       7.149  -6.211   3.853  0.00  0.00    +0.136 C 
ATOM     36  C   UNL     1       8.356  -6.791   3.073  0.00  0.00    +0.035 C 
ATOM     37  C   UNL     1       9.506  -5.886   3.594  0.00  0.00    +0.031 C 
ATOM     38  C   UNL     1       8.792  -4.532   3.796  0.00  0.00    +0.160 C 
ATOM     39  O   UNL     1       7.388  -4.796   3.921  0.00  0.00    -0.375 OA
ENDBRANCH  34  35
ENDBRANCH  24  34
ENDBRANCH  23  24
ENDBRANCH   7  23
TORSDOF 7
