REMARK  Name = ZINC63165529
REMARK  3 active torsions:
REMARK  status: ('A' for Active; 'I' for Inactive)
REMARK    1  A    between atoms: C_4  and  N_26
REMARK    2  A    between atoms: C_5  and  C_7
REMARK    3  A    between atoms: CA_20  and  C_23
REMARK                            x       y       z     vdW  Elec       q    Type
REMARK                         _______ _______ _______ _____ _____    ______ ____
ROOT
ATOM      1  C   UNL     1       1.671  -2.117   0.403  0.00  0.00    +0.113 C 
ATOM      2  C   UNL     1       1.861  -2.398   1.895  0.00  0.00    +0.128 C 
ATOM      3  C   UNL     1       0.518  -2.108   2.557  0.00  0.00    -0.035 C 
ATOM      4  C   UNL     1       0.760  -1.243   3.532  0.00  0.00    -0.001 A 
ATOM      5  C   UNL     1      -0.111  -0.661   4.566  0.00  0.00    +0.010 A 
ATOM      6  C   UNL     1       0.475   0.224   5.415  0.00  0.00    +0.001 A 
ATOM      7  C   UNL     1       1.824   0.583   5.341  0.00  0.00    +0.002 A 
ATOM      8  C   UNL     1       2.699   0.092   4.428  0.00  0.00    +0.026 A 
ATOM      9  C   UNL     1       2.202  -0.851   3.483  0.00  0.00    +0.043 A 
ATOM     10  N   UNL     1       2.829  -1.497   2.519  0.00  0.00    -0.376 N 
ATOM     11  C   UNL     1      -0.769  -2.691   2.026  0.00  0.00    +0.063 C 
ATOM     12  CA  UNL     1      -0.758  -2.441   0.506  0.00  0.00    +0.172 C 
ATOM     13  N   UNL     1       0.513  -2.891  -0.071  0.00  0.00    -0.295 NA
ATOM     14  H   UNL     1       0.470  -2.898  -1.079  0.00  0.00    +0.123 HD
ATOM     15  H   UNL     1       3.759  -1.396   2.260  0.00  0.00    +0.160 HD
ENDROOT
BRANCH   1  20
ATOM     16  C   UNL     1       0.419   1.410   0.900  0.00  0.00    +0.000 A 
ATOM     17  C   UNL     1       0.958   2.052  -0.199  0.00  0.00    +0.002 A 
ATOM     18  C   UNL     1       1.727   1.345  -1.104  0.00  0.00    +0.033 A 
ATOM     19  C   UNL     1       1.958  -0.004  -0.909  0.00  0.00    +0.131 A 
ATOM     20  C   UNL     1       1.420  -0.646   0.191  0.00  0.00    +0.002 A 
ATOM     21  C   UNL     1       0.649   0.061   1.095  0.00  0.00    +0.007 A 
BRANCH  19  22
ATOM     22  N   UNL     1       2.782  -0.762  -1.878  0.00  0.00    +0.057 N 
ATOM     23  O   UNL     1       3.350  -0.180  -2.773  0.00  0.00    -0.126 OA
ATOM     24  O   UNL     1       2.886  -1.962  -1.775  0.00  0.00    -0.126 OA
ENDBRANCH  19  22
ENDBRANCH   1  20
BRANCH  12  25
ATOM     25  C   UNL     1      -1.891  -3.202  -0.133  0.00  0.00    +0.373 C 
ATOM     26  O   UNL     1      -2.984  -2.677  -0.259  0.00  0.00    -0.245 OA
ATOM     27  OXT UNL     1      -1.714  -4.343  -0.524  0.00  0.00    -0.245 OA
ENDBRANCH  12  25
TORSDOF 3
