REMARK  Name = ZINC40341998
REMARK  6 active torsions:
REMARK  status: ('A' for Active; 'I' for Inactive)
REMARK    1  A    between atoms: C_6  and  C_7
REMARK    2  A    between atoms: N_15  and  C_27
REMARK    3  A    between atoms: C_16  and  C_18
REMARK    4  A    between atoms: C_21  and  N_24
REMARK    5  A    between atoms: C_27  and  C_28
REMARK    6  A    between atoms: C_28  and  N_29
REMARK                            x       y       z     vdW  Elec       q    Type
REMARK                         _______ _______ _______ _____ _____    ______ ____
ROOT
ATOM      1  C   UNL     1      -1.272  -0.766   0.011  0.00  0.00    +0.099 A 
ATOM      2  C   UNL     1      -1.513  -1.983  -0.636  0.00  0.00    +0.035 A 
ATOM      3  C   UNL     1      -2.825  -2.308  -0.348  0.00  0.00    +0.126 A 
ATOM      4  N   UNL     1      -3.303  -1.299   0.438  0.00  0.00    -0.272 N 
ATOM      5  H   UNL     1      -4.202  -1.251   0.798  0.00  0.00    +0.189 HD
ATOM      6  N   UNL     1      -2.382  -0.423   0.633  0.00  0.00    -0.173 NA
ATOM      7  C   UNL     1      -3.143  -3.583  -1.001  0.00  0.00    +0.266 C 
ATOM      8  O   UNL     1      -4.221  -4.144  -0.941  0.00  0.00    -0.268 OA
ATOM      9  N   UNL     1      -2.074  -4.045  -1.673  0.00  0.00    -0.284 N 
ATOM     10  C   UNL     1      -0.973  -3.088  -1.502  0.00  0.00    +0.141 C 
ENDROOT
BRANCH   1  16
ATOM     11  C   UNL     1      -0.017   1.389   0.010  0.00  0.00    +0.011 A 
ATOM     12  C   UNL     1       1.170   2.093   0.002  0.00  0.00    +0.020 A 
ATOM     13  C   UNL     1       2.378   1.417  -0.013  0.00  0.00    +0.041 A 
ATOM     14  C   UNL     1       2.402   0.033  -0.022  0.00  0.00    +0.020 A 
ATOM     15  C   UNL     1       1.220  -0.680  -0.014  0.00  0.00    +0.011 A 
ATOM     16  C   UNL     1       0.002  -0.004   0.002  0.00  0.00    +0.003 A 
ATOM     17 CL   UNL     1       3.868   2.308  -0.024  0.00  0.00    -0.084 Cl
ENDBRANCH   1  16
BRANCH  10  18
ATOM     18  C   UNL     1      -0.550  -2.538  -2.840  0.00  0.00    -0.022 A 
ATOM     19  C   UNL     1      -1.500  -2.258  -3.804  0.00  0.00    +0.008 A 
ATOM     20  C   UNL     1      -1.112  -1.754  -5.031  0.00  0.00    +0.033 A 
ATOM     21  C   UNL     1       0.226  -1.528  -5.294  0.00  0.00    +0.126 A 
ATOM     22  C   UNL     1       1.176  -1.806  -4.329  0.00  0.00    +0.033 A 
ATOM     23  C   UNL     1       0.788  -2.307  -3.100  0.00  0.00    +0.008 A 
BRANCH  21  24
ATOM     24  N   UNL     1       0.642  -0.989  -6.608  0.00  0.00    +0.056 N 
ATOM     25  O   UNL     1      -0.189  -0.746  -7.452  0.00  0.00    -0.126 OA
ATOM     26  O   UNL     1       1.812  -0.791  -6.838  0.00  0.00    -0.126 OA
ENDBRANCH  21  24
ENDBRANCH  10  18
BRANCH   9  27
ATOM     27  C   UNL     1      -2.017  -5.289  -2.445  0.00  0.00    +0.124 C 
BRANCH  27  28
ATOM     28  C   UNL     1      -2.430  -5.011  -3.892  0.00  0.00    +0.103 C 
BRANCH  28  29
ATOM     29  N   UNL     1      -2.373  -6.258  -4.666  0.00  0.00    -0.297 NA
ATOM     30  C   UNL     1      -0.989  -6.738  -4.791  0.00  0.00    +0.112 C 
ATOM     31  C   UNL     1      -0.982  -8.067  -5.551  0.00  0.00    +0.175 C 
ATOM     32  O   UNL     1      -1.609  -7.886  -6.823  0.00  0.00    -0.377 OA
ATOM     33  C   UNL     1      -2.958  -7.420  -6.739  0.00  0.00    +0.175 C 
ATOM     34  C   UNL     1      -2.986  -6.085  -5.991  0.00  0.00    +0.112 C 
ENDBRANCH  28  29
ENDBRANCH  27  28
ENDBRANCH   9  27
TORSDOF 6
