REMARK  Name = ZINC48353578
REMARK  11 active torsions:
REMARK  status: ('A' for Active; 'I' for Inactive)
REMARK    1  A    between atoms: C_1  and  C_2
REMARK    2  A    between atoms: C_3  and  C_32
REMARK    3  A    between atoms: C_7  and  N_19
REMARK    4  A    between atoms: C_9  and  C_11
REMARK    5  A    between atoms: C_11  and  N_12
REMARK    6  A    between atoms: C_15  and  C_18
REMARK    7  A    between atoms: N_19  and  C_20
REMARK    8  A    between atoms: C_20  and  C_21
REMARK    9  A    between atoms: C_21  and  N_22
REMARK   10  A    between atoms: N_25  and  S_28
REMARK   11  A    between atoms: S_28  and  C_31
REMARK                            x       y       z     vdW  Elec       q    Type
REMARK                         _______ _______ _______ _____ _____    ______ ____
ROOT
ATOM      1  C   UNL     1      -0.556   1.486   0.114  0.00  0.00    +0.045 C 
ATOM      2  C   UNL     1      -0.484  -0.020   0.096  0.00  0.00    -0.028 A 
ATOM      3  C   UNL     1      -0.771  -0.699  -1.024  0.00  0.00    -0.008 A 
ATOM      4  S   UNL     1      -0.546  -2.402  -0.548  0.00  0.00    -0.074 S 
ATOM      5  C   UNL     1      -0.073  -2.156   1.143  0.00  0.00    +0.114 A 
ATOM      6  C   UNL     1      -0.097  -0.751   1.289  0.00  0.00    +0.051 A 
ATOM      7  C   UNL     1       0.255  -0.267   2.579  0.00  0.00    +0.131 A 
ATOM      8  N   UNL     1       0.577  -1.132   3.527  0.00  0.00    -0.219 NA
ATOM      9  C   UNL     1       0.583  -2.436   3.318  0.00  0.00    +0.116 A 
ATOM     10  N   UNL     1       0.256  -2.946   2.146  0.00  0.00    -0.227 NA
ATOM     11  C   UNL     1      -1.185  -0.153  -2.366  0.00  0.00    +0.052 C 
ENDROOT
BRANCH   7  12
ATOM     12  N   UNL     1       0.262   1.092   2.839  0.00  0.00    -0.327 N 
ATOM     13  H   UNL     1       0.110   1.724   2.119  0.00  0.00    +0.148 HD
BRANCH  12  14
ATOM     14  C   UNL     1       0.498   1.576   4.201  0.00  0.00    +0.118 C 
BRANCH  14  15
ATOM     15  C   UNL     1       0.454   3.105   4.214  0.00  0.00    +0.103 C 
BRANCH  15  16
ATOM     16  N   UNL     1       0.691   3.591   5.580  0.00  0.00    -0.298 NA
ATOM     17  C   UNL     1      -0.404   3.195   6.476  0.00  0.00    +0.101 C 
ATOM     18  C   UNL     1      -0.036   3.559   7.918  0.00  0.00    +0.124 C 
ATOM     19  N   UNL     1       0.320   4.986   7.964  0.00  0.00    -0.179 NA
ATOM     20  C   UNL     1       1.312   5.486   7.000  0.00  0.00    +0.124 C 
ATOM     21  C   UNL     1       0.891   5.046   5.594  0.00  0.00    +0.101 C 
BRANCH  19  22
ATOM     22  S   UNL     1      -0.378   6.001   9.070  0.00  0.00    +0.029 S 
ATOM     23  O   UNL     1      -0.314   7.289   8.472  0.00  0.00    -0.158 OA
ATOM     24  O   UNL     1      -1.632   5.404   9.370  0.00  0.00    -0.158 OA
ATOM     25  C   UNL     1       0.711   5.931  10.519  0.00  0.00    +0.215 C 
ENDBRANCH  19  22
ENDBRANCH  15  16
ENDBRANCH  14  15
ENDBRANCH  12  14
ENDBRANCH   7  12
BRANCH   9  26
ATOM     26  C   UNL     1       0.960  -3.362   4.445  0.00  0.00    -0.001 C 
BRANCH  26  27
ATOM     27  N   UNL     1      -0.245  -3.731   5.199  0.00  0.00    +0.384 N 
ATOM     28  C   UNL     1      -1.144  -4.505   4.335  0.00  0.00    -0.078 C 
ATOM     29  C   UNL     1      -2.436  -4.822   5.090  0.00  0.00    -0.016 C 
ATOM     30  C   UNL     1      -2.102  -5.639   6.342  0.00  0.00    -0.018 C 
ATOM     31  C   UNL     1      -1.105  -4.854   7.200  0.00  0.00    -0.016 C 
ATOM     32  C   UNL     1       0.137  -4.535   6.367  0.00  0.00    -0.078 C 
ATOM     33  C   UNL     1      -3.380  -5.893   7.144  0.00  0.00    +0.007 C 
ATOM     34  H   UNL     1      -0.717  -2.894   5.509  0.00  0.00    -0.081 HD
ENDBRANCH  26  27
ENDBRANCH   9  26
TORSDOF 7
