REMARK  Name = ZINC12482431
REMARK  8 active torsions:
REMARK  status: ('A' for Active; 'I' for Inactive)
REMARK    1  A    between atoms: C_1  and  O_2
REMARK    2  A    between atoms: O_2  and  C_3
REMARK    3  A    between atoms: C_6  and  C_10
REMARK    4  A    between atoms: C_8  and  O_9
REMARK    5  A    between atoms: N_11  and  C_12
REMARK    6  A    between atoms: C_15  and  S_18
REMARK    7  A    between atoms: S_18  and  N_21
REMARK    8  A    between atoms: N_21  and  C_22
REMARK                            x       y       z     vdW  Elec       q    Type
REMARK                         _______ _______ _______ _____ _____    ______ ____
ROOT
ATOM      1  C   UNL     1       1.452   5.798  -0.336  0.00  0.00    +0.064 A 
ATOM      2  C   UNL     1       0.706   6.696  -1.104  0.00  0.00    +0.029 A 
ATOM      3  C   UNL     1       0.931   8.052  -0.986  0.00  0.00    +0.031 A 
ATOM      4  C   UNL     1       1.901   8.523  -0.118  0.00  0.00    +0.109 A 
ATOM      5  C   UNL     1       2.647   7.639   0.641  0.00  0.00    +0.031 A 
ATOM      6  C   UNL     1       2.429   6.281   0.538  0.00  0.00    +0.029 A 
ENDROOT
BRANCH   4   7
ATOM      7  S   UNL     1       2.186  10.256   0.021  0.00  0.00    +0.072 S 
ATOM      8  O   UNL     1       1.035  10.901  -0.506  0.00  0.00    -0.150 OA
ATOM      9  O   UNL     1       2.650  10.486   1.344  0.00  0.00    -0.150 OA
BRANCH   7  10
ATOM     10  N   UNL     1       3.442  10.628  -0.993  0.00  0.00    -0.216 N 
ATOM     11  H   UNL     1       4.273  10.973  -0.630  0.00  0.00    +0.174 HD
BRANCH  10  12
ATOM     12  C   UNL     1       3.305  10.445  -2.371  0.00  0.00    +0.048 A 
ATOM     13  C   UNL     1       3.950   9.388  -3.001  0.00  0.00    +0.025 A 
ATOM     14  C   UNL     1       3.807   9.206  -4.362  0.00  0.00    +0.016 A 
ATOM     15  C   UNL     1       3.033  10.082  -5.101  0.00  0.00    +0.013 A 
ATOM     16  C   UNL     1       2.394  11.139  -4.478  0.00  0.00    +0.016 A 
ATOM     17  C   UNL     1       2.528  11.323  -3.116  0.00  0.00    +0.025 A 
ATOM     18  I   UNL     1       2.827   9.807  -7.168  0.00  0.00    -0.044 I 
ENDBRANCH  10  12
ENDBRANCH   7  10
ENDBRANCH   4   7
BRANCH   1  20
ATOM     19  C   UNL     1       0.010   3.991  -0.453  0.00  0.00    +0.119 C 
ATOM     20  N   UNL     1       1.230   4.452  -0.444  0.00  0.00    -0.255 NA
BRANCH  19  24
ATOM     21  C   UNL     1      -0.672  -0.185  -0.787  0.00  0.00    +0.161 A 
ATOM     22  C   UNL     1       0.626   0.307  -0.778  0.00  0.00    +0.050 A 
ATOM     23  C   UNL     1       0.852   1.662  -0.670  0.00  0.00    +0.013 A 
ATOM     24  C   UNL     1      -0.228   2.545  -0.568  0.00  0.00    -0.003 A 
ATOM     25  C   UNL     1      -1.536   2.048  -0.578  0.00  0.00    +0.058 A 
ATOM     26  C   UNL     1      -1.754   0.688  -0.687  0.00  0.00    +0.159 A 
BRANCH  21  28
ATOM     27  C   UNL     1       0.264  -2.361  -0.993  0.00  0.00    +0.277 C 
ATOM     28  O   UNL     1      -0.889  -1.522  -0.894  0.00  0.00    -0.491 OA
ENDBRANCH  21  28
BRANCH  26  29
ATOM     29  O   UNL     1      -3.024   0.202  -0.697  0.00  0.00    -0.503 OA
ATOM     30  H   UNL     1      -3.413   0.135  -1.580  0.00  0.00    +0.292 HD
ENDBRANCH  26  29
ENDBRANCH  19  24
ENDBRANCH   1  20
TORSDOF 7
