REMARK  Name = ZINC11603418
REMARK  8 active torsions:
REMARK  status: ('A' for Active; 'I' for Inactive)
REMARK    1  A    between atoms: C_1  and  C_2
REMARK    2  A    between atoms: C_7  and  C_9
REMARK    3  A    between atoms: C_7  and  C_30
REMARK    4  A    between atoms: C_7  and  N_65
REMARK    5  A    between atoms: C_9  and  N_10
REMARK    6  A    between atoms: C_11  and  C_13
REMARK    7  A    between atoms: C_13  and  C_14
REMARK    8  A    between atoms: C_14  and  C_15
REMARK                            x       y       z     vdW  Elec       q    Type
REMARK                         _______ _______ _______ _____ _____    ______ ____
ROOT
ATOM      1  N   UNL     1      -2.583  10.494  -5.643  0.00  0.00    -0.317 N 
ATOM      2  C   UNL     1      -2.434   9.229  -6.084  0.00  0.00    +0.213 C 
ATOM      3  O   UNL     1      -2.462   8.995  -7.274  0.00  0.00    -0.276 OA
ATOM      4  H   UNL     1      -2.561  10.682  -4.692  0.00  0.00    +0.149 HD
ENDROOT
BRANCH   1   5
ATOM      5  C   UNL     1      -2.779  11.586  -6.601  0.00  0.00    +0.094 C 
BRANCH   5   6
ATOM      6  C   UNL     1      -2.921  12.908  -5.844  0.00  0.00    -0.013 C 
BRANCH   6  13
ATOM      7  C   UNL     1       1.858  14.336  -3.052  0.00  0.00    +0.007 C 
ATOM      8  C   UNL     1       0.720  14.284  -4.073  0.00  0.00    -0.018 C 
ATOM      9  C   UNL     1      -0.612  14.560  -3.370  0.00  0.00    -0.015 C 
ATOM     10  C   UNL     1      -1.752  14.446  -4.384  0.00  0.00    -0.078 C 
ATOM     11  C   UNL     1      -0.506  12.829  -5.690  0.00  0.00    -0.078 C 
ATOM     12  C   UNL     1       0.671  12.894  -4.715  0.00  0.00    -0.015 C 
ATOM     13  N   UNL     1      -1.759  13.078  -4.947  0.00  0.00    +0.386 N 
ATOM     14  H   UNL     1      -1.831  12.402  -4.178  0.00  0.00    -0.081 HD
ENDBRANCH   6  13
BRANCH   6  15
ATOM     15  C   UNL     1      -2.999  14.045  -6.830  0.00  0.00    -0.022 A 
ATOM     16  C   UNL     1      -4.068  14.804  -7.175  0.00  0.00    +0.009 A 
ATOM     17  C   UNL     1      -3.904  15.805  -8.114  0.00  0.00    +0.008 A 
ATOM     18  C   UNL     1      -2.680  15.998  -8.663  0.00  0.00    +0.045 A 
ATOM     19  S   UNL     1      -1.706  14.747  -7.842  0.00  0.00    -0.103 S 
ENDBRANCH   6  15
ENDBRANCH   5   6
ENDBRANCH   1   5
BRANCH   2  20
ATOM     20  C   UNL     1      -2.232   8.107  -5.100  0.00  0.00    +0.103 C 
BRANCH  20  21
ATOM     21  C   UNL     1      -2.091   6.784  -5.856  0.00  0.00    +0.083 C 
BRANCH  21  22
ATOM     22  C   UNL     1      -1.890   5.661  -4.871  0.00  0.00    +0.111 A 
ATOM     23  N   UNL     1      -1.742   4.402  -5.348  0.00  0.00    -0.310 N 
ATOM     24  H   UNL     1      -1.771   4.265  -6.308  0.00  0.00    +0.170 HD
ATOM     25  C   UNL     1      -1.556   3.326  -4.548  0.00  0.00    +0.260 A 
ATOM     26  O   UNL     1      -1.424   2.200  -4.995  0.00  0.00    -0.267 OA
ATOM     27  C   UNL     1      -1.523   3.596  -3.138  0.00  0.00    +0.075 A 
ATOM     28  C   UNL     1      -1.340   2.629  -2.071  0.00  0.00    -0.023 A 
ATOM     29  C   UNL     1      -1.343   3.113  -0.806  0.00  0.00    -0.004 A 
ATOM     30  S   UNL     1      -1.588   4.863  -0.979  0.00  0.00    -0.073 S 
ATOM     31  C   UNL     1      -1.686   4.941  -2.740  0.00  0.00    +0.116 A 
ATOM     32  N   UNL     1      -1.865   5.949  -3.588  0.00  0.00    -0.227 NA
ATOM     33  C   UNL     1      -1.177   2.337   0.463  0.00  0.00    +0.043 C 
ATOM     34  C   UNL     1      -1.372   0.846   0.149  0.00  0.00    +0.005 C 
ATOM     35  C   UNL     1      -0.536   0.493  -1.085  0.00  0.00    +0.005 C 
ATOM     36  C   UNL     1      -1.150   1.137  -2.328  0.00  0.00    +0.037 C 
ENDBRANCH  21  22
ENDBRANCH  20  21
ENDBRANCH   2  20
TORSDOF 7
