REMARK  Name = ZINC46554963
REMARK  12 active torsions:
REMARK  status: ('A' for Active; 'I' for Inactive)
REMARK    1  A    between atoms: C_1  and  C_2
REMARK    2  A    between atoms: C_2  and  N_3
REMARK    3  A    between atoms: N_3  and  C_4
REMARK    4  A    between atoms: N_3  and  S_6
REMARK    5  A    between atoms: C_4  and  C_5
REMARK    6  A    between atoms: S_6  and  C_9
REMARK    7  A    between atoms: C_13  and  C_15
REMARK    8  A    between atoms: N_17  and  C_18
REMARK    9  A    between atoms: C_18  and  C_19
REMARK   10  A    between atoms: N_21  and  C_22
REMARK   11  A    between atoms: C_22  and  C_24
REMARK   12  A    between atoms: C_22  and  C_25
REMARK                            x       y       z     vdW  Elec       q    Type
REMARK                         _______ _______ _______ _____ _____    ______ ____
ROOT
ATOM      1  C   UNL     1       1.506   2.347  -6.284  0.00  0.00    +0.245 C 
ATOM      2  O   UNL     1       2.447   1.597  -6.460  0.00  0.00    -0.270 OA
ATOM      3  N   UNL     1       1.387   3.465  -7.027  0.00  0.00    -0.303 N 
ATOM      4  H   UNL     1       0.636   4.063  -6.886  0.00  0.00    +0.150 HD
ENDROOT
BRANCH   1   9
ATOM      5  C   UNL     1      -0.337   0.586  -3.526  0.00  0.00    +0.106 A 
ATOM      6  C   UNL     1      -1.407   1.441  -3.328  0.00  0.00    +0.028 A 
ATOM      7  C   UNL     1      -1.532   2.590  -4.088  0.00  0.00    +0.003 A 
ATOM      8  C   UNL     1      -0.589   2.890  -5.050  0.00  0.00    +0.013 A 
ATOM      9  C   UNL     1       0.492   2.032  -5.255  0.00  0.00    +0.039 A 
ATOM     10  C   UNL     1       0.615   0.877  -4.480  0.00  0.00    +0.041 A 
BRANCH   5  11
ATOM     11  S   UNL     1      -0.188  -0.875  -2.551  0.00  0.00    +0.061 S 
ATOM     12  O   UNL     1       0.610  -1.782  -3.300  0.00  0.00    -0.153 OA
ATOM     13  O   UNL     1      -1.496  -1.201  -2.104  0.00  0.00    -0.153 OA
BRANCH  11  14
ATOM     14  N   UNL     1       0.688  -0.476  -1.203  0.00  0.00    -0.177 NA
BRANCH  14  16
ATOM     15  C   UNL     1      -0.019   1.526   0.010  0.00  0.00    +0.022 C 
ATOM     16  C   UNL     1       0.002  -0.004   0.002  0.00  0.00    +0.106 C 
ENDBRANCH  14  16
BRANCH  14  17
ATOM     17  C   UNL     1       2.148  -0.597  -1.216  0.00  0.00    +0.106 C 
ATOM     18  C   UNL     1       2.553  -1.951  -0.632  0.00  0.00    +0.022 C 
ENDBRANCH  14  17
ENDBRANCH  11  14
ENDBRANCH   5  11
ENDBRANCH   1   9
BRANCH   3  19
ATOM     19  C   UNL     1       2.391   3.777  -8.046  0.00  0.00    +0.200 C 
BRANCH  19  20
ATOM     20  C   UNL     1       2.028   5.071  -8.730  0.00  0.00    +0.230 C 
ATOM     21  O   UNL     1       1.029   5.672  -8.397  0.00  0.00    -0.274 OA
ATOM     22  N   UNL     1       2.814   5.559  -9.710  0.00  0.00    -0.311 N 
ATOM     23  H   UNL     1       3.613   5.077  -9.976  0.00  0.00    +0.149 HD
BRANCH  22  24
ATOM     24  C   UNL     1       2.461   6.816 -10.374  0.00  0.00    +0.076 C 
ATOM     25  C   UNL     1       3.000   7.992  -9.557  0.00  0.00    +0.028 C 
BRANCH  24  26
ATOM     26  C   UNL     1       3.077   6.843 -11.774  0.00  0.00    -0.010 C 
ATOM     27  C   UNL     1       2.538   5.667 -12.591  0.00  0.00    +0.012 C 
ATOM     28  C   UNL     1       3.154   5.694 -13.991  0.00  0.00    -0.010 C 
ATOM     29  C   UNL     1       2.785   7.007 -14.685  0.00  0.00    +0.007 C 
ATOM     30  C   UNL     1       3.324   8.184 -13.868  0.00  0.00    -0.010 C 
ATOM     31  C   UNL     1       2.708   8.156 -12.468  0.00  0.00    +0.012 C 
ATOM     32  C   UNL     1       4.846   8.074 -13.759  0.00  0.00    +0.007 C 
ATOM     33  C   UNL     1       5.214   6.761 -13.065  0.00  0.00    -0.010 C 
ATOM     34  C   UNL     1       4.676   5.585 -13.882  0.00  0.00    +0.007 C 
ATOM     35  C   UNL     1       4.599   6.734 -11.665  0.00  0.00    +0.012 C 
ENDBRANCH  24  26
ENDBRANCH  22  24
ENDBRANCH  19  20
ENDBRANCH   3  19
TORSDOF 9
