REMARK  Name = ZINC11908925
REMARK  6 active torsions:
REMARK  status: ('A' for Active; 'I' for Inactive)
REMARK    1  A    between atoms: C_8  and  C_10
REMARK    2  A    between atoms: C_10  and  N_65
REMARK    3  A    between atoms: C_13  and  C_16
REMARK    4  A    between atoms: C_16  and  C_30
REMARK    5  A    between atoms: N_19  and  C_23
REMARK    6  A    between atoms: C_23  and  C_24
REMARK                            x       y       z     vdW  Elec       q    Type
REMARK                         _______ _______ _______ _____ _____    ______ ____
ROOT
ATOM      1  C   UNL     1      -2.495  -2.849  -5.205  0.00  0.00    +0.157 C 
ATOM      2  C   UNL     1      -1.375  -3.085  -6.198  0.00  0.00    +0.253 C 
ATOM      3  O   UNL     1      -0.449  -2.343  -6.448  0.00  0.00    -0.272 OA
ATOM      4  N   UNL     1      -1.625  -4.296  -6.744  0.00  0.00    -0.221 N 
ATOM      5  C   UNL     1      -2.736  -4.845  -6.240  0.00  0.00    +0.310 C 
ATOM      6  O   UNL     1      -3.166  -5.931  -6.578  0.00  0.00    -0.252 OA
ATOM      7  N   UNL     1      -3.324  -4.062  -5.318  0.00  0.00    -0.280 N 
ATOM      8  H   UNL     1      -4.135  -4.257  -4.824  0.00  0.00    +0.152 HD
ENDROOT
BRANCH   1  11
ATOM      9  C   UNL     1      -2.523  -2.613  -1.362  0.00  0.00    -0.078 C 
ATOM     10  C   UNL     1      -3.091  -2.692  -2.781  0.00  0.00    -0.012 C 
ATOM     11  C   UNL     1      -1.937  -2.709  -3.787  0.00  0.00    +0.024 C 
ATOM     12  C   UNL     1      -1.019  -3.895  -3.479  0.00  0.00    -0.012 C 
ATOM     13  C   UNL     1      -0.511  -3.780  -2.040  0.00  0.00    -0.078 C 
ATOM     14  N   UNL     1      -1.668  -3.795  -1.120  0.00  0.00    +0.384 N 
ATOM     15  H   UNL     1      -2.219  -4.644  -1.291  0.00  0.00    -0.081 HD
BRANCH  14  16
ATOM     16  C   UNL     1      -1.199  -3.800   0.281  0.00  0.00    -0.003 C 
BRANCH  16  24
ATOM     17  C   UNL     1      -5.990  -3.257   3.968  0.00  0.00    +0.001 A 
ATOM     18  C   UNL     1      -5.676  -1.909   3.871  0.00  0.00    +0.004 A 
ATOM     19  C   UNL     1      -4.609  -1.489   3.106  0.00  0.00    +0.047 A 
ATOM     20  C   UNL     1      -3.838  -2.423   2.424  0.00  0.00    +0.135 A 
ATOM     21  C   UNL     1      -4.162  -3.786   2.526  0.00  0.00    +0.020 A 
ATOM     22  C   UNL     1      -5.245  -4.192   3.305  0.00  0.00    +0.011 A 
ATOM     23  C   UNL     1      -3.170  -4.488   1.702  0.00  0.00    +0.051 A 
ATOM     24  C   UNL     1      -2.370  -3.541   1.194  0.00  0.00    +0.090 A 
ATOM     25  O   UNL     1      -2.761  -2.327   1.618  0.00  0.00    -0.462 OA
ENDBRANCH  16  24
ENDBRANCH  14  16
ENDBRANCH   1  11
BRANCH   1  26
ATOM     26  C   UNL     1      -3.290  -1.626  -5.583  0.00  0.00    +0.074 A 
ATOM     27  C   UNL     1      -3.990  -1.608  -6.775  0.00  0.00    +0.026 A 
ATOM     28  C   UNL     1      -4.723  -0.480  -7.111  0.00  0.00    +0.003 A 
ATOM     29  C   UNL     1      -4.715   0.596  -6.237  0.00  0.00    +0.020 A 
ATOM     30  C   UNL     1      -3.986   0.508  -5.066  0.00  0.00    +0.111 A 
ATOM     31  N   UNL     1      -3.305  -0.583  -4.777  0.00  0.00    -0.257 NA
ENDBRANCH   1  26
BRANCH   4  32
ATOM     32  C   UNL     1      -0.785  -4.927  -7.765  0.00  0.00    +0.149 C 
BRANCH  32  33
ATOM     33  C   UNL     1      -1.275  -4.515  -9.155  0.00  0.00    +0.136 C 
ATOM     34  C   UNL     1      -0.420  -5.200 -10.251  0.00  0.00    +0.035 C 
ATOM     35  C   UNL     1      -1.417  -5.200 -11.443  0.00  0.00    +0.031 C 
ATOM     36  C   UNL     1      -2.776  -5.390 -10.736  0.00  0.00    +0.160 C 
ATOM     37  O   UNL     1      -2.614  -4.986  -9.371  0.00  0.00    -0.375 OA
ENDBRANCH  32  33
ENDBRANCH   4  32
TORSDOF 6
