REMARK  Name = ZINC39680058
REMARK  12 active torsions:
REMARK  status: ('A' for Active; 'I' for Inactive)
REMARK    1  A    between atoms: C_1  and  C_2
REMARK    2  A    between atoms: C_2  and  C_3
REMARK    3  A    between atoms: C_2  and  C_4
REMARK    4  A    between atoms: C_4  and  N_5
REMARK    5  A    between atoms: C_6  and  C_32
REMARK    6  A    between atoms: C_10  and  S_12
REMARK    7  A    between atoms: S_12  and  C_13
REMARK    8  A    between atoms: C_13  and  C_14
REMARK    9  A    between atoms: N_16  and  CA_17
REMARK   10  A    between atoms: CA_17  and  CB_19
REMARK   11  A    between atoms: CA_17  and  C_29
REMARK   12  A    between atoms: CB_19  and  CG_20
REMARK                            x       y       z     vdW  Elec       q    Type
REMARK                         _______ _______ _______ _____ _____    ______ ____
ROOT
ATOM      1  S   UNK A   0      -1.769   1.686   2.199  0.00  0.00    -0.150 S 
ENDROOT
BRANCH   1   6
ATOM      2  N   UNK A   0       0.117  -0.237   2.457  0.00  0.00    +0.411 N 
ATOM      3  C   UNK A   0       0.985  -0.640   3.595  0.00  0.00    +0.052 C 
ATOM      4  N   UNK A   0       0.478   0.203   4.710  0.00  0.00    -0.266 NA
ATOM      5  N   UNK A   0       0.160   1.488   4.082  0.00  0.00    -0.262 NA
ATOM      6  C   UNK A   0      -0.075   1.218   2.649  0.00  0.00    +0.077 C 
ATOM      7  H   UNK A   0       1.180   0.314   5.426  0.00  0.00    +0.139 HD
ATOM      8  H   UNK A   0       0.913   2.148   4.207  0.00  0.00    +0.140 HD
ATOM      9  H   UNK A   0      -0.768  -0.720   2.496  0.00  0.00    -0.075 HD
BRANCH   3  10
ATOM     10  C   UNK A   0       0.811  -2.104   3.907  0.00  0.00    -0.011 A 
ATOM     11  C   UNK A   0       0.315  -2.962   2.943  0.00  0.00    +0.006 A 
ATOM     12  C   UNK A   0       0.155  -4.305   3.229  0.00  0.00    +0.000 A 
ATOM     13  C   UNK A   0       0.492  -4.792   4.478  0.00  0.00    +0.003 A 
ATOM     14  C   UNK A   0       0.989  -3.937   5.443  0.00  0.00    +0.038 A 
ATOM     15  C   UNK A   0       1.154  -2.592   5.156  0.00  0.00    +0.126 A 
ATOM     16  F   UNK A   0       1.644  -1.755   6.097  0.00  0.00    -0.205 F 
ENDBRANCH   3  10
BRANCH   2  17
ATOM     17  C   UNK A   0       0.791  -0.503   1.178  0.00  0.00    -0.070 C 
BRANCH  17  19
ATOM     18  C   UNK A   0       0.007   1.397  -0.244  0.00  0.00    +0.005 C 
ATOM     19  C   UNK A   0      -0.131  -0.104   0.024  0.00  0.00    -0.034 C 
ATOM     20  C   UNK A   0       0.258  -0.884  -1.233  0.00  0.00    +0.005 C 
ENDBRANCH  17  19
ENDBRANCH   2  17
ENDBRANCH   1   6
BRANCH   1  21
ATOM     21  C   UNK A   0      -2.807   0.712   3.322  0.00  0.00    +0.164 C 
BRANCH  21  22
ATOM     22  C   UNK A   0      -4.259   1.010   3.050  0.00  0.00    +0.223 C 
ATOM     23  O   UNK A   0      -4.564   1.801   2.183  0.00  0.00    -0.275 OA
ATOM     24  N   TRP A   1      -5.220   0.396   3.770  0.00  0.00    -0.301 N 
ATOM     25  H   TRP A   1      -4.976  -0.237   4.463  0.00  0.00    +0.150 HD
BRANCH  24  26
ATOM     26  CA  TRP A   1      -6.631   0.686   3.506  0.00  0.00    +0.191 C 
BRANCH  26  27
ATOM     27  C   TRP A   1      -7.044   1.916   4.273  0.00  0.00    +0.376 C 
ATOM     28  O   TRP A   1      -6.234   2.496   4.975  0.00  0.00    -0.244 OA
ATOM     29  OXT TRP A   1      -8.188   2.330   4.191  0.00  0.00    -0.244 OA
ENDBRANCH  26  27
BRANCH  26  30
ATOM     30  CB  TRP A   1      -7.487  -0.502   3.948  0.00  0.00    +0.071 C 
BRANCH  30  31
ATOM     31  CG  TRP A   1      -7.160  -1.702   3.097  0.00  0.00    -0.020 A 
ATOM     32  CD2 TRP A   1      -6.070  -2.655   3.317  0.00  0.00    +0.003 A 
ATOM     33  CE3 TRP A   1      -5.066  -2.776   4.279  0.00  0.00    +0.010 A 
ATOM     34  CZ3 TRP A   1      -4.175  -3.810   4.204  0.00  0.00    +0.001 A 
ATOM     35  CH2 TRP A   1      -4.259  -4.740   3.178  0.00  0.00    +0.002 A 
ATOM     36  CZ2 TRP A   1      -5.242  -4.640   2.217  0.00  0.00    +0.026 A 
ATOM     37  CE2 TRP A   1      -6.160  -3.596   2.275  0.00  0.00    +0.047 A 
ATOM     38  NE1 TRP A   1      -7.229  -3.230   1.488  0.00  0.00    -0.360 N 
ATOM     39  CD1 TRP A   1      -7.816  -2.103   1.997  0.00  0.00    +0.087 A 
ATOM     40  HE1 TRP A   1      -7.525  -3.703   0.695  0.00  0.00    +0.165 HD
ENDBRANCH  30  31
ENDBRANCH  26  30
ENDBRANCH  24  26
ENDBRANCH  21  22
ENDBRANCH   1  21
TORSDOF 10
