REMARK  Name = ZINC13297902
REMARK  13 active torsions:
REMARK  status: ('A' for Active; 'I' for Inactive)
REMARK    1  A    between atoms: C_1  and  C_2
REMARK    2  A    between atoms: C_2  and  C_3
REMARK    3  A    between atoms: C_7  and  C_38
REMARK    4  A    between atoms: C_8  and  N_9
REMARK    5  A    between atoms: C_10  and  C_12
REMARK    6  A    between atoms: C_12  and  S_13
REMARK    7  A    between atoms: S_13  and  C_14
REMARK    8  A    between atoms: C_15  and  C_36
REMARK    9  A    between atoms: C_16  and  C_28
REMARK   10  A    between atoms: C_21  and  C_25
REMARK   11  A    between atoms: C_21  and  C_26
REMARK   12  A    between atoms: C_31  and  O_34
REMARK   13  A    between atoms: O_34  and  C_35
REMARK                            x       y       z     vdW  Elec       q    Type
REMARK                         _______ _______ _______ _____ _____    ______ ____
ROOT
ATOM      1  C   UNL     1      -5.879  -0.242   5.089  0.00  0.00    +0.112 C 
ATOM      2  C   UNL     1      -6.702  -0.477   6.177  0.00  0.00    +0.073 C 
ATOM      3  C   UNL     1      -8.169  -0.112   6.030  0.00  0.00    +0.097 C 
ATOM      4  C   UNL     1      -8.573   0.477   4.692  0.00  0.00    +0.029 C 
ATOM      5  C   UNL     1      -9.849   0.833   4.474  0.00  0.00    +0.162 C 
ATOM      6  C   UNL     1     -10.284   1.419   3.157  0.00  0.00    +0.086 C 
ATOM      7  C   UNL     1      -9.110   2.176   2.529  0.00  0.00    -0.023 C 
ATOM      8  C   UNL     1      -7.931   1.213   2.365  0.00  0.00    +0.062 C 
ATOM      9  C   UNL     1      -7.574   0.633   3.714  0.00  0.00    +0.050 C 
ATOM     10  N   UNL     1      -6.333   0.287   3.951  0.00  0.00    -0.244 NA
ATOM     11  C   UNL     1      -9.524   2.717   1.158  0.00  0.00    +0.011 C 
ATOM     12  C   UNL     1      -8.702   3.336   3.438  0.00  0.00    +0.011 C 
ATOM     13  O   UNL     1     -10.759   0.661   5.453  0.00  0.00    -0.292 OA
ENDROOT
BRANCH   3  14
ATOM     14  C   UNL     1      -8.989  -1.355   6.260  0.00  0.00    -0.034 A 
ATOM     15  C   UNL     1      -8.811  -2.459   5.446  0.00  0.00    +0.008 A 
ATOM     16  C   UNL     1      -9.562  -3.600   5.654  0.00  0.00    +0.046 A 
ATOM     17  C   UNL     1     -10.494  -3.638   6.681  0.00  0.00    +0.120 A 
ATOM     18  C   UNL     1     -10.670  -2.529   7.496  0.00  0.00    +0.046 A 
ATOM     19  C   UNL     1      -9.913  -1.392   7.287  0.00  0.00    +0.008 A 
BRANCH  17  20
ATOM     20  O   UNL     1     -11.234  -4.758   6.888  0.00  0.00    -0.495 OA
ATOM     21  C   UNL     1     -12.175  -4.726   7.963  0.00  0.00    +0.277 C 
ENDBRANCH  17  20
ENDBRANCH   3  14
BRANCH   2  22
ATOM     22  C   UNL     1      -6.192  -1.041   7.390  0.00  0.00    +0.098 C 
ATOM     23  N   UNL     1      -5.787  -1.488   8.353  0.00  0.00    -0.191 NA
ENDBRANCH   2  22
BRANCH   1  24
ATOM     24  S   UNL     1      -4.169  -0.649   5.214  0.00  0.00    -0.096 S 
BRANCH  24  25
ATOM     25  C   UNL     1      -3.487  -0.178   3.600  0.00  0.00    +0.172 C 
BRANCH  25  27
ATOM     26  N   UNL     1      -1.289  -0.209   2.466  0.00  0.00    -0.284 N 
ATOM     27  C   UNL     1      -2.011  -0.479   3.572  0.00  0.00    +0.227 C 
ATOM     28  O   UNL     1      -1.472  -0.963   4.544  0.00  0.00    -0.275 OA
ATOM     29  H   UNL     1      -1.705   0.239   1.712  0.00  0.00    +0.155 HD
BRANCH  26  35
ATOM     30  C   UNL     1       1.050   0.390   2.521  0.00  0.00    -0.026 A 
ATOM     31  C   UNL     1       2.380   0.024   2.465  0.00  0.00    +0.005 A 
ATOM     32  C   UNL     1       2.727  -1.302   2.286  0.00  0.00    +0.001 A 
ATOM     33  C   UNL     1       1.743  -2.267   2.163  0.00  0.00    +0.005 A 
ATOM     34  C   UNL     1       0.411  -1.907   2.219  0.00  0.00    -0.029 A 
ATOM     35  C   UNL     1       0.060  -0.576   2.403  0.00  0.00    +0.040 A 
ATOM     36  C   UNL     1      -0.660  -2.959   2.085  0.00  0.00    +0.045 C 
BRANCH  30  38
ATOM     37  C   UNL     1       0.438   2.106   4.203  0.00  0.00    +0.009 C 
ATOM     38  C   UNL     1       0.673   1.836   2.716  0.00  0.00    +0.033 C 
ENDBRANCH  30  38
ENDBRANCH  26  35
ENDBRANCH  25  27
ENDBRANCH  24  25
ENDBRANCH   1  24
TORSDOF 8
