REMARK  Name = ZINC11696165
REMARK  7 active torsions:
REMARK  status: ('A' for Active; 'I' for Inactive)
REMARK    1  A    between atoms: C_1  and  C_2
REMARK    2  A    between atoms: C_4  and  C_27
REMARK    3  A    between atoms: C_6  and  C_19
REMARK    4  A    between atoms: N_9  and  C_11
REMARK    5  A    between atoms: C_22  and  O_25
REMARK    6  A    between atoms: O_25  and  C_26
REMARK    7  A    between atoms: N_29  and  C_30
REMARK                            x       y       z     vdW  Elec       q    Type
REMARK                         _______ _______ _______ _____ _____    ______ ____
ROOT
ATOM      1  C   UNL     1       4.848  -0.659  -0.268  0.00  0.00    +0.068 C 
ATOM      2  C   UNL     1       3.368  -0.934  -0.218  0.00  0.00    +0.070 A 
ATOM      3  C   UNL     1       2.366   0.007   0.098  0.00  0.00    +0.054 A 
ATOM      4  C   UNL     1       2.387   1.380   0.440  0.00  0.00    +0.051 A 
ATOM      5  C   UNL     1       1.172   2.006   0.695  0.00  0.00    +0.042 A 
ATOM      6  C   UNL     1      -0.011   1.266   0.604  0.00  0.00    +0.074 A 
ATOM      7  N   UNL     1       0.001  -0.017   0.282  0.00  0.00    -0.228 NA
ATOM      8  C   UNL     1       1.128  -0.664   0.029  0.00  0.00    +0.160 A 
ATOM      9  N   UNL     1       1.411  -1.960  -0.318  0.00  0.00    -0.241 N 
ATOM     10  N   UNL     1       2.799  -2.081  -0.460  0.00  0.00    -0.174 NA
ENDROOT
BRANCH   9  11
ATOM     11  C   UNL     1       0.431  -3.033  -0.507  0.00  0.00    +0.132 C 
ATOM     12  C   UNL     1       0.737  -4.191   0.458  0.00  0.00    +0.051 C 
ATOM     13  C   UNL     1      -0.078  -5.443   0.053  0.00  0.00    +0.168 C 
ATOM     14  S   UNL     1      -0.294  -5.216  -1.759  0.00  0.00    -0.029 S 
ATOM     15  O   UNL     1      -1.680  -5.082  -2.046  0.00  0.00    -0.174 OA
ATOM     16  O   UNL     1       0.469  -6.200  -2.443  0.00  0.00    -0.174 OA
ATOM     17  C   UNL     1       0.522  -3.577  -1.961  0.00  0.00    +0.192 C 
ENDBRANCH   9  11
BRANCH   6  18
ATOM     18  C   UNL     1      -1.307   1.935   0.870  0.00  0.00    +0.001 A 
ATOM     19  C   UNL     1      -1.338   3.286   1.216  0.00  0.00    +0.013 A 
ATOM     20  C   UNL     1      -2.545   3.906   1.458  0.00  0.00    +0.046 A 
ATOM     21  C   UNL     1      -3.728   3.186   1.366  0.00  0.00    +0.120 A 
ATOM     22  C   UNL     1      -3.701   1.840   1.026  0.00  0.00    +0.046 A 
ATOM     23  C   UNL     1      -2.497   1.214   0.779  0.00  0.00    +0.013 A 
BRANCH  21  24
ATOM     24  O   UNL     1      -4.916   3.799   1.609  0.00  0.00    -0.495 OA
ATOM     25  C   UNL     1      -4.872   5.185   1.954  0.00  0.00    +0.277 C 
ENDBRANCH  21  24
ENDBRANCH   6  18
BRANCH   4  26
ATOM     26  C   UNL     1       3.661   2.125   0.525  0.00  0.00    +0.245 C 
ATOM     27  O   UNL     1       4.649   1.589   0.988  0.00  0.00    -0.270 OA
ATOM     28  N   UNL     1       3.728   3.398   0.088  0.00  0.00    -0.308 N 
ATOM     29  H   UNL     1       2.939   3.826  -0.282  0.00  0.00    +0.149 HD
BRANCH  28  30
ATOM     30  C   UNL     1       4.990   4.136   0.172  0.00  0.00    +0.073 C 
ATOM     31  C   UNL     1       5.146   4.699   1.600  0.00  0.00    +0.022 C 
ATOM     32  C   UNL     1       6.602   4.994   1.841  0.00  0.00    +0.002 C 
ATOM     33  C   UNL     1       6.965   6.459   1.532  0.00  0.00    +0.000 C 
ATOM     34  C   UNL     1       6.295   6.983   0.247  0.00  0.00    +0.000 C 
ATOM     35  C   UNL     1       6.318   5.971  -0.867  0.00  0.00    +0.002 C 
ATOM     36  C   UNL     1       4.992   5.183  -0.840  0.00  0.00    +0.022 C 
ENDBRANCH  28  30
ENDBRANCH   4  26
TORSDOF 5
