REMARK  Name = ZINC06409793
REMARK  12 active torsions:
REMARK  status: ('A' for Active; 'I' for Inactive)
REMARK    1  A    between atoms: C_1  and  C_2
REMARK    2  A    between atoms: C_7  and  C_14
REMARK    3  A    between atoms: C_14  and  C_16
REMARK    4  A    between atoms: C_14  and  N_69
REMARK    5  A    between atoms: N_20  and  C_21
REMARK    6  A    between atoms: C_21  and  C_22
REMARK    7  A    between atoms: C_21  and  C_23
REMARK    8  A    between atoms: C_21  and  C_24
REMARK    9  A    between atoms: C_25  and  C_26
REMARK   10  A    between atoms: C_25  and  N_69
REMARK   11  A    between atoms: C_32  and  C_33
REMARK   12  A    between atoms: C_32  and  N_69
REMARK                            x       y       z     vdW  Elec       q    Type
REMARK                         _______ _______ _______ _____ _____    ______ ____
ROOT
ATOM      1  C   UNL     1       2.825   0.041   0.761  0.00  0.00    +0.040 C 
ENDROOT
BRANCH   1   8
ATOM      2  C   UNL     1      -4.396   2.573  -1.489  0.00  0.00    +0.044 C 
ATOM      3  C   UNL     1      -2.977   2.106  -1.291  0.00  0.00    -0.048 A 
ATOM      4  C   UNL     1      -2.135   1.983  -2.388  0.00  0.00    +0.004 A 
ATOM      5  C   UNL     1      -0.845   1.562  -2.230  0.00  0.00    +0.010 A 
ATOM      6  C   UNL     1      -0.366   1.258  -0.951  0.00  0.00    -0.001 A 
ATOM      7  C   UNL     1       1.008   0.798  -0.747  0.00  0.00    +0.017 A 
ATOM      8  C   UNL     1       1.415   0.512   0.515  0.00  0.00    +0.011 A 
ATOM      9  C   UNL     1       0.522   0.653   1.599  0.00  0.00    +0.251 A 
ATOM     10  O   UNL     1       0.908   0.391   2.725  0.00  0.00    -0.268 OA
ATOM     11  N   UNL     1      -0.744   1.069   1.420  0.00  0.00    -0.322 N 
ATOM     12  H   UNL     1      -1.332   1.154   2.187  0.00  0.00    +0.169 HD
ATOM     13  C   UNL     1      -1.219   1.376   0.163  0.00  0.00    +0.049 A 
ATOM     14  C   UNL     1      -2.529   1.806  -0.023  0.00  0.00    +0.029 A 
ENDBRANCH   1   8
BRANCH   1  15
ATOM     15  C   UNL     1       3.556  -0.062  -0.553  0.00  0.00    +0.143 A 
ATOM     16  N   UNL     1       3.997   0.933  -1.284  0.00  0.00    -0.115 NA
ATOM     17  N   UNL     1       4.566   0.438  -2.329  0.00  0.00    -0.023 NA
ATOM     18  N   UNL     1       4.499  -0.847  -2.283  0.00  0.00    -0.043 NA
ATOM     19  N   UNL     1       3.889  -1.194  -1.201  0.00  0.00    -0.225 N 
BRANCH  19  20
ATOM     20  C   UNL     1       3.607  -2.563  -0.761  0.00  0.00    +0.059 C 
ATOM     21  C   UNL     1       2.106  -2.720  -0.513  0.00  0.00    +0.036 C 
ATOM     22  C   UNL     1       4.051  -3.548  -1.844  0.00  0.00    +0.036 C 
ATOM     23  C   UNL     1       4.371  -2.850   0.533  0.00  0.00    +0.036 C 
ENDBRANCH  19  20
ENDBRANCH   1  15
BRANCH   1  24
ATOM     24  N   UNL     1       3.503   1.002   1.657  0.00  0.00    +0.395 N 
ATOM     25  H   UNL     1       2.996   1.041   2.549  0.00  0.00    -0.079 HD
BRANCH  24  26
ATOM     26  C   UNL     1       3.503   2.348   1.046  0.00  0.00    -0.041 C 
BRANCH  26  27
ATOM     27  C   UNL     1       2.257   3.074   1.485  0.00  0.00    -0.064 A 
ATOM     28  C   UNL     1       1.234   3.298   0.583  0.00  0.00    +0.002 A 
ATOM     29  C   UNL     1       0.089   3.959   0.987  0.00  0.00    +0.000 A 
ATOM     30  C   UNL     1      -0.028   4.405   2.290  0.00  0.00    +0.000 A 
ATOM     31  C   UNL     1       0.998   4.187   3.190  0.00  0.00    +0.000 A 
ATOM     32  C   UNL     1       2.140   3.521   2.788  0.00  0.00    +0.002 A 
ENDBRANCH  26  27
ENDBRANCH  24  26
BRANCH  24  33
ATOM     33  C   UNL     1       4.891   0.563   1.912  0.00  0.00    -0.041 C 
BRANCH  33  34
ATOM     34  C   UNL     1       5.436   1.338   3.083  0.00  0.00    -0.064 A 
ATOM     35  C   UNL     1       6.118   2.522   2.872  0.00  0.00    +0.004 A 
ATOM     36  C   UNL     1       6.615   3.235   3.946  0.00  0.00    +0.038 A 
ATOM     37  C   UNL     1       6.438   2.759   5.234  0.00  0.00    +0.123 A 
ATOM     38  C   UNL     1       5.760   1.570   5.444  0.00  0.00    +0.038 A 
ATOM     39  C   UNL     1       5.259   0.861   4.369  0.00  0.00    +0.004 A 
ATOM     40  F   UNL     1       6.927   3.453   6.285  0.00  0.00    -0.205 F 
ENDBRANCH  33  34
ENDBRANCH  24  33
ENDBRANCH   1  24
TORSDOF 8
