REMARK  Name = ZINC43526585
REMARK  9 active torsions:
REMARK  status: ('A' for Active; 'I' for Inactive)
REMARK    1  A    between atoms: C_1  and  N_2
REMARK    2  A    between atoms: C_3  and  C_17
REMARK    3  A    between atoms: C_5  and  C_7
REMARK    4  A    between atoms: C_26  and  C_28
REMARK    5  A    between atoms: C_28  and  N_29
REMARK    6  A    between atoms: C_30  and  C_32
REMARK    7  A    between atoms: C_35  and  N_38
REMARK    8  A    between atoms: N_38  and  C_39
REMARK    9  A    between atoms: N_38  and  C_40
REMARK                            x       y       z     vdW  Elec       q    Type
REMARK                         _______ _______ _______ _____ _____    ______ ____
ROOT
ATOM      1  C   UNL     1      -0.003  -0.297  -2.526  0.00  0.00    +0.024 C 
ATOM      2  C   UNL     1       1.432  -0.117  -3.027  0.00  0.00    -0.068 C 
ATOM      3  N   UNL     1       1.680  -1.004  -4.166  0.00  0.00    +0.383 N 
ATOM      4  C   UNL     1       1.526  -2.406  -3.772  0.00  0.00    -0.078 C 
ATOM      5  C   UNL     1       0.095  -2.662  -3.295  0.00  0.00    -0.015 C 
ATOM      6  C   UNL     1      -0.704  -1.352  -3.392  0.00  0.00    -0.007 C 
ATOM      7  C   UNL     1      -0.676  -0.877  -4.851  0.00  0.00    -0.010 C 
ATOM      8  C   UNL     1       0.783  -0.679  -5.278  0.00  0.00    -0.051 C 
ATOM      9  H   UNL     1       2.632  -0.869  -4.474  0.00  0.00    -0.081 HD
ENDROOT
BRANCH   1  12
ATOM     10  C   UNL     1      -2.055   0.434  -0.326  0.00  0.00    +0.172 C 
ATOM     11  N   UNL     1      -0.885  -0.428  -0.140  0.00  0.00    -0.271 N 
ATOM     12  C   UNL     1       0.017  -0.755  -1.090  0.00  0.00    +0.041 A 
ATOM     13  C   UNL     1       0.940  -1.565  -0.528  0.00  0.00    +0.053 A 
ATOM     14  C   UNL     1       0.591  -1.744   0.825  0.00  0.00    +0.093 A 
ATOM     15  N   UNL     1      -0.505  -1.052   1.055  0.00  0.00    -0.171 NA
BRANCH  14  16
ATOM     16  C   UNL     1       1.332  -2.561   1.817  0.00  0.00    +0.003 A 
ATOM     17  C   UNL     1       2.499  -3.237   1.429  0.00  0.00    +0.011 A 
ATOM     18  C   UNL     1       3.196  -3.992   2.318  0.00  0.00    +0.009 A 
ATOM     19  C   UNL     1       2.749  -4.103   3.647  0.00  0.00    -0.018 A 
ATOM     20  C   UNL     1       3.452  -4.877   4.586  0.00  0.00    +0.008 A 
ATOM     21  C   UNL     1       2.995  -4.965   5.865  0.00  0.00    +0.001 A 
ATOM     22  C   UNL     1       1.837  -4.298   6.261  0.00  0.00    +0.001 A 
ATOM     23  C   UNL     1       1.130  -3.540   5.380  0.00  0.00    +0.008 A 
ATOM     24  C   UNL     1       1.571  -3.425   4.050  0.00  0.00    -0.017 A 
ATOM     25  C   UNL     1       0.870  -2.646   3.117  0.00  0.00    +0.018 A 
ENDBRANCH  14  16
ENDBRANCH   1  12
BRANCH   8  26
ATOM     26  C   UNL     1       1.094  -1.593  -6.465  0.00  0.00    +0.089 C 
BRANCH  26  27
ATOM     27  N   UNL     1       2.514  -1.482  -6.807  0.00  0.00    -0.313 N 
ATOM     28  C   UNL     1       3.019  -2.202  -7.829  0.00  0.00    +0.244 C 
ATOM     29  O   UNL     1       2.296  -2.943  -8.466  0.00  0.00    -0.270 OA
ATOM     30  H   UNL     1       3.091  -0.891  -6.299  0.00  0.00    +0.149 HD
BRANCH  28  31
ATOM     31  C   UNL     1       4.449  -2.091  -8.174  0.00  0.00    +0.037 A 
ATOM     32  C   UNL     1       5.283  -1.243  -7.438  0.00  0.00    +0.015 A 
ATOM     33  C   UNL     1       6.617  -1.142  -7.762  0.00  0.00    +0.024 A 
ATOM     34  C   UNL     1       7.135  -1.882  -8.822  0.00  0.00    +0.029 A 
ATOM     35  C   UNL     1       6.307  -2.726  -9.556  0.00  0.00    +0.024 A 
ATOM     36  C   UNL     1       4.974  -2.836  -9.233  0.00  0.00    +0.015 A 
BRANCH  34  37
ATOM     37  N   UNL     1       8.483  -1.777  -9.147  0.00  0.00    -0.336 N 
ATOM     38  C   UNL     1       9.381  -0.985  -8.302  0.00  0.00    +0.129 C 
ATOM     39  C   UNL     1       9.005  -2.458 -10.334  0.00  0.00    +0.129 C 
ENDBRANCH  34  37
ENDBRANCH  28  31
ENDBRANCH  26  27
ENDBRANCH   8  26
TORSDOF 6
