REMARK  Name = ZINC40530010
REMARK  16 active torsions:
REMARK  status: ('A' for Active; 'I' for Inactive)
REMARK    1  A    between atoms: C_1  and  C_2
REMARK    2  A    between atoms: C_2  and  C_3
REMARK    3  A    between atoms: C_3  and  C_4
REMARK    4  A    between atoms: C_4  and  C_5
REMARK    5  A    between atoms: C_5  and  O_6
REMARK    6  A    between atoms: O_6  and  C_7
REMARK    7  A    between atoms: C_11  and  C_13
REMARK    8  A    between atoms: C_18  and  O_27
REMARK    9  A    between atoms: C_22  and  N_26
REMARK   10  A    between atoms: C_23  and  C_24
REMARK   11  A    between atoms: O_27  and  C_28
REMARK   12  A    between atoms: C_28  and  C_30
REMARK   13  A    between atoms: C_33  and  O_36
REMARK   14  A    between atoms: O_36  and  C_37
REMARK   15  A    between atoms: C_37  and  C_38
REMARK   16  A    between atoms: C_37  and  C_39
REMARK                            x       y       z     vdW  Elec       q    Type
REMARK                         _______ _______ _______ _____ _____    ______ ____
ROOT
ATOM      1  C   UNL     1       2.781  -8.160  -5.055  0.00  0.00    +0.098 C 
ATOM      2  C   UNL     1       4.221  -8.599  -5.058  0.00  0.00    +0.008 A 
ATOM      3  C   UNL     1       4.956  -8.533  -3.887  0.00  0.00    +0.012 A 
ATOM      4  C   UNL     1       6.277  -8.932  -3.872  0.00  0.00    +0.047 A 
ATOM      5  C   UNL     1       6.875  -9.401  -5.034  0.00  0.00    +0.135 A 
ATOM      6  C   UNL     1       6.142  -9.468  -6.207  0.00  0.00    +0.093 A 
ATOM      7  C   UNL     1       4.813  -9.066  -6.222  0.00  0.00    +0.138 A 
ATOM      8  O   UNL     1       4.109  -9.138  -7.379  0.00  0.00    -0.441 OA
ATOM      9  C   UNL     1       2.766  -9.134  -7.348  0.00  0.00    +0.199 C 
ATOM     10  C   UNL     1       2.079  -8.683  -6.276  0.00  0.00    +0.098 C 
ENDROOT
BRANCH   1  15
ATOM     11  C   UNL     1       2.041  -4.608  -4.001  0.00  0.00    +0.121 A 
ATOM     12  C   UNL     1       2.606  -3.889  -5.045  0.00  0.00    +0.045 A 
ATOM     13  C   UNL     1       3.224  -4.554  -6.085  0.00  0.00    +0.004 A 
ATOM     14  C   UNL     1       3.281  -5.936  -6.087  0.00  0.00    +0.005 A 
ATOM     15  C   UNL     1       2.718  -6.654  -5.049  0.00  0.00    -0.031 A 
ATOM     16  C   UNL     1       2.103  -5.993  -4.003  0.00  0.00    +0.050 A 
BRANCH  11  17
ATOM     17  O   UNL     1       1.432  -3.955  -2.976  0.00  0.00    -0.492 OA
BRANCH  17  18
ATOM     18  C   UNL     1       1.405  -2.528  -3.040  0.00  0.00    +0.229 C 
BRANCH  18  19
ATOM     19  C   UNL     1       0.684  -1.975  -1.809  0.00  0.00    +0.041 C 
BRANCH  19  20
ATOM     20  C   UNL     1       0.655  -0.447  -1.878  0.00  0.00    +0.003 C 
BRANCH  20  22
ATOM     21  C   UNL     1      -0.095   1.633  -0.716  0.00  0.00    +0.004 C 
ATOM     22  C   UNL     1      -0.066   0.105  -0.647  0.00  0.00    -0.003 C 
ENDBRANCH  20  22
ENDBRANCH  19  20
ENDBRANCH  18  19
ENDBRANCH  17  18
ENDBRANCH  11  17
ENDBRANCH   1  15
BRANCH   9  23
ATOM     23  N   UNL     1       2.074  -9.601  -8.437  0.00  0.00    -0.328 N 
ATOM     24  H   UNL     1       2.555  -9.928  -9.214  0.00  0.00    +0.145 HD
ATOM     25  H   UNL     1       1.104  -9.605  -8.430  0.00  0.00    +0.145 HD
ENDBRANCH   9  23
BRANCH  10  26
ATOM     26  C   UNL     1       0.647  -8.705  -6.307  0.00  0.00    +0.101 C 
ATOM     27  N   UNL     1      -0.488  -8.722  -6.332  0.00  0.00    -0.191 NA
ENDBRANCH  10  26
BRANCH   5  28
ATOM     28  O   UNL     1       8.176  -9.793  -5.020  0.00  0.00    -0.422 OA
BRANCH  28  29
ATOM     29  C   UNL     1       8.502 -10.878  -4.289  0.00  0.00    +0.344 C 
ATOM     30  O   UNL     1       7.631 -11.528  -3.745  0.00  0.00    -0.245 OA
BRANCH  29  31
ATOM     31  C   UNL     1       9.915 -11.276  -4.151  0.00  0.00    +0.060 A 
ATOM     32  C   UNL     1      10.918 -10.526  -4.771  0.00  0.00    +0.018 A 
ATOM     33  C   UNL     1      12.236 -10.901  -4.639  0.00  0.00    +0.046 A 
ATOM     34  C   UNL     1      12.570 -12.024  -3.889  0.00  0.00    +0.121 A 
ATOM     35  C   UNL     1      11.575 -12.772  -3.271  0.00  0.00    +0.046 A 
ATOM     36  C   UNL     1      10.255 -12.401  -3.393  0.00  0.00    +0.018 A 
BRANCH  34  37
ATOM     37  O   UNL     1      13.870 -12.390  -3.761  0.00  0.00    -0.489 OA
BRANCH  37  38
ATOM     38  C   UNL     1      14.850 -11.504  -4.306  0.00  0.00    +0.167 C 
ATOM     39  C   UNL     1      16.111 -11.544  -3.440  0.00  0.00    +0.051 C 
ATOM     40  C   UNL     1      15.196 -11.939  -5.731  0.00  0.00    +0.051 C 
ENDBRANCH  37  38
ENDBRANCH  34  37
ENDBRANCH  29  31
ENDBRANCH  28  29
ENDBRANCH   5  28
TORSDOF 13
