REMARK  Name = ZINC33171603
REMARK  6 active torsions:
REMARK  status: ('A' for Active; 'I' for Inactive)
REMARK    1  A    between atoms: C_1  and  C_2
REMARK    2  A    between atoms: N_6  and  C_13
REMARK    3  A    between atoms: N_10  and  C_12
REMARK    4  A    between atoms: C_13  and  C_15
REMARK    5  A    between atoms: C_13  and  C_16
REMARK    6  A    between atoms: N_18  and  C_19
REMARK                            x       y       z     vdW  Elec       q    Type
REMARK                         _______ _______ _______ _____ _____    ______ ____
ROOT
ATOM      1  C   UNL     1      -2.466   1.361   2.934  0.00  0.00    +0.173 C 
ATOM      2  C   UNL     1      -1.480   1.420   4.103  0.00  0.00    +0.041 C 
ENDROOT
BRANCH   1   8
ATOM      3  C   UNL     1      -7.040  -3.370   4.516  0.00  0.00    +0.068 C 
ATOM      4  C   UNL     1      -6.851  -1.917   4.161  0.00  0.00    +0.068 A 
ATOM      5  C   UNL     1      -5.622  -1.294   3.885  0.00  0.00    +0.029 A 
ATOM      6  C   UNL     1      -4.231  -1.749   3.840  0.00  0.00    +0.030 A 
ATOM      7  C   UNL     1      -3.266  -0.866   3.527  0.00  0.00    +0.091 A 
ATOM      8  N   UNL     1      -3.559   0.442   3.263  0.00  0.00    -0.302 N 
ATOM      9  C   UNL     1      -4.819   0.913   3.291  0.00  0.00    +0.278 A 
ATOM     10  O   UNL     1      -5.035   2.088   3.044  0.00  0.00    -0.265 OA
ATOM     11  C   UNL     1      -5.893   0.052   3.605  0.00  0.00    +0.133 A 
ATOM     12  N   UNL     1      -7.246   0.212   3.714  0.00  0.00    -0.261 N 
ATOM     13  N   UNL     1      -7.802  -1.028   4.059  0.00  0.00    -0.175 NA
ATOM     14  C   UNL     1      -7.986   1.459   3.507  0.00  0.00    +0.173 C 
ENDBRANCH   1   8
BRANCH   1  15
ATOM     15  C   UNL     1      -1.753   0.871   1.700  0.00  0.00    +0.236 C 
ATOM     16  O   UNL     1      -2.121  -0.145   1.150  0.00  0.00    -0.274 OA
ATOM     17  N   UNL     1      -0.706   1.562   1.208  0.00  0.00    -0.311 N 
ATOM     18  H   UNL     1      -0.372   2.484   1.706  0.00  0.00    +0.149 HD
BRANCH  17  19
ATOM     19  C   UNL     1      -0.013   1.086   0.008  0.00  0.00    +0.073 C 
ATOM     20  C   UNL     1      -0.719   1.589  -1.222  0.00  0.00    +0.022 C 
ATOM     21  C   UNL     1      -0.658   0.584  -2.389  0.00  0.00    +0.002 C 
ATOM     22  C   UNL     1       0.725  -0.078  -2.535  0.00  0.00    +0.000 C 
ATOM     23  C   UNL     1       1.854   0.899  -2.349  0.00  0.00    +0.000 C 
ATOM     24  C   UNL     1       2.305   0.852  -0.875  0.00  0.00    +0.002 C 
ATOM     25  C   UNL     1       1.433   1.624  -0.003  0.00  0.00    +0.022 C 
ENDBRANCH  17  19
ENDBRANCH   1  15
TORSDOF 3
