REMARK  Name = ZINC13563848
REMARK  6 active torsions:
REMARK  status: ('A' for Active; 'I' for Inactive)
REMARK    1  A    between atoms: C_1  and  C_2
REMARK    2  A    between atoms: C_2  and  C_3
REMARK    3  A    between atoms: C_15  and  C_18
REMARK    4  A    between atoms: C_19  and  C_20
REMARK    5  A    between atoms: C_19  and  N_52
REMARK    6  A    between atoms: C_20  and  C_21
REMARK                            x       y       z     vdW  Elec       q    Type
REMARK                         _______ _______ _______ _____ _____    ______ ____
ROOT
ATOM      1  C   UNL     1      -9.054   3.844   3.178  0.00  0.00    -0.022 A 
ATOM      2  C   UNL     1      -9.722   3.006   4.019  0.00  0.00    +0.006 A 
ATOM      3  C   UNL     1      -9.202   1.758   4.352  0.00  0.00    +0.001 A 
ATOM      4  C   UNL     1      -8.009   1.340   3.843  0.00  0.00    +0.010 A 
ATOM      5  C   UNL     1      -7.298   2.175   2.969  0.00  0.00    +0.001 A 
ATOM      6  C   UNL     1      -7.821   3.447   2.632  0.00  0.00    +0.078 A 
ATOM      7  N   UNL     1      -7.146   4.254   1.806  0.00  0.00    -0.212 NA
ATOM      8  C   UNL     1      -5.990   3.887   1.287  0.00  0.00    +0.217 A 
ATOM      9  C   UNL     1      -5.437   2.636   1.568  0.00  0.00    -0.002 A 
ATOM     10  C   UNL     1      -6.066   1.773   2.410  0.00  0.00    +0.017 A 
ATOM     11  C   UNL     1      -4.125   2.239   0.920  0.00  0.00    -0.037 C 
ATOM     12  C   UNL     1      -2.936   4.361   0.798  0.00  0.00    -0.033 C 
ATOM     13  C   UNL     1      -4.104   5.288   1.054  0.00  0.00    +0.156 C 
ATOM     14  O   UNL     1      -5.310   4.757   0.493  0.00  0.00    -0.475 OA
ATOM     15  C   UNL     1      -3.812   6.650   0.422  0.00  0.00    +0.050 C 
ATOM     16  N   UNL     1      -3.054   3.074   1.516  0.00  0.00    +0.385 N 
ATOM     17  H   UNL     1      -3.290   3.263   2.497  0.00  0.00    -0.081 HD
ENDROOT
BRANCH   1  19
ATOM     18  C   UNL     1     -10.416   5.091   1.523  0.00  0.00    +0.009 C 
ATOM     19  C   UNL     1      -9.635   5.191   2.835  0.00  0.00    +0.034 C 
ENDBRANCH   1  19
BRANCH  16  20
ATOM     20  C   UNL     1      -1.770   2.355   1.466  0.00  0.00    -0.074 C 
BRANCH  20  21
ATOM     21  C   UNL     1      -1.332   2.114   0.020  0.00  0.00    +0.016 C 
BRANCH  21  22
ATOM     22  C   UNL     1      -0.017   1.378   0.010  0.00  0.00    -0.049 A 
ATOM     23  C   UNL     1       1.171   2.086   0.002  0.00  0.00    +0.003 A 
ATOM     24  C   UNL     1       2.377   1.411  -0.015  0.00  0.00    +0.000 A 
ATOM     25  C   UNL     1       2.396   0.029  -0.021  0.00  0.00    +0.000 A 
ATOM     26  C   UNL     1       1.208  -0.679  -0.013  0.00  0.00    +0.000 A 
ATOM     27  C   UNL     1       0.002  -0.004   0.002  0.00  0.00    +0.003 A 
ENDBRANCH  21  22
ENDBRANCH  20  21
ENDBRANCH  16  20
TORSDOF 4
