REMARK  Name = ZINC38597827
REMARK  9 active torsions:
REMARK  status: ('A' for Active; 'I' for Inactive)
REMARK    1  A    between atoms: C_1  and  C_2
REMARK    2  A    between atoms: C_5  and  N_33
REMARK    3  A    between atoms: C_7  and  S_8
REMARK    4  A    between atoms: S_8  and  N_11
REMARK    5  A    between atoms: N_11  and  C_12
REMARK    6  A    between atoms: C_12  and  C_13
REMARK    7  A    between atoms: C_13  and  C_15
REMARK    8  A    between atoms: C_13  and  N_20
REMARK    9  A    between atoms: N_23  and  C_26
REMARK                            x       y       z     vdW  Elec       q    Type
REMARK                         _______ _______ _______ _____ _____    ______ ____
ROOT
ATOM      1  C   UNL     1       2.166   3.301   2.868  0.00  0.00    +0.015 C 
ENDROOT
BRANCH   1   2
ATOM      2  N   UNL     1       2.018   3.332   4.329  0.00  0.00    +0.389 N 
ATOM      3  C   UNL     1       0.639   3.703   4.672  0.00  0.00    -0.059 C 
ATOM      4  C   UNL     1       0.453   3.623   6.191  0.00  0.00    +0.086 C 
ATOM      5  N   UNL     1       1.483   4.456   6.831  0.00  0.00    -0.333 N 
ATOM      6  C   UNL     1       2.883   4.261   6.423  0.00  0.00    +0.086 C 
ATOM      7  C   UNL     1       2.955   4.311   4.894  0.00  0.00    -0.059 C 
ATOM      8  H   UNL     1       2.221   2.418   4.705  0.00  0.00    -0.081 HD
BRANCH   5   9
ATOM      9  C   UNL     1       1.142   5.404   7.800  0.00  0.00    +0.030 A 
ATOM     10  C   UNL     1      -0.167   5.492   8.256  0.00  0.00    +0.026 A 
ATOM     11  C   UNL     1      -0.502   6.429   9.213  0.00  0.00    +0.040 A 
ATOM     12  C   UNL     1       0.466   7.280   9.720  0.00  0.00    +0.124 A 
ATOM     13  C   UNL     1       1.771   7.194   9.267  0.00  0.00    +0.040 A 
ATOM     14  C   UNL     1       2.112   6.255   8.313  0.00  0.00    +0.026 A 
ATOM     15  F   UNL     1       0.135   8.197  10.656  0.00  0.00    -0.205 F 
ENDBRANCH   5   9
ENDBRANCH   1   2
BRANCH   1  16
ATOM     16  C   UNL     1       1.970   4.689   2.314  0.00  0.00    +0.093 A 
ATOM     17  C   UNL     1       2.679   5.245   1.315  0.00  0.00    +0.043 A 
ATOM     18  C   UNL     1       2.164   6.547   1.123  0.00  0.00    +0.041 A 
ATOM     19  C   UNL     1       1.171   6.710   2.015  0.00  0.00    +0.195 A 
ATOM     20  O   UNL     1       1.054   5.579   2.731  0.00  0.00    -0.469 OA
ENDBRANCH   1  16
BRANCH   1  21
ATOM     21  C   UNL     1       1.118   2.361   2.269  0.00  0.00    +0.098 C 
BRANCH  21  22
ATOM     22  N   UNL     1       1.227   1.043   2.900  0.00  0.00    -0.191 NA
ATOM     23  H   UNL     1       2.014   0.818   3.420  0.00  0.00    +0.148 HD
BRANCH  22  24
ATOM     24  S   UNL     1       0.005  -0.061   2.726  0.00  0.00    +0.059 S 
ATOM     25  O   UNL     1      -1.199   0.607   3.075  0.00  0.00    -0.153 OA
ATOM     26  O   UNL     1       0.435  -1.248   3.379  0.00  0.00    -0.153 OA
BRANCH  24  33
ATOM     27  C   UNL     1       2.202  -1.395   1.130  0.00  0.00    +0.046 C 
ATOM     28  C   UNL     1       0.948  -1.056   0.365  0.00  0.00    -0.024 A 
ATOM     29  C   UNL     1       0.856  -1.362  -0.980  0.00  0.00    +0.007 A 
ATOM     30  C   UNL     1      -0.294  -1.050  -1.681  0.00  0.00    +0.033 A 
ATOM     31  C   UNL     1      -1.351  -0.434  -1.038  0.00  0.00    +0.128 A 
ATOM     32  C   UNL     1      -1.259  -0.129   0.307  0.00  0.00    +0.061 A 
ATOM     33  C   UNL     1      -0.110  -0.444   1.010  0.00  0.00    +0.110 A 
BRANCH  31  34
ATOM     34  N   UNL     1      -2.582  -0.100  -1.790  0.00  0.00    +0.056 N 
ATOM     35  O   UNL     1      -2.662  -0.366  -2.966  0.00  0.00    -0.126 OA
ATOM     36  O   UNL     1      -3.506   0.439  -1.227  0.00  0.00    -0.126 OA
ENDBRANCH  31  34
ENDBRANCH  24  33
ENDBRANCH  22  24
ENDBRANCH  21  22
ENDBRANCH   1  21
TORSDOF 8
