REMARK  Name = ZINC39656145
REMARK  6 active torsions:
REMARK  status: ('A' for Active; 'I' for Inactive)
REMARK    1  A    between atoms: C_1  and  C_2
REMARK    2  A    between atoms: C_8  and  C_11
REMARK    3  A    between atoms: C_11  and  C_12
REMARK    4  A    between atoms: C_12  and  N_13
REMARK    5  A    between atoms: C_14  and  C_16
REMARK    6  A    between atoms: C_27  and  C_29
REMARK                            x       y       z     vdW  Elec       q    Type
REMARK                         _______ _______ _______ _____ _____    ______ ____
ROOT
ATOM      1  C   UNL     1       4.623  -0.116  -7.496  0.00  0.00    +0.100 C 
ATOM      2  C   UNL     1       5.647   0.305  -6.418  0.00  0.00    +0.121 C 
ATOM      3  N   UNL     1       6.099  -0.970  -5.813  0.00  0.00    -0.300 N 
ATOM      4  C   UNL     1       6.207  -1.904  -6.958  0.00  0.00    +0.115 C 
ATOM      5  C   UNL     1       4.996  -1.566  -7.850  0.00  0.00    -0.004 C 
ATOM      6  C   UNL     1       3.833  -2.502  -7.537  0.00  0.00    -0.010 C 
ATOM      7  C   UNL     1       4.207  -3.928  -7.950  0.00  0.00    -0.082 C 
ATOM      8  N   UNL     1       4.514  -3.959  -9.385  0.00  0.00    +0.379 N 
ATOM      9  C   UNL     1       5.691  -3.128  -9.664  0.00  0.00    -0.082 C 
ATOM     10  C   UNL     1       5.380  -1.668  -9.323  0.00  0.00    -0.010 C 
ATOM     11  C   UNL     1       6.354  -1.222  -4.513  0.00  0.00    +0.219 C 
ATOM     12  O   UNL     1       6.720  -2.326  -4.171  0.00  0.00    -0.275 OA
ATOM     13  H   UNL     1       4.701  -4.910  -9.667  0.00  0.00    -0.086 HD
ATOM     14  H   UNL     1       3.724  -3.606  -9.904  0.00  0.00    -0.086 HD
ENDROOT
BRANCH  11  15
ATOM     15  C   UNL     1       6.184  -0.132  -3.487  0.00  0.00    +0.079 C 
ATOM     16  C   UNL     1       6.546  -0.672  -2.097  0.00  0.00    +0.017 C 
ATOM     17  C   UNL     1       6.195   0.394  -1.057  0.00  0.00    +0.027 C 
ATOM     18  C   UNL     1       6.761   1.722  -1.468  0.00  0.00    -0.031 C 
ATOM     19  C   UNL     1       7.160   2.001  -2.667  0.00  0.00    -0.030 C 
ATOM     20  C   UNL     1       7.118   1.035  -3.815  0.00  0.00    +0.039 C 
ENDBRANCH  11  15
BRANCH   1  22
ATOM     21  N   UNL     1       2.182   0.182  -7.765  0.00  0.00    -0.315 N 
ATOM     22  C   UNL     1       3.223  -0.055  -6.942  0.00  0.00    +0.218 C 
ATOM     23  O   UNL     1       3.033  -0.219  -5.756  0.00  0.00    -0.275 OA
ATOM     24  H   UNL     1       2.335   0.313  -8.714  0.00  0.00    +0.149 HD
BRANCH  21  25
ATOM     25  C   UNL     1       0.821   0.241  -7.227  0.00  0.00    +0.109 C 
BRANCH  25  26
ATOM     26  C   UNL     1      -0.165   0.521  -8.362  0.00  0.00    +0.056 C 
BRANCH  26  34
ATOM     27  C   UNL     1      -2.257   5.367  -6.136  0.00  0.00    +0.044 C 
ATOM     28  C   UNL     1      -2.687   3.945  -6.389  0.00  0.00    -0.050 A 
ATOM     29  C   UNL     1      -3.961   3.535  -6.022  0.00  0.00    +0.005 A 
ATOM     30  C   UNL     1      -4.374   2.239  -6.245  0.00  0.00    +0.026 A 
ATOM     31  C   UNL     1      -3.507   1.331  -6.844  0.00  0.00    +0.047 A 
ATOM     32  N   UNL     1      -3.617   0.004  -7.192  0.00  0.00    -0.360 N 
ATOM     33  C   UNL     1      -2.451  -0.425  -7.765  0.00  0.00    +0.087 A 
ATOM     34  C   UNL     1      -1.565   0.582  -7.808  0.00  0.00    -0.021 A 
ATOM     35  C   UNL     1      -2.217   1.752  -7.215  0.00  0.00    +0.003 A 
ATOM     36  C   UNL     1      -1.821   3.071  -6.984  0.00  0.00    +0.013 A 
ATOM     37  H   UNL     1      -4.404  -0.546  -7.051  0.00  0.00    +0.165 HD
ENDBRANCH  26  34
ENDBRANCH  25  26
ENDBRANCH  21  25
ENDBRANCH   1  22
TORSDOF 5
