REMARK  Name = ZINC15023319
REMARK  8 active torsions:
REMARK  status: ('A' for Active; 'I' for Inactive)
REMARK    1  A    between atoms: C_13  and  N_17
REMARK    2  A    between atoms: N_17  and  C_18
REMARK    3  A    between atoms: C_18  and  C_19
REMARK    4  A    between atoms: C_19  and  O_20
REMARK    5  A    between atoms: O_20  and  C_21
REMARK    6  A    between atoms: C_21  and  C_22
REMARK    7  A    between atoms: C_22  and  N_23
REMARK    8  A    between atoms: N_23  and  C_24
REMARK                            x       y       z     vdW  Elec       q    Type
REMARK                         _______ _______ _______ _____ _____    ______ ____
ROOT
ATOM      1  O   UNL     1       2.670   8.068   1.265  0.00  0.00    -0.377 OA
ENDROOT
BRANCH   1   2
ATOM      2  C   UNL     1       3.410   7.713   0.096  0.00  0.00    +0.178 C 
BRANCH   2   3
ATOM      3  C   UNL     1       3.694   6.209   0.108  0.00  0.00    +0.129 C 
BRANCH   3   4
ATOM      4  N   UNL     1       2.431   5.473   0.006  0.00  0.00    -0.341 N 
ATOM      5  H   UNL     1       1.592   5.956  -0.056  0.00  0.00    +0.146 HD
BRANCH   4  18
ATOM      6  C   UNL     1      -3.711   1.922   0.161  0.00  0.00    +0.001 A 
ATOM      7  C   UNL     1      -3.727   3.305   0.169  0.00  0.00    +0.001 A 
ATOM      8  C   UNL     1      -2.542   4.020   0.156  0.00  0.00    +0.012 A 
ATOM      9  C   UNL     1      -1.326   3.346   0.113  0.00  0.00    +0.033 A 
ATOM     10  C   UNL     1      -1.310   1.940   0.097  0.00  0.00    +0.033 A 
ATOM     11  C   UNL     1      -2.511   1.236   0.125  0.00  0.00    +0.012 A 
ATOM     12  C   UNL     1      -0.022   1.215   0.059  0.00  0.00    +0.195 C 
ATOM     13  O   UNL     1      -0.007   0.000   0.051  0.00  0.00    -0.287 OA
ATOM     14  C   UNL     1       1.246   1.972   0.023  0.00  0.00    +0.035 A 
ATOM     15  C   UNL     1       2.462   1.299  -0.019  0.00  0.00    +0.012 A 
ATOM     16  C   UNL     1       3.651   2.012  -0.052  0.00  0.00    +0.003 A 
ATOM     17  C   UNL     1       3.643   3.390  -0.045  0.00  0.00    +0.023 A 
ATOM     18  C   UNL     1       2.435   4.088  -0.002  0.00  0.00    +0.039 A 
ATOM     19  C   UNL     1       1.227   3.380   0.032  0.00  0.00    +0.054 A 
ATOM     20  C   UNL     1      -0.056   4.101   0.077  0.00  0.00    +0.196 C 
ATOM     21  O   UNL     1      -0.070   5.317   0.084  0.00  0.00    -0.287 OA
ENDBRANCH   4  18
ENDBRANCH   3   4
ENDBRANCH   2   3
ENDBRANCH   1   2
BRANCH   1  22
ATOM     22  C   UNL     1       2.351   9.458   1.351  0.00  0.00    +0.178 C 
BRANCH  22  23
ATOM     23  C   UNL     1       1.563   9.722   2.635  0.00  0.00    +0.129 C 
BRANCH  23  24
ATOM     24  N   UNL     1       2.413   9.447   3.796  0.00  0.00    -0.341 N 
ATOM     25  H   UNL     1       3.326   9.146   3.668  0.00  0.00    +0.146 HD
BRANCH  24  26
ATOM     26  C   UNL     1       1.912   9.616   5.078  0.00  0.00    +0.039 A 
ATOM     27  C   UNL     1       0.570   9.945   5.269  0.00  0.00    +0.023 A 
ATOM     28  C   UNL     1       0.068  10.110   6.542  0.00  0.00    +0.003 A 
ATOM     29  C   UNL     1       0.889   9.960   7.651  0.00  0.00    +0.012 A 
ATOM     30  C   UNL     1       2.229   9.637   7.484  0.00  0.00    +0.035 A 
ATOM     31  C   UNL     1       2.751   9.462   6.187  0.00  0.00    +0.054 A 
ATOM     32  C   UNL     1       4.174   9.120   6.011  0.00  0.00    +0.196 C 
ATOM     33  O   UNL     1       4.583   8.725   4.937  0.00  0.00    -0.287 OA
ATOM     34  C   UNL     1       5.099   9.264   7.157  0.00  0.00    +0.033 A 
ATOM     35  C   UNL     1       6.476   9.229   6.964  0.00  0.00    +0.012 A 
ATOM     36  C   UNL     1       7.326   9.366   8.048  0.00  0.00    +0.001 A 
ATOM     37  C   UNL     1       6.816   9.536   9.322  0.00  0.00    +0.001 A 
ATOM     38  C   UNL     1       5.449   9.573   9.532  0.00  0.00    +0.012 A 
ATOM     39  C   UNL     1       4.580   9.437   8.454  0.00  0.00    +0.033 A 
ATOM     40  C   UNL     1       3.116   9.475   8.657  0.00  0.00    +0.195 C 
ATOM     41  O   UNL     1       2.647   9.374   9.773  0.00  0.00    -0.287 OA
ENDBRANCH  24  26
ENDBRANCH  23  24
ENDBRANCH  22  23
ENDBRANCH   1  22
TORSDOF 8
