REMARK  Name = ZINC64541296
REMARK  6 active torsions:
REMARK  status: ('A' for Active; 'I' for Inactive)
REMARK    1  A    between atoms: C_1  and  C_2
REMARK    2  A    between atoms: C_2  and  N_3
REMARK    3  A    between atoms: C_7  and  S_13
REMARK    4  A    between atoms: S_13  and  N_16
REMARK    5  A    between atoms: C_22  and  C_24
REMARK    6  A    between atoms: C_24  and  C_25
REMARK                            x       y       z     vdW  Elec       q    Type
REMARK                         _______ _______ _______ _____ _____    ______ ____
ROOT
ATOM      1  N   UNL     1      -5.303  -0.303   5.356  0.00  0.00    -0.174 NA
ATOM      2  C   UNL     1      -4.697   0.679   6.265  0.00  0.00    +0.128 C 
ATOM      3  C   UNL     1      -4.680   2.046   5.570  0.00  0.00    +0.125 C 
ATOM      4  N   UNL     1      -6.020   2.314   5.028  0.00  0.00    -0.299 N 
ATOM      5  C   UNL     1      -6.626   1.332   4.119  0.00  0.00    +0.125 C 
ATOM      6  C   UNL     1      -6.640  -0.032   4.810  0.00  0.00    +0.128 C 
ATOM      7  C   UNL     1      -6.681   3.441   5.361  0.00  0.00    +0.220 C 
ATOM      8  O   UNL     1      -6.171   4.244   6.113  0.00  0.00    -0.275 OA
ENDROOT
BRANCH   1   9
ATOM      9  S   UNL     1      -4.490  -1.687   4.947  0.00  0.00    +0.061 S 
ATOM     10  O   UNL     1      -5.474  -2.635   4.558  0.00  0.00    -0.153 OA
ATOM     11  O   UNL     1      -3.563  -1.938   5.995  0.00  0.00    -0.153 OA
BRANCH   9  16
ATOM     12  N   UNL     1      -1.372  -0.511   0.012  0.00  0.00    -0.302 N 
ATOM     13  C   UNL     1      -2.005  -0.750   1.221  0.00  0.00    +0.059 A 
ATOM     14  C   UNL     1      -1.488  -0.565   2.513  0.00  0.00    +0.029 A 
ATOM     15  C   UNL     1      -2.245  -0.850   3.624  0.00  0.00    +0.030 A 
ATOM     16  C   UNL     1      -3.539  -1.327   3.508  0.00  0.00    +0.107 A 
ATOM     17  C   UNL     1      -4.076  -1.519   2.247  0.00  0.00    +0.045 A 
ATOM     18  C   UNL     1      -3.319  -1.234   1.137  0.00  0.00    +0.043 A 
ATOM     19  S   UNL     1      -3.603  -1.331  -0.614  0.00  0.00    -0.027 S 
ATOM     20  C   UNL     1      -2.009  -0.735  -1.154  0.00  0.00    +0.292 A 
ATOM     21  O   UNL     1      -1.600  -0.573  -2.289  0.00  0.00    -0.259 OA
BRANCH  12  23
ATOM     22  C   UNL     1      -0.019   1.526   0.010  0.00  0.00    +0.027 C 
ATOM     23  C   UNL     1       0.002  -0.004   0.002  0.00  0.00    +0.122 C 
ENDBRANCH  12  23
ENDBRANCH   9  16
ENDBRANCH   1   9
BRANCH   7  24
ATOM     24  C   UNL     1      -8.054   3.702   4.798  0.00  0.00    +0.129 C 
BRANCH  24  25
ATOM     25  C   UNL     1      -8.569   5.018   5.321  0.00  0.00    -0.033 C 
ATOM     26  C   UNL     1      -8.491   6.223   4.711  0.00  0.00    -0.001 A 
ATOM     27  C   UNL     1      -7.923   6.652   3.427  0.00  0.00    +0.010 A 
ATOM     28  C   UNL     1      -7.996   7.957   3.081  0.00  0.00    +0.001 A 
ATOM     29  C   UNL     1      -8.599   8.908   3.916  0.00  0.00    +0.002 A 
ATOM     30  C   UNL     1      -9.143   8.590   5.110  0.00  0.00    +0.026 A 
ATOM     31  C   UNL     1      -9.123   7.246   5.574  0.00  0.00    +0.043 A 
ATOM     32  N   UNL     1      -9.574   6.696   6.675  0.00  0.00    -0.380 N 
ATOM     33  C   UNL     1      -9.285   5.258   6.632  0.00  0.00    +0.145 C 
ATOM     34  H   UNL     1     -10.027   7.161   7.395  0.00  0.00    +0.160 HD
ENDBRANCH  24  25
ENDBRANCH   7  24
TORSDOF 5
