REMARK  Name = ZINC02411304
REMARK  7 active torsions:
REMARK  status: ('A' for Active; 'I' for Inactive)
REMARK    1  A    between atoms: C_1  and  C_2
REMARK    2  A    between atoms: C_2  and  C_34
REMARK    3  A    between atoms: C_7  and  C_33
REMARK    4  A    between atoms: C_10  and  N_11
REMARK    5  A    between atoms: C_10  and  N_62
REMARK    6  A    between atoms: N_19  and  N_20
REMARK    7  A    between atoms: C_21  and  C_23
REMARK                            x       y       z     vdW  Elec       q    Type
REMARK                         _______ _______ _______ _____ _____    ______ ____
ROOT
ATOM      1  N   UNL     1       7.785   1.749  -0.017  0.00  0.00    -0.282 N 
ATOM      2  C   UNL     1       8.681   2.786  -0.251  0.00  0.00    +0.044 A 
ATOM      3  C   UNL     1      10.043   2.784  -0.535  0.00  0.00    +0.024 A 
ATOM      4  C   UNL     1      10.712   3.975  -0.729  0.00  0.00    +0.002 A 
ATOM      5  C   UNL     1      10.040   5.183  -0.645  0.00  0.00    +0.001 A 
ATOM      6  C   UNL     1       8.689   5.205  -0.365  0.00  0.00    +0.012 A 
ATOM      7  C   UNL     1       8.004   4.010  -0.173  0.00  0.00    +0.028 A 
ATOM      8  C   UNL     1       6.593   3.688   0.142  0.00  0.00    +0.153 C 
ATOM      9  N   UNL     1       5.601   4.529   0.311  0.00  0.00    -0.174 NA
ATOM     10  C   UNL     1       6.546   2.215   0.220  0.00  0.00    +0.270 C 
ATOM     11  O   UNL     1       5.561   1.541   0.456  0.00  0.00    -0.268 OA
ENDROOT
BRANCH   9  12
ATOM     12  N   UNL     1       4.317   4.048   0.601  0.00  0.00    -0.202 N 
ATOM     13  C   UNL     1       3.297   4.912   0.774  0.00  0.00    +0.265 C 
ATOM     14  O   UNL     1       3.491   6.108   0.678  0.00  0.00    -0.268 OA
ATOM     15  H   UNL     1       4.163   3.094   0.678  0.00  0.00    +0.178 HD
BRANCH  13  16
ATOM     16  C   UNL     1       1.945   4.406   1.080  0.00  0.00    +0.057 A 
ATOM     17  C   UNL     1       1.719   3.031   1.191  0.00  0.00    +0.016 A 
ATOM     18  C   UNL     1       0.454   2.565   1.477  0.00  0.00    +0.021 A 
ATOM     19  C   UNL     1      -0.594   3.455   1.649  0.00  0.00    +0.042 A 
ATOM     20  C   UNL     1      -0.377   4.818   1.546  0.00  0.00    +0.040 A 
ATOM     21  C   UNL     1       0.885   5.299   1.260  0.00  0.00    +0.054 A 
ATOM     22 CL   UNL     1       1.155   7.009   1.124  0.00  0.00    -0.083 Cl
ATOM     23 CL   UNL     1      -2.185   2.858   2.003  0.00  0.00    -0.083 Cl
ENDBRANCH  13  16
ENDBRANCH   9  12
BRANCH   1  24
ATOM     24  C   UNL     1       8.145   0.329  -0.026  0.00  0.00    +0.039 C 
BRANCH  24  35
ATOM     25  C   UNL     1       6.717  -4.440  -0.823  0.00  0.00    +0.011 C 
ATOM     26  C   UNL     1       6.792  -2.893  -0.902  0.00  0.00    -0.036 C 
ATOM     27  C   UNL     1       8.231  -2.503  -0.649  0.00  0.00    -0.009 C 
ATOM     28  C   UNL     1       8.835  -1.468  -1.583  0.00  0.00    -0.065 C 
ATOM     29  C   UNL     1       8.411  -1.848  -3.030  0.00  0.00    -0.011 C 
ATOM     30  C   UNL     1       6.923  -1.405  -2.985  0.00  0.00    -0.048 C 
ATOM     31  C   UNL     1       6.162  -2.484  -2.217  0.00  0.00    +0.011 C 
ATOM     32  C   UNL     1       6.949  -0.123  -2.119  0.00  0.00    -0.070 C 
ATOM     33  C   UNL     1       6.345  -1.151  -4.385  0.00  0.00    +0.009 C 
ATOM     34  C   UNL     1       5.917  -2.367   0.253  0.00  0.00    +0.011 C 
ATOM     35  N   UNL     1       8.254  -0.112  -1.458  0.00  0.00    +0.393 N 
ATOM     36  H   UNL     1       8.865   0.553  -1.948  0.00  0.00    -0.079 HD
ENDBRANCH  24  35
ENDBRANCH   1  24
TORSDOF 4
