REMARK  Name = ZINC10099873
REMARK  10 active torsions:
REMARK  status: ('A' for Active; 'I' for Inactive)
REMARK    1  A    between atoms: C_1  and  C_2
REMARK    2  A    between atoms: C_5  and  O_29
REMARK    3  A    between atoms: N_10  and  C_11
REMARK    4  A    between atoms: C_11  and  C_13
REMARK    5  A    between atoms: C_16  and  S_19
REMARK    6  A    between atoms: S_19  and  N_22
REMARK    7  A    between atoms: N_22  and  C_23
REMARK    8  A    between atoms: N_22  and  C_24
REMARK    9  A    between atoms: N_27  and  C_28
REMARK   10  A    between atoms: O_29  and  C_30
REMARK                            x       y       z     vdW  Elec       q    Type
REMARK                         _______ _______ _______ _____ _____    ______ ____
ROOT
ATOM      1  C   UNL     1       0.125  -6.538  -0.091  0.00  0.00    +0.269 C 
ATOM      2  O   UNL     1       0.717  -6.751  -1.135  0.00  0.00    -0.268 OA
ENDROOT
BRANCH   1  12
ATOM      3  C   UNL     1       2.524  -2.452  -4.411  0.00  0.00    +0.045 C 
ATOM      4  C   UNL     1       1.849  -1.798  -3.233  0.00  0.00    -0.034 A 
ATOM      5  C   UNL     1       1.786  -0.418  -3.146  0.00  0.00    +0.008 A 
ATOM      6  C   UNL     1       1.163   0.164  -2.056  0.00  0.00    +0.048 A 
ATOM      7  C   UNL     1       0.606  -0.607  -1.056  0.00  0.00    +0.145 A 
ATOM      8  C   UNL     1       0.662  -2.013  -1.118  0.00  0.00    +0.100 A 
ATOM      9  C   UNL     1       1.295  -2.569  -2.238  0.00  0.00    +0.045 A 
ATOM     10  S   UNL     1       1.155  -4.317  -1.958  0.00  0.00    -0.052 S 
ATOM     11  C   UNL     1       0.302  -4.265  -0.450  0.00  0.00    +0.167 A 
ATOM     12  N   UNL     1      -0.110  -5.282   0.300  0.00  0.00    -0.152 NA
ATOM     13  N   UNL     1       0.156  -2.933  -0.217  0.00  0.00    -0.321 N 
ATOM     14  C   UNL     1      -0.532  -2.472   0.991  0.00  0.00    +0.151 C 
BRANCH   7  15
ATOM     15  O   UNL     1       0.002  -0.004   0.002  0.00  0.00    -0.493 OA
ATOM     16  C   UNL     1      -0.017   1.425   0.010  0.00  0.00    +0.277 C 
ENDBRANCH   7  15
ENDBRANCH   1  12
BRANCH   1  17
ATOM     17  C   UNL     1      -0.335  -7.672   0.744  0.00  0.00    +0.039 A 
ATOM     18  C   UNL     1      -1.008  -7.432   1.942  0.00  0.00    +0.015 A 
ATOM     19  C   UNL     1      -1.438  -8.493   2.712  0.00  0.00    +0.029 A 
ATOM     20  C   UNL     1      -1.193  -9.792   2.304  0.00  0.00    +0.106 A 
ATOM     21  C   UNL     1      -0.521 -10.037   1.120  0.00  0.00    +0.029 A 
ATOM     22  C   UNL     1      -0.091  -8.985   0.338  0.00  0.00    +0.015 A 
BRANCH  20  23
ATOM     23  S   UNL     1      -1.740 -11.141   3.298  0.00  0.00    +0.061 S 
ATOM     24  O   UNL     1      -2.821 -10.656   4.082  0.00  0.00    -0.153 OA
ATOM     25  O   UNL     1      -1.869 -12.258   2.430  0.00  0.00    -0.153 OA
BRANCH  23  26
ATOM     26  N   UNL     1      -0.514 -11.501   4.352  0.00  0.00    -0.177 NA
ATOM     27  C   UNL     1      -0.457 -10.843   5.660  0.00  0.00    +0.132 C 
BRANCH  26  28
ATOM     28  C   UNL     1       0.512 -12.476   3.977  0.00  0.00    +0.080 C 
ATOM     29  C   UNL     1       1.498 -12.916   5.061  0.00  0.00    +0.022 C 
ATOM     30  C   UNL     1       1.963 -11.992   3.933  0.00  0.00    +0.022 C 
ENDBRANCH  26  28
ENDBRANCH  23  26
ENDBRANCH  20  23
ENDBRANCH   1  17
TORSDOF 6
