REMARK  Name = ZINC16930481
REMARK  13 active torsions:
REMARK  status: ('A' for Active; 'I' for Inactive)
REMARK    1  A    between atoms: C_1  and  C_2
REMARK    2  A    between atoms: C_2  and  O_3
REMARK    3  A    between atoms: O_3  and  C_4
REMARK    4  A    between atoms: C_4  and  C_6
REMARK    5  A    between atoms: C_8  and  C_29
REMARK    6  A    between atoms: C_9  and  C_24
REMARK    7  A    between atoms: C_11  and  C_19
REMARK    8  A    between atoms: C_11  and  O_23
REMARK    9  A    between atoms: C_13  and  C_14
REMARK   10  A    between atoms: C_13  and  O_18
REMARK   11  A    between atoms: C_24  and  O_26
REMARK   12  A    between atoms: O_26  and  C_27
REMARK   13  A    between atoms: C_27  and  C_28
REMARK                            x       y       z     vdW  Elec       q    Type
REMARK                         _______ _______ _______ _____ _____    ______ ____
ROOT
ATOM      1  C   UNL     1      -1.350   1.784  -2.487  0.00  0.00    +0.174 C 
ATOM      2  C   UNL     1      -1.324   0.615  -1.497  0.00  0.00    +0.057 C 
ATOM      3  C   UNL     1      -0.364   0.952  -0.352  0.00  0.00    +0.174 C 
ATOM      4  C   UNL     1      -0.804   2.262   0.306  0.00  0.00    +0.282 C 
ATOM      5  O   UNL     1      -0.838   3.299  -0.676  0.00  0.00    -0.300 OA
ATOM      6  C   UNL     1      -1.754   3.061  -1.746  0.00  0.00    +0.282 C 
ENDROOT
BRANCH   2   7
ATOM      7  C   UNL     1      -0.853  -0.631  -2.201  0.00  0.00    -0.042 A 
ATOM      8  C   UNL     1      -1.124  -0.810  -3.544  0.00  0.00    +0.007 A 
ATOM      9  C   UNL     1      -0.688  -1.950  -4.192  0.00  0.00    +0.038 A 
ATOM     10  C   UNL     1       0.011  -2.919  -3.492  0.00  0.00    +0.123 A 
ATOM     11  C   UNL     1       0.277  -2.741  -2.144  0.00  0.00    +0.038 A 
ATOM     12  C   UNL     1      -0.155  -1.597  -1.500  0.00  0.00    +0.007 A 
ATOM     13  F   UNL     1       0.433  -4.037  -4.122  0.00  0.00    -0.205 F 
ENDBRANCH   2   7
BRANCH   6  14
ATOM     14  C   UNL     1      -1.724   4.245  -2.716  0.00  0.00    +0.445 C 
ATOM     15  F   UNL     1      -2.487   3.939  -3.848  0.00  0.00    -0.165 F 
ATOM     16  F   UNL     1      -2.254   5.376  -2.087  0.00  0.00    -0.165 F 
ATOM     17  F   UNL     1      -0.403   4.500  -3.099  0.00  0.00    -0.165 F 
ENDBRANCH   6  14
BRANCH   4  18
ATOM     18  C   UNL     1       0.186   2.635   1.412  0.00  0.00    +0.445 C 
ATOM     19  F   UNL     1       1.421   2.962   0.841  0.00  0.00    -0.165 F 
ATOM     20  F   UNL     1      -0.304   3.735   2.124  0.00  0.00    -0.165 F 
ATOM     21  F   UNL     1       0.346   1.550   2.280  0.00  0.00    -0.165 F 
ENDBRANCH   4  18
BRANCH   1  22
ATOM     22  C   UNL     1       0.019   1.963  -3.091  0.00  0.00    +0.316 C 
ATOM     23  O   UNL     1       0.723   2.877  -2.731  0.00  0.00    -0.250 OA
BRANCH  22  24
ATOM     24  O   UNL     1       0.457   1.107  -4.027  0.00  0.00    -0.465 OA
BRANCH  24  26
ATOM     25  C   UNL     1       2.038   0.359  -5.722  0.00  0.00    +0.048 C 
ATOM     26  C   UNL     1       1.730   1.412  -4.655  0.00  0.00    +0.229 C 
ENDBRANCH  24  26
ENDBRANCH  22  24
ENDBRANCH   1  22
BRANCH   6  27
ATOM     27  O   UNL     1      -3.074   2.910  -1.220  0.00  0.00    -0.357 OA
ATOM     28  H   UNL     1      -3.395   3.683  -0.737  0.00  0.00    +0.213 HD
ENDBRANCH   6  27
BRANCH   4  29
ATOM     29  O   UNL     1      -2.107   2.098   0.869  0.00  0.00    -0.357 OA
ATOM     30  H   UNL     1      -2.451   2.890   1.304  0.00  0.00    +0.213 HD
ENDBRANCH   4  29
BRANCH   3  31
ATOM     31  C   UNL     1       1.033   1.106  -0.896  0.00  0.00    +0.316 C 
ATOM     32  O   UNL     1       1.532   2.203  -0.977  0.00  0.00    -0.250 OA
BRANCH  31  33
ATOM     33  O   UNL     1       1.723   0.024  -1.290  0.00  0.00    -0.465 OA
BRANCH  33  34
ATOM     34  C   UNL     1       3.113   0.227  -1.659  0.00  0.00    +0.229 C 
ATOM     35  C   UNL     1       3.689  -1.077  -2.212  0.00  0.00    +0.048 C 
ENDBRANCH  33  34
ENDBRANCH  31  33
ENDBRANCH   3  31
TORSDOF 11
