REMARK  Name = ZINC34756319
REMARK  5 active torsions:
REMARK  status: ('A' for Active; 'I' for Inactive)
REMARK    1  A    between atoms: C_4  and  C_7
REMARK    2  A    between atoms: C_7  and  N_8
REMARK    3  A    between atoms: C_21  and  S_23
REMARK    4  A    between atoms: S_23  and  C_24
REMARK    5  A    between atoms: C_24  and  C_25
REMARK                            x       y       z     vdW  Elec       q    Type
REMARK                         _______ _______ _______ _____ _____    ______ ____
ROOT
ATOM      1  N   UNL     1       3.364  -0.551   2.374  0.00  0.00    +0.384 N 
ATOM      2  C   UNL     1       3.467  -0.802   3.818  0.00  0.00    -0.059 C 
ATOM      3  C   UNL     1       4.741  -1.602   4.106  0.00  0.00    +0.088 C 
ATOM      4  N   UNL     1       5.886  -0.878   3.533  0.00  0.00    -0.318 N 
ATOM      5  C   UNL     1       5.799  -0.443   2.131  0.00  0.00    +0.088 C 
ATOM      6  C   UNL     1       4.475   0.303   1.935  0.00  0.00    -0.059 C 
ATOM      7  C   UNL     1       7.013  -0.615   4.291  0.00  0.00    +0.134 A 
ATOM      8  C   UNL     1       8.039  -1.593   4.419  0.00  0.00    +0.051 A 
ATOM      9  C   UNL     1       8.101  -2.936   3.838  0.00  0.00    -0.025 A 
ATOM     10  C   UNL     1       9.194  -3.673   4.116  0.00  0.00    -0.004 A 
ATOM     11  S   UNL     1      10.196  -2.641   5.152  0.00  0.00    -0.073 S 
ATOM     12  C   UNL     1       9.140  -1.217   5.213  0.00  0.00    +0.115 A 
ATOM     13  N   UNL     1       9.203  -0.034   5.793  0.00  0.00    -0.215 NA
ATOM     14  C   UNL     1       8.216   0.838   5.639  0.00  0.00    +0.191 A 
ATOM     15  N   UNL     1       7.151   0.551   4.899  0.00  0.00    -0.206 NA
ATOM     16  C   UNL     1       9.495  -5.065   3.648  0.00  0.00    +0.043 C 
ATOM     17  C   UNL     1       8.199  -5.682   3.102  0.00  0.00    +0.005 C 
ATOM     18  C   UNL     1       7.537  -4.676   2.155  0.00  0.00    +0.005 C 
ATOM     19  C   UNL     1       6.987  -3.495   2.956  0.00  0.00    +0.037 C 
ATOM     20  H   UNL     1       3.400  -1.429   1.879  0.00  0.00    -0.081 HD
ENDROOT
BRANCH   1  21
ATOM     21  C   UNL     1       2.089   0.120   2.086  0.00  0.00    -0.043 C 
BRANCH  21  25
ATOM     22  C   UNL     1      -1.148  -2.499   3.039  0.00  0.00    +0.000 A 
ATOM     23  C   UNL     1      -0.647  -1.641   4.000  0.00  0.00    +0.000 A 
ATOM     24  C   UNL     1       0.401  -0.793   3.692  0.00  0.00    +0.002 A 
ATOM     25  C   UNL     1       0.948  -0.805   2.422  0.00  0.00    -0.064 A 
ATOM     26  C   UNL     1       0.448  -1.664   1.462  0.00  0.00    +0.002 A 
ATOM     27  C   UNL     1      -0.601  -2.510   1.770  0.00  0.00    +0.000 A 
ENDBRANCH  21  25
ENDBRANCH   1  21
BRANCH  14  28
ATOM     28  S   UNL     1       8.323   2.412   6.425  0.00  0.00    -0.081 S 
BRANCH  28  29
ATOM     29  C   UNL     1       9.912   2.360   7.297  0.00  0.00    +0.112 C 
BRANCH  29  30
ATOM     30  C   UNL     1      10.131   3.663   8.022  0.00  0.00    -0.037 A 
ATOM     31  C   UNL     1      10.772   4.708   7.384  0.00  0.00    +0.007 A 
ATOM     32  C   UNL     1      10.973   5.904   8.046  0.00  0.00    +0.038 A 
ATOM     33  C   UNL     1      10.532   6.055   9.350  0.00  0.00    +0.123 A 
ATOM     34  C   UNL     1       9.890   5.007   9.988  0.00  0.00    +0.038 A 
ATOM     35  C   UNL     1       9.685   3.814   9.321  0.00  0.00    +0.007 A 
ATOM     36  F   UNL     1      10.728   7.223   9.999  0.00  0.00    -0.205 F 
ENDBRANCH  29  30
ENDBRANCH  28  29
ENDBRANCH  14  28
TORSDOF 5
