REMARK  Name = ZINC21459269
REMARK  6 active torsions:
REMARK  status: ('A' for Active; 'I' for Inactive)
REMARK    1  A    between atoms: C_1  and  C_2
REMARK    2  A    between atoms: C_2  and  C_26
REMARK    3  A    between atoms: N_5  and  N_9
REMARK    4  A    between atoms: C_10  and  C_12
REMARK    5  A    between atoms: C_12  and  S_13
REMARK    6  A    between atoms: S_13  and  C_14
REMARK                            x       y       z     vdW  Elec       q    Type
REMARK                         _______ _______ _______ _____ _____    ______ ____
ROOT
ATOM      1  N   UNL     1       1.700   3.228   0.002  0.00  0.00    -0.223 N 
ATOM      2  C   UNL     1       2.204   3.773   1.127  0.00  0.00    +0.240 C 
ATOM      3  O   UNL     1       2.287   3.108   2.138  0.00  0.00    -0.273 OA
ATOM      4  H   UNL     1       1.624   3.831  -0.915  0.00  0.00    +0.174 HD
ENDROOT
BRANCH   1   9
ATOM      5  C   UNL     1      -0.666  -0.558   1.262  0.00  0.00    +0.047 C 
ATOM      6  C   UNL     1       0.002  -0.004   0.002  0.00  0.00    +0.137 C 
ATOM      7  C   UNL     1      -0.018   1.512   0.010  0.00  0.00    +0.267 C 
ATOM      8  O   UNL     1      -0.995   2.231   0.019  0.00  0.00    -0.271 OA
ATOM      9  N   UNL     1       1.274   1.894   0.000  0.00  0.00    -0.137 N 
ATOM     10  C   UNL     1       2.099   0.841  -0.013  0.00  0.00    +0.327 C 
ATOM     11  O   UNL     1       3.311   0.933  -0.025  0.00  0.00    -0.251 OA
ATOM     12  N   UNL     1       1.438  -0.331  -0.013  0.00  0.00    -0.280 N 
ATOM     13  H   UNL     1       1.763  -1.382  -0.022  0.00  0.00    +0.152 HD
BRANCH   6  14
ATOM     14  C   UNL     1      -0.676  -0.537  -1.234  0.00  0.00    -0.015 A 
ATOM     15  C   UNL     1      -1.704   0.177  -1.820  0.00  0.00    +0.006 A 
ATOM     16  C   UNL     1      -2.323  -0.309  -2.956  0.00  0.00    +0.000 A 
ATOM     17  C   UNL     1      -1.921  -1.514  -3.501  0.00  0.00    +0.000 A 
ATOM     18  C   UNL     1      -0.896  -2.231  -2.911  0.00  0.00    +0.000 A 
ATOM     19  C   UNL     1      -0.274  -1.742  -1.778  0.00  0.00    +0.006 A 
ENDBRANCH   6  14
ENDBRANCH   1   9
BRANCH   2  20
ATOM     20  C   UNL     1       2.662   5.208   1.130  0.00  0.00    +0.173 C 
BRANCH  20  21
ATOM     21  S   UNL     1       3.282   5.641   2.775  0.00  0.00    -0.096 S 
BRANCH  21  22
ATOM     22  C   UNL     1       3.736   7.321   2.498  0.00  0.00    +0.109 A 
ATOM     23  C   UNL     1       4.293   8.101   3.549  0.00  0.00    +0.043 A 
ATOM     24  C   UNL     1       4.571   7.700   4.938  0.00  0.00    -0.025 A 
ATOM     25  C   UNL     1       5.107   8.631   5.743  0.00  0.00    -0.004 A 
ATOM     26  S   UNL     1       5.271  10.082   4.728  0.00  0.00    -0.073 S 
ATOM     27  C   UNL     1       4.619   9.428   3.216  0.00  0.00    +0.113 A 
ATOM     28  N   UNL     1       4.414   9.903   2.001  0.00  0.00    -0.228 NA
ATOM     29  C   UNL     1       3.894   9.133   1.065  0.00  0.00    +0.223 A 
ATOM     30  N   UNL     1       3.570   7.875   1.306  0.00  0.00    -0.229 NA
ATOM     31  C   UNL     1       5.351   8.108   7.133  0.00  0.00    +0.043 C 
ATOM     32  C   UNL     1       5.291   6.572   6.986  0.00  0.00    +0.010 C 
ATOM     33  C   UNL     1       4.389   6.412   5.746  0.00  0.00    +0.037 C 
ENDBRANCH  21  22
ENDBRANCH  20  21
ENDBRANCH   2  20
TORSDOF 5
