REMARK  Name = ZINC10107859
REMARK  12 active torsions:
REMARK  status: ('A' for Active; 'I' for Inactive)
REMARK    1  A    between atoms: C_1  and  C_2
REMARK    2  A    between atoms: C_2  and  C_3
REMARK    3  A    between atoms: C_9  and  C_10
REMARK    4  A    between atoms: C_9  and  N_72
REMARK    5  A    between atoms: C_10  and  C_11
REMARK    6  A    between atoms: C_11  and  N_12
REMARK    7  A    between atoms: C_20  and  C_32
REMARK    8  A    between atoms: C_21  and  C_31
REMARK    9  A    between atoms: N_22  and  C_23
REMARK   10  A    between atoms: C_27  and  O_29
REMARK   11  A    between atoms: O_29  and  C_30
REMARK   12  A    between atoms: N_33  and  C_36
REMARK                            x       y       z     vdW  Elec       q    Type
REMARK                         _______ _______ _______ _____ _____    ______ ____
ROOT
ATOM      1  N   UNL     1       1.811  -0.436  -0.472  0.00  0.00    -0.259 N 
ATOM      2  C   UNL     1       3.130  -0.352  -0.204  0.00  0.00    +0.283 A 
ATOM      3  O   UNL     1       3.514   0.067   0.874  0.00  0.00    -0.265 OA
ATOM      4  C   UNL     1       4.058  -0.751  -1.181  0.00  0.00    +0.157 A 
ATOM      5  C   UNL     1       3.593  -1.225  -2.406  0.00  0.00    +0.170 A 
ATOM      6  N   UNL     1       4.655  -1.534  -3.145  0.00  0.00    -0.193 NA
ATOM      7  C   UNL     1       5.765  -1.284  -2.466  0.00  0.00    +0.223 A 
ATOM      8  N   UNL     1       5.442  -0.798  -1.244  0.00  0.00    -0.274 N 
ATOM      9  C   UNL     1       6.616  -0.547  -0.556  0.00  0.00    +0.044 A 
ATOM     10  C   UNL     1       7.640  -0.872  -1.339  0.00  0.00    +0.043 A 
ATOM     11  N   UNL     1       7.134  -1.336  -2.540  0.00  0.00    -0.282 N 
ATOM     12  C   UNL     1       9.100  -0.755  -0.981  0.00  0.00    +0.066 C 
ATOM     13  C   UNL     1       6.717   0.002   0.844  0.00  0.00    +0.066 C 
ATOM     14  N   UNL     1       2.224  -1.288  -2.622  0.00  0.00    -0.279 N 
ATOM     15  C   UNL     1       1.372  -0.900  -1.655  0.00  0.00    +0.333 A 
ATOM     16  O   UNL     1       0.175  -0.965  -1.858  0.00  0.00    -0.246 OA
ATOM     17  C   UNL     1       1.706  -1.783  -3.900  0.00  0.00    +0.155 C 
ENDROOT
BRANCH  11  18
ATOM     18  C   UNL     1       7.885  -1.780  -3.636  0.00  0.00    +0.053 A 
ATOM     19  C   UNL     1       8.704  -0.892  -4.323  0.00  0.00    +0.026 A 
ATOM     20  C   UNL     1       9.445  -1.329  -5.403  0.00  0.00    +0.006 A 
ATOM     21  C   UNL     1       9.374  -2.650  -5.804  0.00  0.00    +0.046 A 
ATOM     22  C   UNL     1       8.558  -3.541  -5.122  0.00  0.00    +0.122 A 
ATOM     23  C   UNL     1       7.817  -3.107  -4.033  0.00  0.00    +0.071 A 
BRANCH  22  24
ATOM     24  O   UNL     1       8.489  -4.840  -5.516  0.00  0.00    -0.495 OA
ATOM     25  C   UNL     1       9.284  -5.219  -6.642  0.00  0.00    +0.277 C 
ENDBRANCH  22  24
ENDBRANCH  11  18
BRANCH   1  26
ATOM     26  C   UNL     1       0.841  -0.021   0.544  0.00  0.00    +0.128 C 
BRANCH  26  27
ATOM     27  C   UNL     1       0.525   1.466   0.371  0.00  0.00    +0.003 C 
BRANCH  27  28
ATOM     28  C   UNL     1      -0.488   1.899   1.433  0.00  0.00    -0.077 C 
BRANCH  28  34
ATOM     29  C   UNL     1      -1.837   3.756   2.204  0.00  0.00    -0.069 C 
ATOM     30  C   UNL     1      -2.023   5.271   2.103  0.00  0.00    -0.015 C 
ATOM     31  C   UNL     1      -2.416   5.638   0.670  0.00  0.00    -0.003 C 
ATOM     32  C   UNL     1      -1.335   5.138  -0.291  0.00  0.00    -0.019 C 
ATOM     33  C   UNL     1      -1.168   3.626  -0.122  0.00  0.00    -0.078 C 
ATOM     34  N   UNL     1      -0.766   3.341   1.272  0.00  0.00    +0.382 N 
ATOM     35  H   UNL     1       0.087   3.871   1.488  0.00  0.00    -0.081 HD
BRANCH  29  37
ATOM     36  C   UNL     1      -2.568   3.713   4.592  0.00  0.00    +0.002 C 
ATOM     37  C   UNL     1      -1.424   3.386   3.630  0.00  0.00    -0.019 C 
ENDBRANCH  29  37
ENDBRANCH  28  34
ENDBRANCH  27  28
ENDBRANCH  26  27
ENDBRANCH   1  26
TORSDOF 7
