REMARK  Name = ZINC01107206
REMARK  11 active torsions:
REMARK  status: ('A' for Active; 'I' for Inactive)
REMARK    1  A    between atoms: C_1  and  C_2
REMARK    2  A    between atoms: C_3  and  C_26
REMARK    3  A    between atoms: C_4  and  C_16
REMARK    4  A    between atoms: C_10  and  C_14
REMARK    5  A    between atoms: C_10  and  C_15
REMARK    6  A    between atoms: C_20  and  N_22
REMARK    7  A    between atoms: C_26  and  O_28
REMARK    8  A    between atoms: O_28  and  C_29
REMARK    9  A    between atoms: C_29  and  C_30
REMARK   10  A    between atoms: C_33  and  O_36
REMARK   11  A    between atoms: O_36  and  C_37
REMARK                            x       y       z     vdW  Elec       q    Type
REMARK                         _______ _______ _______ _____ _____    ______ ____
ROOT
ATOM      1  C   UNL     1       0.263   1.653   4.848  0.00  0.00    +0.061 C 
ATOM      2  C   UNL     1      -0.569   1.845   3.607  0.00  0.00    +0.016 C 
ATOM      3  C   UNL     1      -1.891   2.061   3.716  0.00  0.00    +0.065 C 
ATOM      4  C   UNL     1      -2.748   2.265   2.503  0.00  0.00    +0.092 C 
ATOM      5  C   UNL     1      -2.051   1.777   1.258  0.00  0.00    +0.024 C 
ATOM      6  C   UNL     1      -0.718   1.572   1.250  0.00  0.00    +0.016 C 
ATOM      7  N   UNL     1       0.026   1.799   2.377  0.00  0.00    -0.321 N 
ATOM      8  C   UNL     1      -0.013   1.086   0.008  0.00  0.00    +0.058 C 
ATOM      9  C   UNL     1      -0.752   1.592  -1.233  0.00  0.00    -0.023 C 
ATOM     10  C   UNL     1      -2.197   1.086  -1.177  0.00  0.00    +0.086 C 
ATOM     11  C   UNL     1      -2.828   1.547   0.109  0.00  0.00    +0.162 C 
ATOM     12  O   UNL     1      -4.029   1.723   0.155  0.00  0.00    -0.292 OA
ATOM     13  C   UNL     1      -0.743   3.122  -1.248  0.00  0.00    +0.011 C 
ATOM     14  C   UNL     1      -0.065   1.062  -2.493  0.00  0.00    +0.011 C 
ATOM     15  H   UNL     1       1.113   1.945   2.286  0.00  0.00    +0.152 HD
ENDROOT
BRANCH   4  16
ATOM     16  C   UNL     1      -3.055   3.733   2.356  0.00  0.00    -0.033 A 
ATOM     17  C   UNL     1      -2.027   4.638   2.167  0.00  0.00    +0.006 A 
ATOM     18  C   UNL     1      -2.307   5.984   2.032  0.00  0.00    +0.022 A 
ATOM     19  C   UNL     1      -3.617   6.426   2.086  0.00  0.00    +0.071 A 
ATOM     20  C   UNL     1      -4.646   5.520   2.275  0.00  0.00    +0.145 A 
ATOM     21  C   UNL     1      -4.364   4.173   2.405  0.00  0.00    +0.038 A 
ATOM     22 CL   UNL     1      -3.971   8.118   1.916  0.00  0.00    -0.081 Cl
BRANCH  20  23
ATOM     23  N   UNL     1      -6.047   5.993   2.333  0.00  0.00    +0.058 N 
ATOM     24  O   UNL     1      -6.952   5.195   2.500  0.00  0.00    -0.126 OA
ATOM     25  O   UNL     1      -6.295   7.179   2.215  0.00  0.00    -0.126 OA
ENDBRANCH  20  23
ENDBRANCH   4  16
BRANCH   3  26
ATOM     26  C   UNL     1      -2.485   2.096   4.999  0.00  0.00    +0.338 C 
ATOM     27  O   UNL     1      -1.799   1.933   5.991  0.00  0.00    -0.245 OA
BRANCH  26  28
ATOM     28  O   UNL     1      -3.811   2.312   5.123  0.00  0.00    -0.457 OA
BRANCH  28  29
ATOM     29  C   UNL     1      -4.343   2.335   6.449  0.00  0.00    +0.268 C 
BRANCH  29  30
ATOM     30  C   UNL     1      -5.828   2.586   6.390  0.00  0.00    -0.010 A 
ATOM     31  C   UNL     1      -6.311   3.881   6.428  0.00  0.00    +0.010 A 
ATOM     32  C   UNL     1      -7.671   4.114   6.368  0.00  0.00    +0.046 A 
ATOM     33  C   UNL     1      -8.554   3.047   6.282  0.00  0.00    +0.120 A 
ATOM     34  C   UNL     1      -8.067   1.748   6.251  0.00  0.00    +0.046 A 
ATOM     35  C   UNL     1      -6.705   1.520   6.305  0.00  0.00    +0.010 A 
BRANCH  33  36
ATOM     36  O   UNL     1      -9.893   3.273   6.229  0.00  0.00    -0.495 OA
ATOM     37  C   UNL     1     -10.322   4.635   6.266  0.00  0.00    +0.277 C 
ENDBRANCH  33  36
ENDBRANCH  29  30
ENDBRANCH  28  29
ENDBRANCH  26  28
ENDBRANCH   3  26
TORSDOF 7
