REMARK  Name = ZINC25133575
REMARK  8 active torsions:
REMARK  status: ('A' for Active; 'I' for Inactive)
REMARK    1  A    between atoms: C_1  and  C_2
REMARK    2  A    between atoms: C_2  and  C_3
REMARK    3  A    between atoms: C_3  and  C_5
REMARK    4  A    between atoms: C_3  and  N_21
REMARK    5  A    between atoms: C_5  and  N_6
REMARK    6  A    between atoms: C_7  and  C_9
REMARK    7  A    between atoms: C_11  and  C_20
REMARK    8  A    between atoms: N_18  and  C_19
REMARK                            x       y       z     vdW  Elec       q    Type
REMARK                         _______ _______ _______ _____ _____    ______ ____
ROOT
ATOM      1  N   UNL     1      -1.848   6.315   1.140  0.00  0.00    -0.313 N 
ATOM      2  C   UNL     1      -0.518   6.138   1.268  0.00  0.00    +0.245 C 
ATOM      3  O   UNL     1       0.092   5.491   0.440  0.00  0.00    -0.270 OA
ATOM      4  H   UNL     1      -2.400   6.901   1.890  0.00  0.00    +0.149 HD
ENDROOT
BRANCH   2   5
ATOM      5  C   UNL     1       0.201   6.732   2.420  0.00  0.00    +0.054 A 
ATOM      6  C   UNL     1      -0.479   7.471   3.391  0.00  0.00    +0.037 A 
ATOM      7  C   UNL     1       0.232   8.009   4.450  0.00  0.00    +0.041 A 
ATOM      8  N   UNL     1       1.533   7.836   4.567  0.00  0.00    -0.233 NA
ATOM      9  C   UNL     1       2.231   7.141   3.682  0.00  0.00    +0.163 A 
ATOM     10  C   UNL     1       1.585   6.562   2.576  0.00  0.00    +0.098 A 
ATOM     11  C   UNL     1       2.623   5.868   1.794  0.00  0.00    +0.298 A 
ATOM     12  O   UNL     1       2.456   5.245   0.764  0.00  0.00    -0.264 OA
ATOM     13  N   UNL     1       3.793   6.055   2.439  0.00  0.00    -0.127 NA
ATOM     14  N   UNL     1       3.573   6.824   3.585  0.00  0.00    -0.246 N 
ATOM     15  C   UNL     1       4.607   7.233   4.539  0.00  0.00    +0.175 C 
ATOM     16  C   UNL     1      -0.500   8.811   5.495  0.00  0.00    +0.065 C 
ENDBRANCH   2   5
BRANCH   1  17
ATOM     17  C   UNL     1      -2.558   5.728   0.001  0.00  0.00    +0.089 C 
BRANCH  17  18
ATOM     18  C   UNL     1      -4.060   5.981   0.152  0.00  0.00    -0.051 C 
BRANCH  18  19
ATOM     19  N   UNL     1      -4.785   5.270  -0.910  0.00  0.00    +0.385 N 
ATOM     20  C   UNL     1      -4.725   3.814  -0.705  0.00  0.00    -0.073 C 
ATOM     21  C   UNL     1      -5.776   3.155  -1.598  0.00  0.00    +0.017 C 
ATOM     22  C   UNL     1      -5.643   3.663  -3.011  0.00  0.00    -0.048 A 
ATOM     23  C   UNL     1      -6.250   2.946  -4.032  0.00  0.00    +0.004 A 
ATOM     24  C   UNL     1      -6.155   3.378  -5.339  0.00  0.00    +0.000 A 
ATOM     25  C   UNL     1      -5.452   4.532  -5.633  0.00  0.00    +0.000 A 
ATOM     26  C   UNL     1      -4.848   5.246  -4.618  0.00  0.00    +0.002 A 
ATOM     27  C   UNL     1      -4.940   4.811  -3.304  0.00  0.00    -0.061 A 
ATOM     28  C   UNL     1      -4.256   5.619  -2.232  0.00  0.00    -0.042 C 
ATOM     29  H   UNL     1      -5.837   5.587  -0.864  0.00  0.00    -0.081 HD
ENDBRANCH  18  19
BRANCH  18  31
ATOM     30  C   UNL     1      -5.820   7.747   0.317  0.00  0.00    +0.002 C 
ATOM     31  C   UNL     1      -4.338   7.481   0.043  0.00  0.00    -0.017 C 
ENDBRANCH  18  31
ENDBRANCH  17  18
ENDBRANCH   1  17
TORSDOF 5
