REMARK  Name = ZINC02916254
REMARK  6 active torsions:
REMARK  status: ('A' for Active; 'I' for Inactive)
REMARK    1  A    between atoms: C_1  and  O_2
REMARK    2  A    between atoms: O_2  and  C_3
REMARK    3  A    between atoms: C_6  and  C_11
REMARK    4  A    between atoms: C_7  and  O_9
REMARK    5  A    between atoms: O_9  and  C_10
REMARK    6  A    between atoms: C_14  and  C_22
REMARK                            x       y       z     vdW  Elec       q    Type
REMARK                         _______ _______ _______ _____ _____    ______ ____
ROOT
ATOM      1  C   UNL     1       2.507  -2.495  -4.390  0.00  0.00    +0.146 C 
ATOM      2  C   UNL     1       1.805  -2.073  -5.687  0.00  0.00    +0.059 C 
ATOM      3  C   UNL     1       2.639  -2.518  -6.894  0.00  0.00    +0.106 C 
ATOM      4  N   UNL     1       3.943  -1.830  -6.845  0.00  0.00    -0.307 N 
ATOM      5  C   UNL     1       4.560  -1.772  -5.602  0.00  0.00    +0.215 A 
ATOM      6  N   UNL     1       3.909  -2.082  -4.453  0.00  0.00    -0.226 N 
ATOM      7  N   UNL     1       4.829  -1.922  -3.416  0.00  0.00    -0.156 NA
ATOM      8  C   UNL     1       5.953  -1.536  -3.965  0.00  0.00    +0.247 A 
ATOM      9  N   UNL     1       5.786  -1.443  -5.294  0.00  0.00    -0.202 NA
ATOM     10  H   UNL     1       4.348  -1.440  -7.636  0.00  0.00    +0.149 HD
ENDROOT
BRANCH   3  11
ATOM     11  C   UNL     1       2.847  -4.009  -6.843  0.00  0.00    -0.027 A 
ATOM     12  C   UNL     1       3.817  -4.544  -6.016  0.00  0.00    +0.006 A 
ATOM     13  C   UNL     1       4.008  -5.912  -5.969  0.00  0.00    +0.015 A 
ATOM     14  C   UNL     1       3.229  -6.746  -6.750  0.00  0.00    +0.018 A 
ATOM     15  C   UNL     1       2.259  -6.211  -7.578  0.00  0.00    +0.015 A 
ATOM     16  C   UNL     1       2.065  -4.843  -7.620  0.00  0.00    +0.006 A 
ATOM     17 BR   UNL     1       3.491  -8.618  -6.686  0.00  0.00    -0.050 Br
ENDBRANCH   3  11
BRANCH   1  21
ATOM     18  C   UNL     1       0.606  -0.607  -1.056  0.00  0.00    +0.124 A 
ATOM     19  C   UNL     1       1.173   0.162  -2.062  0.00  0.00    +0.046 A 
ATOM     20  C   UNL     1       1.787  -0.451  -3.138  0.00  0.00    +0.013 A 
ATOM     21  C   UNL     1       1.837  -1.830  -3.215  0.00  0.00    +0.019 A 
ATOM     22  C   UNL     1       1.272  -2.603  -2.211  0.00  0.00    +0.129 A 
ATOM     23  C   UNL     1       0.660  -1.990  -1.127  0.00  0.00    +0.091 A 
BRANCH  18  25
ATOM     24  C   UNL     1      -0.017   1.425   0.010  0.00  0.00    +0.277 C 
ATOM     25  O   UNL     1       0.002  -0.004   0.002  0.00  0.00    -0.495 OA
ENDBRANCH  18  25
BRANCH  22  26
ATOM     26  O   UNL     1       1.322  -3.959  -2.286  0.00  0.00    -0.495 OA
ATOM     27  C   UNL     1       0.719  -4.691  -1.217  0.00  0.00    +0.277 C 
ENDBRANCH  22  26
ENDBRANCH   1  21
TORSDOF 4
