REMARK  Name = ZINC14017191
REMARK  7 active torsions:
REMARK  status: ('A' for Active; 'I' for Inactive)
REMARK    1  A    between atoms: C_1  and  O_2
REMARK    2  A    between atoms: O_2  and  C_3
REMARK    3  A    between atoms: C_3  and  C_5
REMARK    4  A    between atoms: C_9  and  N_10
REMARK    5  A    between atoms: C_11  and  C_13
REMARK    6  A    between atoms: N_18  and  S_20
REMARK    7  A    between atoms: S_20  and  C_23
REMARK                            x       y       z     vdW  Elec       q    Type
REMARK                         _______ _______ _______ _____ _____    ______ ____
ROOT
ATOM      1  N   UNL     1      -2.631   0.333   5.615  0.00  0.00    -0.279 N 
ATOM      2  C   UNL     1      -2.433  -0.267   4.425  0.00  0.00    +0.222 C 
ATOM      3  O   UNL     1      -3.235  -1.079   4.014  0.00  0.00    -0.275 OA
ATOM      4  H   UNL     1      -1.989   0.982   5.944  0.00  0.00    +0.155 HD
ENDROOT
BRANCH   1   9
ATOM      5  C   UNL     1      -4.125   0.529   7.608  0.00  0.00    +0.091 A 
ATOM      6  C   UNL     1      -5.361   0.033   8.190  0.00  0.00    -0.021 A 
ATOM      7  C   UNL     1      -6.019  -0.884   7.449  0.00  0.00    -0.004 A 
ATOM      8  S   UNL     1      -5.028  -1.087   5.996  0.00  0.00    -0.077 S 
ATOM      9  C   UNL     1      -3.751   0.022   6.370  0.00  0.00    +0.086 A 
ATOM     10  C   UNL     1      -7.307  -1.567   7.791  0.00  0.00    +0.043 C 
ATOM     11  C   UNL     1      -7.586  -1.351   9.286  0.00  0.00    +0.005 C 
ATOM     12  C   UNL     1      -7.391   0.131   9.615  0.00  0.00    +0.005 C 
ATOM     13  C   UNL     1      -5.906   0.490   9.538  0.00  0.00    +0.037 C 
BRANCH   5  14
ATOM     14  C   UNL     1      -3.306   1.527   8.299  0.00  0.00    +0.342 C 
ATOM     15  O   UNL     1      -3.502   2.712   8.108  0.00  0.00    -0.245 OA
BRANCH  14  17
ATOM     16  C   UNL     1      -1.563   2.175   9.798  0.00  0.00    +0.280 C 
ATOM     17  O   UNL     1      -2.336   1.132   9.148  0.00  0.00    -0.464 OA
ENDBRANCH  14  17
ENDBRANCH   5  14
ENDBRANCH   1   9
BRANCH   2  18
ATOM     18  C   UNL     1      -1.215   0.070   3.604  0.00  0.00    +0.091 C 
ATOM     19  C   UNL     1       0.048  -0.269   4.400  0.00  0.00    +0.015 C 
ATOM     20  C   UNL     1       1.285   0.104   3.580  0.00  0.00    +0.018 C 
ATOM     21  C   UNL     1       1.298  -0.716   2.281  0.00  0.00    +0.109 C 
ATOM     22  N   UNL     1       0.024  -0.502   1.581  0.00  0.00    -0.176 NA
ATOM     23  C   UNL     1      -1.230  -0.745   2.307  0.00  0.00    +0.122 C 
BRANCH  22  24
ATOM     24  S   UNL     1       0.002  -0.004   0.002  0.00  0.00    +0.061 S 
ATOM     25  O   UNL     1      -1.243  -0.424  -0.539  0.00  0.00    -0.153 OA
ATOM     26  O   UNL     1       1.248  -0.390  -0.563  0.00  0.00    -0.153 OA
BRANCH  24  27
ATOM     27  C   UNL     1      -0.022   1.758   0.012  0.00  0.00    +0.106 A 
ATOM     28  C   UNL     1      -1.228   2.432   0.021  0.00  0.00    +0.030 A 
ATOM     29  C   UNL     1      -1.248   3.814   0.035  0.00  0.00    +0.022 A 
ATOM     30  C   UNL     1      -0.059   4.523   0.027  0.00  0.00    +0.041 A 
ATOM     31  C   UNL     1       1.148   3.847   0.012  0.00  0.00    +0.022 A 
ATOM     32  C   UNL     1       1.166   2.465   0.004  0.00  0.00    +0.030 A 
ATOM     33 CL   UNL     1      -0.083   6.258   0.036  0.00  0.00    -0.084 Cl
ENDBRANCH  24  27
ENDBRANCH  22  24
ENDBRANCH   2  18
TORSDOF 6
