REMARK  Name = ZINC52288733
REMARK  5 active torsions:
REMARK  status: ('A' for Active; 'I' for Inactive)
REMARK    1  A    between atoms: C_1  and  C_2
REMARK    2  A    between atoms: C_5  and  N_7
REMARK    3  A    between atoms: N_7  and  S_8
REMARK    4  A    between atoms: S_8  and  C_11
REMARK    5  A    between atoms: C_15  and  N_17
REMARK                            x       y       z     vdW  Elec       q    Type
REMARK                         _______ _______ _______ _____ _____    ______ ____
ROOT
ATOM      1  C   UNL     1       2.288  -1.810   3.881  0.00  0.00    +0.107 A 
ATOM      2  C   UNL     1       1.718  -3.056   3.694  0.00  0.00    +0.030 A 
ATOM      3  C   UNL     1       2.499  -4.193   3.771  0.00  0.00    +0.024 A 
ATOM      4  C   UNL     1       3.853  -4.084   4.035  0.00  0.00    +0.071 A 
ATOM      5  C   UNL     1       4.424  -2.838   4.223  0.00  0.00    +0.146 A 
ATOM      6  C   UNL     1       3.642  -1.701   4.140  0.00  0.00    +0.062 A 
ATOM      7 CL   UNL     1       4.836  -5.512   4.132  0.00  0.00    -0.081 Cl
ENDROOT
BRANCH   1   8
ATOM      8  S   UNL     1       1.291  -0.361   3.783  0.00  0.00    +0.059 S 
ATOM      9  O   UNL     1       1.961   0.645   4.530  0.00  0.00    -0.153 OA
ATOM     10  O   UNL     1      -0.041  -0.764   4.072  0.00  0.00    -0.153 OA
BRANCH   8  11
ATOM     11  N   UNL     1       1.303   0.135   2.203  0.00  0.00    -0.187 NA
ATOM     12  H   UNL     1       1.708   0.984   1.964  0.00  0.00    +0.148 HD
BRANCH  11  16
ATOM     13  C   UNL     1      -0.019   1.526   0.010  0.00  0.00    +0.009 C 
ATOM     14  C   UNL     1       0.002  -0.004   0.002  0.00  0.00    +0.006 C 
ATOM     15  C   UNL     1       1.351  -0.691  -0.221  0.00  0.00    +0.025 C 
ATOM     16  C   UNL     1       0.703  -0.708   1.166  0.00  0.00    +0.080 C 
ENDBRANCH  11  16
ENDBRANCH   8  11
ENDBRANCH   1   8
BRANCH   5  17
ATOM     17  N   UNL     1       5.872  -2.721   4.505  0.00  0.00    +0.058 N 
ATOM     18  O   UNL     1       6.370  -1.632   4.669  0.00  0.00    -0.126 OA
ATOM     19  O   UNL     1       6.556  -3.716   4.572  0.00  0.00    -0.126 OA
ENDBRANCH   5  17
TORSDOF 4
