REMARK  Name = ZINC09404731
REMARK  7 active torsions:
REMARK  status: ('A' for Active; 'I' for Inactive)
REMARK    1  A    between atoms: C_1  and  N_2
REMARK    2  A    between atoms: N_2  and  C_3
REMARK    3  A    between atoms: N_2  and  S_9
REMARK    4  A    between atoms: S_9  and  C_12
REMARK    5  A    between atoms: C_15  and  C_18
REMARK    6  A    between atoms: N_20  and  C_21
REMARK    7  A    between atoms: C_22  and  C_31
REMARK                            x       y       z     vdW  Elec       q    Type
REMARK                         _______ _______ _______ _____ _____    ______ ____
ROOT
ATOM      1  C   UNL     1       8.074   2.840   3.530  0.00  0.00    +0.249 C 
ATOM      2  O   UNL     1       9.002   2.274   4.074  0.00  0.00    -0.270 OA
ATOM      3  N   UNL     1       7.748   4.098   3.891  0.00  0.00    -0.275 N 
ATOM      4  H   UNL     1       7.007   4.550   3.457  0.00  0.00    +0.156 HD
ENDROOT
BRANCH   3   5
ATOM      5  C   UNL     1       8.470   4.744   4.881  0.00  0.00    +0.085 A 
ATOM      6  C   UNL     1       8.293   6.025   5.380  0.00  0.00    +0.068 A 
ATOM      7  C   UNL     1       9.190   6.471   6.437  0.00  0.00    -0.023 A 
ATOM      8  C   UNL     1      10.125   5.570   6.807  0.00  0.00    -0.004 A 
ATOM      9  S   UNL     1       9.819   4.151   5.791  0.00  0.00    -0.077 S 
ATOM     10  C   UNL     1      11.198   5.736   7.838  0.00  0.00    +0.043 C 
ATOM     11  C   UNL     1      10.580   6.292   9.127  0.00  0.00    +0.005 C 
ATOM     12  C   UNL     1      10.613   7.815   9.060  0.00  0.00    +0.001 C 
ATOM     13  C   UNL     1      10.439   8.282   7.616  0.00  0.00    +0.005 C 
ATOM     14  C   UNL     1       9.080   7.849   7.077  0.00  0.00    +0.037 C 
BRANCH   6  15
ATOM     15  C   UNL     1       7.235   6.900   4.864  0.00  0.00    +0.244 C 
ATOM     16  O   UNL     1       6.131   6.888   5.376  0.00  0.00    -0.270 OA
ATOM     17  N   UNL     1       7.486   7.717   3.821  0.00  0.00    -0.325 N 
ATOM     18  H   UNL     1       8.365   7.726   3.413  0.00  0.00    +0.145 HD
ATOM     19  H   UNL     1       6.786   8.296   3.480  0.00  0.00    +0.145 HD
ENDBRANCH   6  15
ENDBRANCH   3   5
BRANCH   1  23
ATOM     20  C   UNL     1       5.859   0.859   0.496  0.00  0.00    +0.109 A 
ATOM     21  C   UNL     1       5.525   2.151   0.860  0.00  0.00    +0.029 A 
ATOM     22  C   UNL     1       6.237   2.799   1.848  0.00  0.00    +0.015 A 
ATOM     23  C   UNL     1       7.303   2.151   2.474  0.00  0.00    +0.037 A 
ATOM     24  C   UNL     1       7.638   0.849   2.099  0.00  0.00    +0.015 A 
ATOM     25  C   UNL     1       6.915   0.211   1.113  0.00  0.00    +0.029 A 
BRANCH  20  26
ATOM     26  S   UNL     1       4.941   0.036  -0.763  0.00  0.00    +0.074 S 
ATOM     27  O   UNL     1       5.843  -0.851  -1.410  0.00  0.00    -0.150 OA
ATOM     28  O   UNL     1       4.226   1.043  -1.466  0.00  0.00    -0.150 OA
BRANCH  26  30
ATOM     29  C   UNL     1       4.144  -2.277   0.389  0.00  0.00    +0.157 C 
ATOM     30  N   UNL     1       3.809  -0.907  -0.006  0.00  0.00    -0.206 N 
BRANCH  30  31
ATOM     31  C   UNL     1       2.535  -0.397   0.254  0.00  0.00    +0.051 A 
ATOM     32  C   UNL     1       1.450  -1.256   0.363  0.00  0.00    +0.025 A 
ATOM     33  C   UNL     1       0.192  -0.748   0.620  0.00  0.00    +0.002 A 
ATOM     34  C   UNL     1       0.012   0.615   0.769  0.00  0.00    +0.000 A 
ATOM     35  C   UNL     1       1.091   1.474   0.662  0.00  0.00    +0.002 A 
ATOM     36  C   UNL     1       2.352   0.972   0.404  0.00  0.00    +0.025 A 
ENDBRANCH  30  31
ENDBRANCH  26  30
ENDBRANCH  20  26
ENDBRANCH   1  23
TORSDOF 6
