REMARK  Name = ZINC12421325
REMARK  13 active torsions:
REMARK  status: ('A' for Active; 'I' for Inactive)
REMARK    1  A    between atoms: C_1  and  N_56
REMARK    2  A    between atoms: C_2  and  N_56
REMARK    3  A    between atoms: C_3  and  C_4
REMARK    4  A    between atoms: C_3  and  N_56
REMARK    5  A    between atoms: C_4  and  N_5
REMARK    6  A    between atoms: N_5  and  C_6
REMARK    7  A    between atoms: C_7  and  C_29
REMARK    8  A    between atoms: C_9  and  C_11
REMARK    9  A    between atoms: C_14  and  S_17
REMARK   10  A    between atoms: S_17  and  N_20
REMARK   11  A    between atoms: N_20  and  C_21
REMARK   12  A    between atoms: N_20  and  C_22
REMARK   13  A    between atoms: C_22  and  C_23
REMARK                            x       y       z     vdW  Elec       q    Type
REMARK                         _______ _______ _______ _____ _____    ______ ____
ROOT
ATOM      1  C   UNL     1      -1.230   1.759   0.017  0.00  0.00    +0.037 A 
ATOM      2  C   UNL     1      -0.013   1.076   0.008  0.00  0.00    +0.015 A 
ATOM      3  C   UNL     1       1.172   1.783   0.000  0.00  0.00    +0.029 A 
ATOM      4  C   UNL     1       1.155   3.167   0.008  0.00  0.00    +0.106 A 
ATOM      5  C   UNL     1      -0.048   3.850   0.023  0.00  0.00    +0.029 A 
ATOM      6  C   UNL     1      -1.240   3.155   0.031  0.00  0.00    +0.015 A 
ENDROOT
BRANCH   1  10
ATOM      7  C   UNL     1      -4.639   0.568   0.027  0.00  0.00    +0.225 A 
ATOM      8  C   UNL     1      -3.928  -0.623   0.017  0.00  0.00    +0.201 A 
ATOM      9  N   UNL     1      -2.609  -0.296   0.012  0.00  0.00    -0.196 NA
ATOM     10  C   UNL     1      -2.502   1.008   0.019  0.00  0.00    +0.231 A 
ATOM     11  O   UNL     1      -3.731   1.560   0.033  0.00  0.00    -0.421 OA
BRANCH   7  12
ATOM     12  N   UNL     1      -6.010   0.707   0.034  0.00  0.00    -0.315 N 
ATOM     13  H   UNL     1      -6.577  -0.080   0.032  0.00  0.00    +0.149 HD
BRANCH  12  14
ATOM     14  C   UNL     1      -6.610   2.043   0.044  0.00  0.00    +0.086 C 
BRANCH  14  15
ATOM     15  C   UNL     1      -8.135   1.917   0.050  0.00  0.00    -0.061 C 
BRANCH  15  18
ATOM     16  C   UNL     1      -8.450   3.973  -1.190  0.00  0.00    -0.097 C 
ATOM     17  C   UNL     1     -10.184   3.183   0.305  0.00  0.00    -0.097 C 
ATOM     18  N   UNL     1      -8.725   3.272   0.082  0.00  0.00    +0.377 N 
ATOM     19  H   UNL     1      -8.302   3.802   0.853  0.00  0.00    -0.083 HD
ENDBRANCH  15  18
ENDBRANCH  14  15
ENDBRANCH  12  14
ENDBRANCH   7  12
BRANCH   8  20
ATOM     20  C   UNL     1      -4.479  -1.945   0.012  0.00  0.00    +0.124 C 
ATOM     21  N   UNL     1      -4.915  -2.994   0.009  0.00  0.00    -0.189 NA
ENDBRANCH   8  20
ENDBRANCH   1  10
BRANCH   4  22
ATOM     22  S   UNL     1       2.672   4.063  -0.003  0.00  0.00    +0.061 S 
ATOM     23  O   UNL     1       2.394   5.339   0.557  0.00  0.00    -0.153 OA
ATOM     24  O   UNL     1       3.660   3.194   0.533  0.00  0.00    -0.153 OA
BRANCH  22  25
ATOM     25  N   UNL     1       3.078   4.320  -1.588  0.00  0.00    -0.175 NA
ATOM     26  C   UNL     1       3.902   3.341  -2.301  0.00  0.00    +0.132 C 
BRANCH  25  27
ATOM     27  C   UNL     1       2.612   5.526  -2.277  0.00  0.00    +0.144 C 
BRANCH  27  28
ATOM     28  C   UNL     1       3.679   6.588  -2.206  0.00  0.00    -0.032 A 
ATOM     29  C   UNL     1       3.695   7.482  -1.153  0.00  0.00    +0.005 A 
ATOM     30  C   UNL     1       4.676   8.453  -1.085  0.00  0.00    +0.000 A 
ATOM     31  C   UNL     1       5.635   8.537  -2.077  0.00  0.00    +0.000 A 
ATOM     32  C   UNL     1       5.616   7.646  -3.134  0.00  0.00    +0.000 A 
ATOM     33  C   UNL     1       4.638   6.671  -3.198  0.00  0.00    +0.005 A 
ENDBRANCH  27  28
ENDBRANCH  25  27
ENDBRANCH  22  25
ENDBRANCH   4  22
TORSDOF 10
