REMARK  Name = ZINC01597703
REMARK  2 active torsions:
REMARK  status: ('A' for Active; 'I' for Inactive)
REMARK    1  A    between atoms: C_4  and  C_7
REMARK    2  A    between atoms: C_8  and  C_9
REMARK                            x       y       z     vdW  Elec       q    Type
REMARK                         _______ _______ _______ _____ _____    ______ ____
ROOT
ATOM      1  C   UNL     1      -1.865  -1.289  -0.942  0.00  0.00    +0.008 C 
ATOM      2  C   UNL     1      -1.411  -0.526   0.043  0.00  0.00    +0.034 C 
ENDROOT
BRANCH   1   6
ATOM      3  C   UNL     1      -5.848  -2.759  -0.828  0.00  0.00    +0.000 A 
ATOM      4  C   UNL     1      -5.026  -3.078  -1.894  0.00  0.00    +0.001 A 
ATOM      5  C   UNL     1      -3.731  -2.604  -1.937  0.00  0.00    +0.008 A 
ATOM      6  C   UNL     1      -3.251  -1.801  -0.902  0.00  0.00    -0.025 A 
ATOM      7  C   UNL     1      -4.083  -1.487   0.173  0.00  0.00    +0.008 A 
ATOM      8  C   UNL     1      -5.378  -1.962   0.201  0.00  0.00    +0.001 A 
ENDBRANCH   1   6
BRANCH   2   9
ATOM      9  C   UNL     1       0.002  -0.004   0.002  0.00  0.00    +0.275 C 
ATOM     10  O   UNL     1      -0.017   1.425   0.010  0.00  0.00    -0.348 OA
ATOM     11  C   UNL     1       1.284   2.020   0.001  0.00  0.00    +0.165 C 
ATOM     12  C   UNL     1       2.068   1.521   1.220  0.00  0.00    +0.056 C 
ATOM     13  C   UNL     1       2.069  -0.012   1.213  0.00  0.00    +0.165 C 
ATOM     14  O   UNL     1       0.718  -0.477   1.146  0.00  0.00    -0.348 OA
ENDBRANCH   2   9
TORSDOF 2
