REMARK  Name = ZINC04044459
REMARK  6 active torsions:
REMARK  status: ('A' for Active; 'I' for Inactive)
REMARK    1  A    between atoms: C_1  and  O_2
REMARK    2  A    between atoms: O_2  and  C_3
REMARK    3  A    between atoms: C_7  and  N_9
REMARK    4  A    between atoms: C_13  and  N_52
REMARK    5  A    between atoms: N_19  and  C_22
REMARK    6  A    between atoms: C_25  and  N_28
REMARK                            x       y       z     vdW  Elec       q    Type
REMARK                         _______ _______ _______ _____ _____    ______ ____
ROOT
ATOM      1  C   UNL     1       6.983  -3.390   1.265  0.00  0.00    -0.059 C 
ATOM      2  C   UNL     1       7.354  -4.034   2.603  0.00  0.00    +0.086 C 
ATOM      3  N   UNL     1       6.566  -5.260   2.789  0.00  0.00    -0.333 N 
ATOM      4  C   UNL     1       5.126  -4.966   2.772  0.00  0.00    +0.086 C 
ATOM      5  C   UNL     1       4.755  -4.322   1.434  0.00  0.00    -0.059 C 
ATOM      6  N   UNL     1       5.538  -3.079   1.270  0.00  0.00    +0.390 N 
ATOM      7  H   UNL     1       5.334  -2.451   2.056  0.00  0.00    -0.081 HD
ENDROOT
BRANCH   6  12
ATOM      8  N   UNL     1       3.623  -0.661  -0.036  0.00  0.00    -0.212 N 
ATOM      9  C   UNL     1       4.803  -0.039  -0.147  0.00  0.00    +0.225 C 
ATOM     10  O   UNL     1       4.958   1.160  -0.247  0.00  0.00    -0.275 OA
ATOM     11  C   UNL     1       5.913  -1.067  -0.127  0.00  0.00    +0.090 C 
ATOM     12  C   UNL     1       5.161  -2.407   0.008  0.00  0.00    +0.029 C 
ATOM     13  C   UNL     1       3.706  -1.994   0.055  0.00  0.00    +0.213 C 
ATOM     14  O   UNL     1       2.764  -2.751   0.158  0.00  0.00    -0.277 OA
BRANCH   8  19
ATOM     15  C   UNL     1       0.305   0.566  -1.059  0.00  0.00    +0.122 A 
ATOM     16  C   UNL     1      -0.011   1.387   0.015  0.00  0.00    +0.046 A 
ATOM     17  C   UNL     1       0.876   1.526   1.065  0.00  0.00    +0.005 A 
ATOM     18  C   UNL     1       2.080   0.849   1.050  0.00  0.00    +0.024 A 
ATOM     19  C   UNL     1       2.401   0.026  -0.021  0.00  0.00    +0.047 A 
ATOM     20  C   UNL     1       1.512  -0.115  -1.077  0.00  0.00    +0.069 A 
BRANCH  15  22
ATOM     21  C   UNL     1      -1.793   1.161  -2.006  0.00  0.00    +0.277 C 
ATOM     22  O   UNL     1      -0.568   0.430  -2.091  0.00  0.00    -0.495 OA
ENDBRANCH  15  22
ENDBRANCH   8  19
ENDBRANCH   6  12
BRANCH   3  23
ATOM     23  C   UNL     1       6.929  -5.915   3.968  0.00  0.00    +0.030 A 
ATOM     24  C   UNL     1       5.970  -6.194   4.933  0.00  0.00    +0.025 A 
ATOM     25  C   UNL     1       6.332  -6.847   6.095  0.00  0.00    +0.034 A 
ATOM     26  C   UNL     1       7.649  -7.212   6.304  0.00  0.00    +0.126 A 
ATOM     27  C   UNL     1       8.607  -6.930   5.348  0.00  0.00    +0.034 A 
ATOM     28  C   UNL     1       8.252  -6.283   4.181  0.00  0.00    +0.025 A 
BRANCH  26  29
ATOM     29  N   UNL     1       8.034  -7.905   7.554  0.00  0.00    +0.056 N 
ATOM     30  O   UNL     1       9.194  -8.226   7.739  0.00  0.00    -0.126 OA
ATOM     31  O   UNL     1       7.191  -8.154   8.397  0.00  0.00    -0.126 OA
ENDBRANCH  26  29
ENDBRANCH   3  23
TORSDOF 5
