REMARK  Name = ZINC66952213
REMARK  7 active torsions:
REMARK  status: ('A' for Active; 'I' for Inactive)
REMARK    1  A    between atoms: C_1  and  C_2
REMARK    2  A    between atoms: C_5  and  C_24
REMARK    3  A    between atoms: C_7  and  N_8
REMARK    4  A    between atoms: N_11  and  C_12
REMARK    5  A    between atoms: C_12  and  C_13
REMARK    6  A    between atoms: C_13  and  O_23
REMARK    7  A    between atoms: N_26  and  C_27
REMARK                            x       y       z     vdW  Elec       q    Type
REMARK                         _______ _______ _______ _____ _____    ______ ____
ROOT
ATOM      1  N   UNL     1       0.030  -0.006   2.418  0.00  0.00    -0.269 N 
ATOM      2  C   UNL     1      -0.054  -0.682   3.581  0.00  0.00    +0.304 C 
ATOM      3  O   UNL     1      -0.041  -1.898   3.580  0.00  0.00    -0.253 OA
ATOM      4  N   UNL     1      -0.153  -0.010   4.745  0.00  0.00    -0.296 N 
ATOM      5  H   UNL     1       0.084   0.962   2.422  0.00  0.00    +0.156 HD
ATOM      6  H   UNL     1      -0.164   0.960   4.746  0.00  0.00    +0.150 HD
ENDROOT
BRANCH   1  13
ATOM      7  C   UNL     1      -1.256   1.187   0.183  0.00  0.00    +0.045 C 
ATOM      8  C   UNL     1      -0.579  -0.155   0.085  0.00  0.00    -0.029 A 
ATOM      9  C   UNL     1      -0.569  -0.836  -1.118  0.00  0.00    +0.006 A 
ATOM     10  C   UNL     1       0.049  -2.066  -1.215  0.00  0.00    +0.013 A 
ATOM     11  C   UNL     1       0.666  -2.627  -0.096  0.00  0.00    +0.038 A 
ATOM     12  C   UNL     1       0.657  -1.940   1.118  0.00  0.00    +0.036 A 
ATOM     13  C   UNL     1       0.038  -0.702   1.203  0.00  0.00    +0.038 A 
BRANCH  11  14
ATOM     14  C   UNL     1       1.329  -3.945  -0.197  0.00  0.00    +0.244 C 
ATOM     15  O   UNL     1       1.866  -4.432   0.779  0.00  0.00    -0.270 OA
ATOM     16  N   UNL     1       1.337  -4.607  -1.370  0.00  0.00    -0.308 N 
ATOM     17  H   UNL     1       0.908  -4.219  -2.149  0.00  0.00    +0.149 HD
BRANCH  16  18
ATOM     18  C   UNL     1       1.993  -5.913  -1.470  0.00  0.00    +0.073 C 
ATOM     19  C   UNL     1       2.865  -6.174  -2.700  0.00  0.00    +0.024 C 
ATOM     20  C   UNL     1       1.507  -6.866  -2.565  0.00  0.00    +0.024 C 
ENDBRANCH  16  18
ENDBRANCH  11  14
ENDBRANCH   1  13
BRANCH   4  21
ATOM     21  C   UNL     1      -0.245  -0.744   6.010  0.00  0.00    +0.145 C 
BRANCH  21  22
ATOM     22  C   UNL     1      -0.473   0.242   7.157  0.00  0.00    +0.107 C 
ATOM     23  C   UNL     1      -1.691   1.109   6.841  0.00  0.00    +0.041 C 
ATOM     24  C   UNL     1      -2.034   1.934   8.087  0.00  0.00    +0.008 C 
ATOM     25  C   UNL     1      -2.582   0.989   9.154  0.00  0.00    +0.035 C 
ATOM     26  C   UNL     1      -1.652  -0.179   9.355  0.00  0.00    -0.041 A 
ATOM     27  C   UNL     1      -0.686  -0.524   8.436  0.00  0.00    -0.011 A 
ATOM     28  C   UNL     1       0.135  -1.618   8.679  0.00  0.00    +0.007 A 
ATOM     29  C   UNL     1      -0.007  -2.358   9.834  0.00  0.00    +0.000 A 
ATOM     30  C   UNL     1      -0.973  -2.009  10.759  0.00  0.00    +0.000 A 
ATOM     31  C   UNL     1      -1.792  -0.924  10.518  0.00  0.00    +0.004 A 
BRANCH  22  32
ATOM     32  O   UNL     1       0.676   1.079   7.295  0.00  0.00    -0.382 OA
ATOM     33  H   UNL     1       1.492   0.598   7.488  0.00  0.00    +0.211 HD
ENDBRANCH  22  32
ENDBRANCH  21  22
ENDBRANCH   4  21
TORSDOF 6
