REMARK  Name = ZINC41586186
REMARK  9 active torsions:
REMARK  status: ('A' for Active; 'I' for Inactive)
REMARK    1  A    between atoms: C_1  and  C_2
REMARK    2  A    between atoms: C_2  and  O_3
REMARK    3  A    between atoms: O_3  and  C_4
REMARK    4  A    between atoms: C_4  and  C_6
REMARK    5  A    between atoms: N_9  and  C_12
REMARK    6  A    between atoms: C_12  and  C_13
REMARK    7  A    between atoms: C_14  and  O_32
REMARK    8  A    between atoms: C_16  and  C_31
REMARK    9  A    between atoms: C_21  and  C_22
REMARK                            x       y       z     vdW  Elec       q    Type
REMARK                         _______ _______ _______ _____ _____    ______ ____
ROOT
ATOM      1  C   UNL     1       4.486  -6.122   4.338  0.00  0.00    +0.020 A 
ATOM      2  C   UNL     1       3.650  -6.940   5.081  0.00  0.00    +0.122 A 
ATOM      3  C   UNL     1       3.914  -8.302   5.199  0.00  0.00    +0.050 A 
ATOM      4  C   UNL     1       5.005  -8.846   4.582  0.00  0.00    -0.033 A 
ATOM      5  C   UNL     1       5.855  -8.034   3.830  0.00  0.00    +0.071 A 
ATOM      6  C   UNL     1       5.595  -6.660   3.699  0.00  0.00    +0.145 A 
ATOM      7  O   UNL     1       6.545  -6.088   2.926  0.00  0.00    -0.451 OA
ATOM      8  C   UNL     1       7.459  -6.992   2.500  0.00  0.00    +0.176 C 
ATOM      9  C   UNL     1       8.532  -6.735   1.713  0.00  0.00    +0.058 C 
ATOM     10  C   UNL     1       7.082  -8.300   3.059  0.00  0.00    +0.232 C 
ATOM     11  O   UNL     1       7.652  -9.367   2.908  0.00  0.00    -0.283 OA
ATOM     12  C   UNL     1       5.289 -10.320   4.712  0.00  0.00    +0.045 C 
ENDROOT
BRANCH   9  13
ATOM     13  C   UNL     1       9.342  -7.845   1.190  0.00  0.00    -0.020 A 
ATOM     14  C   UNL     1       8.723  -9.017   0.742  0.00  0.00    +0.008 A 
ATOM     15  C   UNL     1       9.490 -10.053   0.253  0.00  0.00    +0.002 A 
ATOM     16  C   UNL     1      10.868  -9.937   0.204  0.00  0.00    +0.015 A 
ATOM     17  C   UNL     1      11.489  -8.780   0.646  0.00  0.00    +0.018 A 
ATOM     18  C   UNL     1      10.736  -7.732   1.133  0.00  0.00    +0.023 A 
ATOM     19 BR   UNL     1      13.373  -8.635   0.576  0.00  0.00    -0.050 Br
ENDBRANCH   9  13
BRANCH   2  20
ATOM     20  O   UNL     1       2.564  -6.409   5.699  0.00  0.00    -0.506 OA
ATOM     21  H   UNL     1       1.763  -6.412   5.158  0.00  0.00    +0.292 HD
ENDBRANCH   2  20
BRANCH   1  22
ATOM     22  C   UNL     1       4.187  -4.650   4.218  0.00  0.00    -0.036 C 
BRANCH  22  26
ATOM     23  C   UNL     1       0.934  -3.409   1.762  0.00  0.00    +0.094 C 
ATOM     24  C   UNL     1       2.296  -2.726   1.609  0.00  0.00    -0.004 C 
ATOM     25  C   UNL     1       3.130  -2.975   2.868  0.00  0.00    -0.078 C 
ATOM     26  N   UNL     1       3.322  -4.418   3.054  0.00  0.00    +0.383 N 
ATOM     27  C   UNL     1       2.025  -5.070   3.273  0.00  0.00    -0.078 C 
ATOM     28  C   UNL     1       1.149  -4.901   2.030  0.00  0.00    -0.004 C 
ATOM     29  H   UNL     1       3.758  -4.808   2.231  0.00  0.00    -0.081 HD
BRANCH  23  30
ATOM     30  C   UNL     1       0.137  -3.234   0.495  0.00  0.00    +0.310 C 
ATOM     31  O   UNL     1      -0.223  -4.202  -0.131  0.00  0.00    -0.251 OA
BRANCH  30  32
ATOM     32  O   UNL     1      -0.173  -2.002   0.062  0.00  0.00    -0.465 OA
BRANCH  32  34
ATOM     33  C   UNL     1      -1.185  -0.438  -1.479  0.00  0.00    +0.048 C 
ATOM     34  C   UNL     1      -0.930  -1.910  -1.147  0.00  0.00    +0.229 C 
ENDBRANCH  32  34
ENDBRANCH  30  32
ENDBRANCH  23  30
ENDBRANCH  22  26
ENDBRANCH   1  22
TORSDOF 7
