REMARK  Name = ZINC16478524
REMARK  4 active torsions:
REMARK  status: ('A' for Active; 'I' for Inactive)
REMARK    1  A    between atoms: C_4  and  C_7
REMARK    2  A    between atoms: N_18  and  N_19
REMARK    3  A    between atoms: N_19  and  S_20
REMARK    4  A    between atoms: S_20  and  C_23
REMARK                            x       y       z     vdW  Elec       q    Type
REMARK                         _______ _______ _______ _____ _____    ______ ____
ROOT
ATOM      1  C   UNL     1      -2.292   9.828  -3.537  0.00  0.00    +0.144 C 
ATOM      2  C   UNL     1      -3.127   9.341  -4.689  0.00  0.00    +0.000 A 
ATOM      3  C   UNL     1      -3.610  10.238  -5.624  0.00  0.00    +0.008 A 
ATOM      4  C   UNL     1      -4.381   9.790  -6.680  0.00  0.00    +0.000 A 
ATOM      5  C   UNL     1      -4.674   8.444  -6.808  0.00  0.00    +0.002 A 
ATOM      6  C   UNL     1      -4.194   7.542  -5.878  0.00  0.00    +0.023 A 
ATOM      7  C   UNL     1      -3.419   7.990  -4.819  0.00  0.00    +0.039 A 
ATOM      8  N   UNL     1      -2.913   7.089  -3.878  0.00  0.00    -0.288 N 
ATOM      9  C   UNL     1      -1.886   7.486  -3.053  0.00  0.00    +0.174 C 
ATOM     10  N   UNL     1      -1.582   8.732  -2.893  0.00  0.00    -0.349 N 
ATOM     11  N   UNL     1      -1.159   6.529  -2.383  0.00  0.00    -0.235 N 
ATOM     12  H   UNL     1      -3.335   6.076  -3.803  0.00  0.00    +0.155 HD
ATOM     13  H   UNL     1      -1.405   5.464  -2.508  0.00  0.00    +0.170 HD
ATOM     14  H   UNL     1      -0.744   9.014  -2.239  0.00  0.00    +0.163 HD
ENDROOT
BRANCH   1  18
ATOM     15  C   UNL     1       0.548  12.673  -4.981  0.00  0.00    +0.000 A 
ATOM     16  C   UNL     1      -0.629  13.106  -4.399  0.00  0.00    +0.000 A 
ATOM     17  C   UNL     1      -1.548  12.185  -3.931  0.00  0.00    +0.006 A 
ATOM     18  C   UNL     1      -1.290  10.832  -4.047  0.00  0.00    -0.021 A 
ATOM     19  C   UNL     1      -0.111  10.399  -4.625  0.00  0.00    +0.006 A 
ATOM     20  C   UNL     1       0.806  11.320  -5.096  0.00  0.00    +0.000 A 
ENDBRANCH   1  18
BRANCH  11  21
ATOM     21  N   UNL     1      -0.106   6.911  -1.542  0.00  0.00    -0.108 NA
ATOM     22  H   UNL     1       0.633   7.485  -1.896  0.00  0.00    +0.172 HD
BRANCH  21  23
ATOM     23  S   UNL     1      -0.085   6.413   0.037  0.00  0.00    +0.074 S 
ATOM     24  O   UNL     1      -1.331   6.799   0.601  0.00  0.00    -0.152 OA
ATOM     25  O   UNL     1       1.160   6.833   0.579  0.00  0.00    -0.152 OA
BRANCH  23  26
ATOM     26  C   UNL     1      -0.061   4.651   0.027  0.00  0.00    +0.107 A 
ATOM     27  C   UNL     1       1.145   3.977   0.013  0.00  0.00    +0.029 A 
ATOM     28  C   UNL     1       1.165   2.595   0.005  0.00  0.00    +0.017 A 
ATOM     29  C   UNL     1      -0.024   1.887   0.012  0.00  0.00    +0.018 A 
ATOM     30  C   UNL     1      -1.231   2.562   0.022  0.00  0.00    +0.017 A 
ATOM     31  C   UNL     1      -1.249   3.944   0.035  0.00  0.00    +0.029 A 
ATOM     32 BR   UNL     1       0.002  -0.004   0.002  0.00  0.00    -0.050 Br
ENDBRANCH  23  26
ENDBRANCH  21  23
ENDBRANCH  11  21
TORSDOF 4
