REMARK  Name = ZINC08749234
REMARK  8 active torsions:
REMARK  status: ('A' for Active; 'I' for Inactive)
REMARK    1  A    between atoms: C_1  and  C_2
REMARK    2  A    between atoms: C_7  and  C_9
REMARK    3  A    between atoms: C_7  and  C_30
REMARK    4  A    between atoms: C_7  and  N_65
REMARK    5  A    between atoms: C_9  and  N_10
REMARK    6  A    between atoms: C_11  and  C_13
REMARK    7  A    between atoms: N_18  and  S_20
REMARK    8  A    between atoms: S_20  and  C_23
REMARK                            x       y       z     vdW  Elec       q    Type
REMARK                         _______ _______ _______ _____ _____    ______ ____
ROOT
ATOM      1  N   UNL     1      -3.072   5.854   3.226  0.00  0.00    -0.316 N 
ATOM      2  C   UNL     1      -2.068   4.975   3.030  0.00  0.00    +0.217 C 
ATOM      3  O   UNL     1      -0.931   5.278   3.323  0.00  0.00    -0.275 OA
ATOM      4  H   UNL     1      -3.981   5.611   2.992  0.00  0.00    +0.149 HD
ENDROOT
BRANCH   2   5
ATOM      5  C   UNL     1      -2.360   3.616   2.448  0.00  0.00    +0.091 C 
ATOM      6  C   UNL     1      -3.334   2.867   3.361  0.00  0.00    +0.015 C 
ATOM      7  C   UNL     1      -3.656   1.500   2.754  0.00  0.00    +0.018 C 
ATOM      8  C   UNL     1      -2.368   0.678   2.644  0.00  0.00    +0.109 C 
ATOM      9  N   UNL     1      -1.375   1.455   1.889  0.00  0.00    -0.176 NA
ATOM     10  C   UNL     1      -1.053   2.816   2.337  0.00  0.00    +0.122 C 
BRANCH   9  11
ATOM     11  S   UNL     1      -0.628   0.805   0.561  0.00  0.00    +0.061 S 
ATOM     12  O   UNL     1      -0.690  -0.607   0.711  0.00  0.00    -0.153 OA
ATOM     13  O   UNL     1       0.601   1.502   0.405  0.00  0.00    -0.153 OA
BRANCH  11  14
ATOM     14  C   UNL     1      -1.616   1.207  -0.841  0.00  0.00    +0.106 A 
ATOM     15  C   UNL     1      -2.620   0.348  -1.248  0.00  0.00    +0.031 A 
ATOM     16  C   UNL     1      -3.399   0.665  -2.345  0.00  0.00    +0.040 A 
ATOM     17  C   UNL     1      -3.166   1.837  -3.043  0.00  0.00    +0.124 A 
ATOM     18  C   UNL     1      -2.156   2.694  -2.638  0.00  0.00    +0.040 A 
ATOM     19  C   UNL     1      -1.383   2.378  -1.538  0.00  0.00    +0.031 A 
ATOM     20  F   UNL     1      -3.923   2.146  -4.119  0.00  0.00    -0.205 F 
ENDBRANCH  11  14
ENDBRANCH   9  11
ENDBRANCH   2   5
BRANCH   1  21
ATOM     21  C   UNL     1      -2.788   7.175   3.792  0.00  0.00    +0.094 C 
BRANCH  21  22
ATOM     22  C   UNL     1      -4.067   8.014   3.794  0.00  0.00    -0.013 C 
BRANCH  22  29
ATOM     23  C   UNL     1      -5.929   9.194  -1.480  0.00  0.00    +0.007 C 
ATOM     24  C   UNL     1      -5.321   9.316  -0.081  0.00  0.00    -0.018 C 
ATOM     25  C   UNL     1      -4.131   8.361   0.045  0.00  0.00    -0.015 C 
ATOM     26  C   UNL     1      -3.566   8.442   1.465  0.00  0.00    -0.078 C 
ATOM     27  C   UNL     1      -5.744   9.013   2.361  0.00  0.00    -0.078 C 
ATOM     28  C   UNL     1      -6.374   8.948   0.968  0.00  0.00    -0.015 C 
ATOM     29  N   UNL     1      -4.621   8.053   2.425  0.00  0.00    +0.386 N 
ATOM     30  H   UNL     1      -4.967   7.119   2.178  0.00  0.00    -0.081 HD
ENDBRANCH  22  29
BRANCH  22  31
ATOM     31  C   UNL     1      -3.754   9.406   4.279  0.00  0.00    -0.022 A 
ATOM     32  C   UNL     1      -3.950   9.947   5.506  0.00  0.00    +0.009 A 
ATOM     33  C   UNL     1      -3.579  11.260   5.728  0.00  0.00    +0.008 A 
ATOM     34  C   UNL     1      -3.039  11.971   4.708  0.00  0.00    +0.045 A 
ATOM     35  S   UNL     1      -3.036  10.774   3.384  0.00  0.00    -0.103 S 
ENDBRANCH  22  31
ENDBRANCH  21  22
ENDBRANCH   1  21
TORSDOF 7
