REMARK  Name = ZINC02108596
REMARK  10 active torsions:
REMARK  status: ('A' for Active; 'I' for Inactive)
REMARK    1  A    between atoms: C_1  and  C_2
REMARK    2  A    between atoms: C_2  and  O_3
REMARK    3  A    between atoms: O_3  and  C_4
REMARK    4  A    between atoms: C_4  and  C_6
REMARK    5  A    between atoms: C_10  and  N_11
REMARK    6  A    between atoms: N_11  and  C_12
REMARK    7  A    between atoms: C_12  and  N_14
REMARK    8  A    between atoms: C_15  and  C_17
REMARK    9  A    between atoms: C_20  and  C_22
REMARK   10  A    between atoms: C_22  and  N_23
REMARK                            x       y       z     vdW  Elec       q    Type
REMARK                         _______ _______ _______ _____ _____    ______ ____
ROOT
ATOM      1  C   UNL     1      -1.120  -2.779  -5.122  0.00  0.00    +0.142 C 
ATOM      2  S   UNL     1      -0.103  -3.406  -6.349  0.00  0.00    -0.018 S 
ENDROOT
BRANCH   1   3
ATOM      3  N   UNL     1      -2.436  -2.613  -5.358  0.00  0.00    -0.261 N 
ATOM      4  C   UNL     1      -2.952  -2.941  -6.560  0.00  0.00    +0.285 C 
ATOM      5  O   UNL     1      -2.230  -3.386  -7.431  0.00  0.00    -0.266 OA
ATOM      6  H   UNL     1      -3.013  -2.258  -4.663  0.00  0.00    +0.157 HD
BRANCH   4   7
ATOM      7  C   UNL     1      -4.384  -2.760  -6.816  0.00  0.00    +0.190 A 
ATOM      8  C   UNL     1      -5.034  -3.054  -7.981  0.00  0.00    +0.055 A 
ATOM      9  C   UNL     1      -6.384  -2.727  -7.783  0.00  0.00    +0.047 A 
ATOM     10  C   UNL     1      -6.498  -2.252  -6.522  0.00  0.00    +0.127 A 
ATOM     11  O   UNL     1      -5.292  -2.279  -5.941  0.00  0.00    -0.453 OA
BRANCH  10  12
ATOM     12  C   UNL     1      -7.773  -1.777  -5.875  0.00  0.00    +0.217 C 
BRANCH  12  13
ATOM     13  N   UNL     1      -8.430  -2.902  -5.206  0.00  0.00    -0.263 N 
ATOM     14  C   UNL     1      -8.804  -2.947  -3.909  0.00  0.00    +0.128 A 
ATOM     15  C   UNL     1      -9.374  -4.154  -3.685  0.00  0.00    +0.078 A 
ATOM     16  C   UNL     1      -9.346  -4.872  -4.886  0.00  0.00    +0.154 A 
ATOM     17  N   UNL     1      -8.786  -4.120  -5.799  0.00  0.00    -0.178 NA
ATOM     18 CL   UNL     1     -10.022  -4.714  -2.175  0.00  0.00    -0.080 Cl
ENDBRANCH  12  13
ENDBRANCH  10  12
ENDBRANCH   4   7
ENDBRANCH   1   3
BRANCH   1  19
ATOM     19  N   UNL     1      -0.604  -2.452  -3.921  0.00  0.00    -0.290 N 
ATOM     20  H   UNL     1      -1.180  -2.097  -3.226  0.00  0.00    +0.154 HD
BRANCH  19  25
ATOM     21  C   UNL     1       1.449  -2.344  -2.516  0.00  0.00    +0.091 A 
ATOM     22  C   UNL     1       2.880  -2.619  -2.513  0.00  0.00    -0.021 A 
ATOM     23  C   UNL     1       3.344  -3.113  -3.679  0.00  0.00    -0.004 A 
ATOM     24  S   UNL     1       1.919  -3.213  -4.728  0.00  0.00    -0.077 S 
ATOM     25  C   UNL     1       0.749  -2.623  -3.679  0.00  0.00    +0.086 A 
ATOM     26  C   UNL     1       4.754  -3.482  -4.020  0.00  0.00    +0.043 C 
ATOM     27  C   UNL     1       5.328  -4.362  -2.901  0.00  0.00    +0.005 C 
ATOM     28  C   UNL     1       5.969  -3.458  -1.852  0.00  0.00    +0.001 C 
ATOM     29  C   UNL     1       5.205  -2.139  -1.754  0.00  0.00    +0.005 C 
ATOM     30  C   UNL     1       3.769  -2.386  -1.301  0.00  0.00    +0.037 C 
BRANCH  21  31
ATOM     31  C   UNL     1       0.776  -1.800  -1.335  0.00  0.00    +0.342 C 
ATOM     32  O   UNL     1       0.312  -2.552  -0.499  0.00  0.00    -0.245 OA
BRANCH  31  33
ATOM     33  O   UNL     1       0.671  -0.465  -1.174  0.00  0.00    -0.461 OA
BRANCH  33  35
ATOM     34  C   UNL     1      -0.019   1.526   0.010  0.00  0.00    +0.048 C 
ATOM     35  C   UNL     1       0.002  -0.004   0.002  0.00  0.00    +0.229 C 
ENDBRANCH  33  35
ENDBRANCH  31  33
ENDBRANCH  21  31
ENDBRANCH  19  25
ENDBRANCH   1  19
TORSDOF 9
