REMARK  Name = ZINC12599355
REMARK  10 active torsions:
REMARK  status: ('A' for Active; 'I' for Inactive)
REMARK    1  A    between atoms: C_1  and  C_2
REMARK    2  A    between atoms: C_5  and  C_7
REMARK    3  A    between atoms: C_7  and  C_8
REMARK    4  A    between atoms: N_10  and  N_11
REMARK    5  A    between atoms: C_12  and  C_14
REMARK    6  A    between atoms: C_14  and  C_16
REMARK    7  A    between atoms: C_14  and  S_17
REMARK    8  A    between atoms: S_17  and  C_18
REMARK    9  A    between atoms: C_18  and  C_19
REMARK   10  A    between atoms: C_25  and  C_30
REMARK                            x       y       z     vdW  Elec       q    Type
REMARK                         _______ _______ _______ _____ _____    ______ ____
ROOT
ATOM      1  S   UNL     1     -10.404  -0.671   5.119  0.00  0.00    -0.141 S 
ENDROOT
BRANCH   1   2
ATOM      2  C   UNL     1      -8.829  -1.120   4.341  0.00  0.00    +0.131 C 
ATOM      3  C   UNL     1      -9.094  -2.034   3.143  0.00  0.00    +0.029 C 
BRANCH   2   5
ATOM      4  N   UNL     1      -6.798   0.106   3.640  0.00  0.00    -0.233 N 
ATOM      5  C   UNL     1      -8.125   0.128   3.874  0.00  0.00    +0.242 C 
ATOM      6  O   UNL     1      -8.753   1.152   3.709  0.00  0.00    -0.273 OA
ATOM      7  H   UNL     1      -6.295  -0.714   3.772  0.00  0.00    +0.173 HD
BRANCH   4  10
ATOM      8  C   UNL     1      -4.816   1.244   2.973  0.00  0.00    +0.235 C 
ATOM      9  O   UNL     1      -4.188   0.220   3.138  0.00  0.00    -0.274 OA
ATOM     10  N   UNL     1      -6.143   1.266   3.207  0.00  0.00    -0.234 N 
ATOM     11  H   UNL     1      -6.646   2.086   3.075  0.00  0.00    +0.173 HD
BRANCH   8  12
ATOM     12  C   UNL     1      -4.112   2.493   2.506  0.00  0.00    +0.160 C 
BRANCH  12  17
ATOM     13  C   UNL     1      -0.013   1.086   0.008  0.00  0.00    +0.066 C 
ATOM     14  C   UNL     1      -0.718   1.572   1.248  0.00  0.00    +0.046 A 
ATOM     15  C   UNL     1      -0.028   1.807   2.393  0.00  0.00    +0.070 A 
ATOM     16  S   UNL     1      -1.351   2.342   3.469  0.00  0.00    -0.080 S 
ATOM     17  C   UNL     1      -2.646   2.202   2.320  0.00  0.00    +0.087 A 
ATOM     18  N   UNL     1      -2.017   1.784   1.245  0.00  0.00    -0.249 NA
ENDBRANCH  12  17
ENDBRANCH   8  12
ENDBRANCH   4  10
ENDBRANCH   2   5
ENDBRANCH   1   2
BRANCH   1  19
ATOM     19  C   UNL     1     -11.045  -2.245   5.753  0.00  0.00    +0.144 C 
BRANCH  19  20
ATOM     20  C   UNL     1     -12.370  -2.011   6.433  0.00  0.00    +0.121 A 
ATOM     21  N   UNL     1     -13.034  -3.061   6.979  0.00  0.00    -0.310 N 
ATOM     22  H   UNL     1     -12.648  -3.949   6.923  0.00  0.00    +0.170 HD
ATOM     23  C   UNL     1     -14.217  -2.894   7.599  0.00  0.00    +0.260 A 
ATOM     24  O   UNL     1     -14.799  -3.847   8.089  0.00  0.00    -0.267 OA
ATOM     25  C   UNL     1     -14.783  -1.582   7.671  0.00  0.00    +0.080 A 
ATOM     26  C   UNL     1     -16.037  -1.150   8.277  0.00  0.00    +0.004 A 
ATOM     27  C   UNL     1     -16.370   0.163   8.221  0.00  0.00    +0.056 A 
ATOM     28  S   UNL     1     -15.003   0.897   7.343  0.00  0.00    -0.076 S 
ATOM     29  C   UNL     1     -14.027  -0.559   7.074  0.00  0.00    +0.116 A 
ATOM     30  N   UNL     1     -12.861  -0.802   6.482  0.00  0.00    -0.226 NA
BRANCH  26  31
ATOM     31  C   UNL     1     -16.931  -2.128   8.941  0.00  0.00    -0.017 A 
ATOM     32  C   UNL     1     -17.297  -3.301   8.283  0.00  0.00    +0.008 A 
ATOM     33  C   UNL     1     -18.126  -4.210   8.909  0.00  0.00    +0.001 A 
ATOM     34  C   UNL     1     -18.602  -3.954  10.182  0.00  0.00    +0.000 A 
ATOM     35  C   UNL     1     -18.246  -2.789  10.838  0.00  0.00    +0.001 A 
ATOM     36  C   UNL     1     -17.414  -1.875  10.225  0.00  0.00    +0.008 A 
ENDBRANCH  26  31
ENDBRANCH  19  20
ENDBRANCH   1  19
TORSDOF 8
