REMARK  Name = ZINC20293006
REMARK  10 active torsions:
REMARK  status: ('A' for Active; 'I' for Inactive)
REMARK    1  A    between atoms: C_1  and  O_2
REMARK    2  A    between atoms: O_2  and  C_3
REMARK    3  A    between atoms: C_6  and  C_9
REMARK    4  A    between atoms: N_10  and  N_11
REMARK    5  A    between atoms: C_15  and  S_18
REMARK    6  A    between atoms: N_16  and  N_17
REMARK    7  A    between atoms: S_18  and  C_19
REMARK    8  A    between atoms: C_19  and  C_20
REMARK    9  A    between atoms: N_22  and  C_23
REMARK   10  A    between atoms: C_24  and  C_32
REMARK                            x       y       z     vdW  Elec       q    Type
REMARK                         _______ _______ _______ _____ _____    ______ ____
ROOT
ATOM      1  N   UNL     1       3.159  -4.409  -5.520  0.00  0.00    -0.204 N 
ATOM      2  C   UNL     1       3.209  -5.793  -5.593  0.00  0.00    +0.254 A 
ATOM      3  N   UNL     1       2.710  -6.630  -4.716  0.00  0.00    -0.109 NA
ATOM      4  N   UNL     1       2.972  -7.932  -5.162  0.00  0.00    -0.119 NA
ATOM      5  C   UNL     1       3.624  -7.848  -6.297  0.00  0.00    +0.210 A 
ATOM      6  N   UNL     1       3.782  -6.524  -6.596  0.00  0.00    -0.211 N 
ATOM      7  H   UNL     1       3.555  -3.871  -6.223  0.00  0.00    +0.177 HD
ENDROOT
BRANCH   6   8
ATOM      8  N   UNL     1       4.406  -6.020  -7.702  0.00  0.00    -0.294 N 
ATOM      9  H   UNL     1       5.390  -5.882  -7.530  0.00  0.00    +0.163 HD
ATOM     10  H   UNL     1       4.259  -6.616  -8.503  0.00  0.00    +0.163 HD
ENDBRANCH   6   8
BRANCH   1  12
ATOM     11  C   UNL     1       2.491  -2.491  -4.360  0.00  0.00    +0.138 C 
ATOM     12  N   UNL     1       2.538  -3.787  -4.429  0.00  0.00    -0.188 NA
BRANCH  11  16
ATOM     13  C   UNL     1       0.606  -0.607  -1.056  0.00  0.00    +0.120 A 
ATOM     14  C   UNL     1       1.172   0.165  -2.062  0.00  0.00    +0.046 A 
ATOM     15  C   UNL     1       1.786  -0.442  -3.136  0.00  0.00    +0.013 A 
ATOM     16  C   UNL     1       1.837  -1.837  -3.212  0.00  0.00    -0.005 A 
ATOM     17  C   UNL     1       1.265  -2.609  -2.198  0.00  0.00    +0.013 A 
ATOM     18  C   UNL     1       0.659  -1.993  -1.124  0.00  0.00    +0.046 A 
BRANCH  13  20
ATOM     19  C   UNL     1      -0.017   1.425   0.010  0.00  0.00    +0.277 C 
ATOM     20  O   UNL     1       0.002  -0.004   0.002  0.00  0.00    -0.495 OA
ENDBRANCH  13  20
ENDBRANCH  11  16
ENDBRANCH   1  12
BRANCH   5  21
ATOM     21  S   UNL     1       4.190  -9.204  -7.269  0.00  0.00    -0.075 S 
BRANCH  21  22
ATOM     22  C   UNL     1       3.661 -10.665  -6.333  0.00  0.00    +0.173 C 
BRANCH  22  23
ATOM     23  C   UNL     1       4.088 -11.912  -7.064  0.00  0.00    +0.228 C 
ATOM     24  O   UNL     1       4.690 -11.823  -8.114  0.00  0.00    -0.275 OA
ATOM     25  N   UNL     1       3.801 -13.125  -6.553  0.00  0.00    -0.278 N 
ATOM     26  H   UNL     1       3.319 -13.196  -5.714  0.00  0.00    +0.155 HD
BRANCH  25  27
ATOM     27  C   UNL     1       4.194 -14.273  -7.226  0.00  0.00    +0.090 A 
ATOM     28  C   UNL     1       3.983 -15.592  -6.857  0.00  0.00    +0.084 A 
ATOM     29  C   UNL     1       4.499 -16.620  -7.743  0.00  0.00    -0.018 A 
ATOM     30  C   UNL     1       5.132 -16.142  -8.836  0.00  0.00    -0.004 A 
ATOM     31  S   UNL     1       5.029 -14.383  -8.679  0.00  0.00    -0.077 S 
ATOM     32  C   UNL     1       5.770 -16.942  -9.929  0.00  0.00    +0.043 C 
ATOM     33  C   UNL     1       5.929 -18.389  -9.437  0.00  0.00    +0.005 C 
ATOM     34  C   UNL     1       4.606 -18.851  -8.821  0.00  0.00    +0.005 C 
ATOM     35  C   UNL     1       4.360 -18.116  -7.501  0.00  0.00    +0.037 C 
BRANCH  28  36
ATOM     36  C   UNL     1       3.286 -15.926  -5.652  0.00  0.00    +0.102 C 
ATOM     37  N   UNL     1       2.732 -16.191  -4.696  0.00  0.00    -0.191 NA
ENDBRANCH  28  36
ENDBRANCH  25  27
ENDBRANCH  22  23
ENDBRANCH  21  22
ENDBRANCH   5  21
TORSDOF 9
