REMARK  Name = ZINC22451801
REMARK  5 active torsions:
REMARK  status: ('A' for Active; 'I' for Inactive)
REMARK    1  A    between atoms: C_1  and  C_2
REMARK    2  A    between atoms: C_5  and  C_26
REMARK    3  A    between atoms: C_16  and  C_18
REMARK    4  A    between atoms: C_23  and  O_24
REMARK    5  A    between atoms: O_24  and  C_25
REMARK                            x       y       z     vdW  Elec       q    Type
REMARK                         _______ _______ _______ _____ _____    ______ ____
ROOT
ATOM      1  C   UNL     1      -5.256   3.704   0.550  0.00  0.00    +0.009 C 
ATOM      2  C   UNL     1      -4.667   4.080  -0.811  0.00  0.00    +0.004 C 
ATOM      3  C   UNL     1      -4.516   5.601  -0.900  0.00  0.00    +0.009 C 
ATOM      4  C   UNL     1      -3.537   6.073   0.178  0.00  0.00    +0.004 C 
ATOM      5  C   UNL     1      -2.195   5.361  -0.010  0.00  0.00    +0.111 C 
ATOM      6  N   UNL     1      -2.393   3.909   0.085  0.00  0.00    -0.301 N 
ATOM      7  C   UNL     1      -3.292   3.426  -0.970  0.00  0.00    +0.111 C 
ATOM      8  C   UNL     1      -1.194   3.248   0.050  0.00  0.00    +0.199 A 
ATOM      9  N   UNL     1      -1.185   1.887   0.018  0.00  0.00    -0.295 N 
ATOM     10  H   UNL     1      -2.135   1.331   0.017  0.00  0.00    +0.172 HD
ATOM     11  C   UNL     1      -0.015   1.217  -0.011  0.00  0.00    +0.253 A 
ATOM     12  O   UNL     1       0.002  -0.004  -0.035  0.00  0.00    -0.268 OA
ATOM     13  C   UNL     1       1.183   1.946  -0.019  0.00  0.00    +0.098 A 
ATOM     14  C   UNL     1       1.118   3.332   0.009  0.00  0.00    +0.083 A 
ATOM     15  N   UNL     1      -0.076   3.941   0.043  0.00  0.00    -0.216 NA
ATOM     16  C   UNL     1      -3.334   7.585   0.058  0.00  0.00    +0.009 C 
ENDROOT
BRANCH  14  17
ATOM     17  C   UNL     1       2.361   4.135   0.002  0.00  0.00    +0.042 A 
ATOM     18  C   UNL     1       3.603   3.505   0.092  0.00  0.00    +0.013 A 
ATOM     19  C   UNL     1       4.758   4.258   0.085  0.00  0.00    +0.001 A 
ATOM     20  C   UNL     1       4.692   5.637  -0.013  0.00  0.00    +0.004 A 
ATOM     21  C   UNL     1       3.469   6.272  -0.103  0.00  0.00    +0.046 A 
ATOM     22  C   UNL     1       2.298   5.529  -0.102  0.00  0.00    +0.129 A 
BRANCH  22  23
ATOM     23  O   UNL     1       1.096   6.152  -0.197  0.00  0.00    -0.494 OA
ATOM     24  C   UNL     1       1.109   7.577  -0.299  0.00  0.00    +0.277 C 
ENDBRANCH  22  23
ENDBRANCH  14  17
TORSDOF 2
