REMARK  Name = ZINC04277969
REMARK  9 active torsions:
REMARK  status: ('A' for Active; 'I' for Inactive)
REMARK    1  A    between atoms: C_1  and  C_2
REMARK    2  A    between atoms: C_2  and  C_3
REMARK    3  A    between atoms: C_2  and  N_4
REMARK    4  A    between atoms: C_11  and  C_14
REMARK    5  A    between atoms: N_16  and  C_17
REMARK    6  A    between atoms: C_17  and  C_19
REMARK    7  A    between atoms: C_17  and  C_30
REMARK    8  A    between atoms: C_19  and  C_20
REMARK    9  A    between atoms: C_33  and  C_35
REMARK                            x       y       z     vdW  Elec       q    Type
REMARK                         _______ _______ _______ _____ _____    ______ ____
ROOT
ATOM      1  N   UNL     1      -2.661   8.999   0.029  0.00  0.00    -0.297 N 
ATOM      2  C   UNL     1      -2.123   7.804  -0.285  0.00  0.00    +0.303 C 
ATOM      3  O   UNL     1      -1.944   7.506  -1.450  0.00  0.00    -0.253 OA
ATOM      4  N   UNL     1      -1.783   6.941   0.692  0.00  0.00    -0.282 N 
ATOM      5  C   UNL     1      -2.090   7.241   2.097  0.00  0.00    +0.128 C 
ATOM      6  C   UNL     1      -0.792   7.169   2.909  0.00  0.00    +0.127 C 
ATOM      7  N   UNL     1      -0.107   5.909   2.589  0.00  0.00    -0.287 N 
ATOM      8  C   UNL     1       0.201   5.608   1.183  0.00  0.00    +0.179 C 
ATOM      9  C   UNL     1      -1.098   5.681   0.371  0.00  0.00    +0.141 C 
ATOM     10  C   UNL     1       0.233   5.045   3.565  0.00  0.00    +0.219 C 
ATOM     11  O   UNL     1       0.704   3.964   3.282  0.00  0.00    -0.275 OA
ATOM     12  H   UNL     1      -2.737   9.268   0.959  0.00  0.00    +0.150 HD
ENDROOT
BRANCH  10  13
ATOM     13  C   UNL     1       0.027   5.421   5.010  0.00  0.00    +0.075 C 
ATOM     14  C   UNL     1       0.961   6.577   5.374  0.00  0.00    +0.013 C 
ATOM     15  C   UNL     1       0.752   6.960   6.840  0.00  0.00    +0.001 C 
ATOM     16  C   UNL     1       1.061   5.754   7.731  0.00  0.00    +0.000 C 
ATOM     17  C   UNL     1       0.127   4.599   7.367  0.00  0.00    +0.001 C 
ATOM     18  C   UNL     1       0.336   4.216   5.900  0.00  0.00    +0.013 C 
ENDBRANCH  10  13
BRANCH   8  19
ATOM     19  C   UNL     1       0.786   4.223   1.079  0.00  0.00    +0.236 C 
ATOM     20  O   UNL     1       0.084   3.252   1.267  0.00  0.00    -0.274 OA
ATOM     21  N   UNL     1       2.090   4.064   0.776  0.00  0.00    -0.302 N 
ATOM     22  H   UNL     1       2.652   4.840   0.626  0.00  0.00    +0.150 HD
BRANCH  21  23
ATOM     23  C   UNL     1       2.659   2.718   0.675  0.00  0.00    +0.163 C 
BRANCH  23  24
ATOM     24  C   UNL     1       2.420   2.174  -0.710  0.00  0.00    +0.231 C 
ATOM     25  O   UNL     1       1.836   2.847  -1.533  0.00  0.00    -0.274 OA
ATOM     26  N   UNL     1       2.859   0.942  -1.036  0.00  0.00    -0.328 N 
ATOM     27  H   UNL     1       3.329   0.406  -0.379  0.00  0.00    +0.145 HD
ATOM     28  H   UNL     1       2.705   0.593  -1.927  0.00  0.00    +0.145 HD
ENDBRANCH  23  24
BRANCH  23  29
ATOM     29  C   UNL     1       4.164   2.778   0.946  0.00  0.00    +0.069 C 
BRANCH  29  30
ATOM     30  C   UNL     1       4.400   3.204   2.372  0.00  0.00    -0.020 A 
ATOM     31  C   UNL     1       4.639   4.453   2.803  0.00  0.00    +0.087 A 
ATOM     32  N   UNL     1       4.800   4.455   4.162  0.00  0.00    -0.360 N 
ATOM     33  H   UNL     1       4.979   5.242   4.701  0.00  0.00    +0.165 HD
ATOM     34  C   UNL     1       4.676   3.174   4.650  0.00  0.00    +0.047 A 
ATOM     35  C   UNL     1       4.420   2.334   3.550  0.00  0.00    +0.003 A 
ATOM     36  C   UNL     1       4.247   0.963   3.747  0.00  0.00    +0.010 A 
ATOM     37  C   UNL     1       4.327   0.442   5.008  0.00  0.00    +0.001 A 
ATOM     38  C   UNL     1       4.580   1.266   6.096  0.00  0.00    +0.002 A 
ATOM     39  C   UNL     1       4.754   2.622   5.925  0.00  0.00    +0.026 A 
ENDBRANCH  29  30
ENDBRANCH  23  29
ENDBRANCH  21  23
ENDBRANCH   8  19
BRANCH   1  41
ATOM     40  C   UNL     1      -4.207  10.826  -0.474  0.00  0.00    +0.027 C 
ATOM     41  C   UNL     1      -3.131   9.893  -1.032  0.00  0.00    +0.068 C 
ATOM     42  C   UNL     1      -1.957  10.724  -1.555  0.00  0.00    +0.027 C 
ENDBRANCH   1  41
TORSDOF 7
