REMARK  Name = ZINC19499557
REMARK  11 active torsions:
REMARK  status: ('A' for Active; 'I' for Inactive)
REMARK    1  A    between atoms: C_1  and  C_2
REMARK    2  A    between atoms: C_2  and  C_3
REMARK    3  A    between atoms: C_3  and  C_4
REMARK    4  A    between atoms: C_3  and  C_5
REMARK    5  A    between atoms: C_3  and  N_6
REMARK    6  A    between atoms: C_7  and  C_11
REMARK    7  A    between atoms: C_11  and  C_13
REMARK    8  A    between atoms: C_11  and  N_27
REMARK    9  A    between atoms: C_17  and  C_26
REMARK   10  A    between atoms: C_19  and  C_25
REMARK   11  A    between atoms: N_30  and  C_33
REMARK                            x       y       z     vdW  Elec       q    Type
REMARK                         _______ _______ _______ _____ _____    ______ ____
ROOT
ATOM      1  C   UNL     1       0.188   0.917  -0.106  0.00  0.00    +0.162 C 
ENDROOT
BRANCH   1   2
ATOM      2  C   UNL     1       1.539   1.507  -0.416  0.00  0.00    +0.042 A 
ATOM      3  C   UNL     1       2.603   0.691  -0.616  0.00  0.00    +0.021 A 
ATOM      4  C   UNL     1       3.902   1.296  -0.915  0.00  0.00    -0.001 A 
ATOM      5  C   UNL     1       5.036   0.505  -1.131  0.00  0.00    +0.013 A 
ATOM      6  C   UNL     1       6.234   1.101  -1.408  0.00  0.00    -0.050 A 
ATOM      7  C   UNL     1       6.336   2.483  -1.477  0.00  0.00    +0.008 A 
ATOM      8  C   UNL     1       5.233   3.282  -1.268  0.00  0.00    -0.026 A 
ATOM      9  C   UNL     1       4.002   2.698  -0.984  0.00  0.00    +0.052 A 
ATOM     10  N   UNL     1       2.882   3.473  -0.770  0.00  0.00    -0.322 N 
ATOM     11  H   UNL     1       2.954   4.569  -0.819  0.00  0.00    +0.169 HD
ATOM     12  C   UNL     1       1.692   2.908  -0.502  0.00  0.00    +0.254 A 
ATOM     13  O   UNL     1       0.721   3.623  -0.323  0.00  0.00    -0.268 OA
ATOM     14  C   UNL     1       5.359   4.782  -1.346  0.00  0.00    +0.046 C 
ATOM     15  C   UNL     1       7.455   0.249  -1.641  0.00  0.00    +0.044 C 
ENDBRANCH   1   2
BRANCH   1  16
ATOM     16  N   UNL     1      -0.325   1.496   1.143  0.00  0.00    -0.292 NA
ATOM     17  C   UNL     1       0.581   1.212   2.265  0.00  0.00    +0.067 C 
ATOM     18  C   UNL     1       0.054   1.897   3.529  0.00  0.00    -0.063 C 
ATOM     19  N   UNL     1      -1.303   1.412   3.816  0.00  0.00    +0.383 N 
ATOM     20  C   UNL     1      -2.209   1.695   2.694  0.00  0.00    -0.063 C 
ATOM     21  C   UNL     1      -1.682   1.010   1.431  0.00  0.00    +0.067 C 
ATOM     22  H   UNL     1      -1.254   0.321   3.945  0.00  0.00    -0.081 HD
BRANCH  19  23
ATOM     23  C   UNL     1      -1.815   1.990   5.065  0.00  0.00    -0.068 C 
ATOM     24  C   UNL     1      -1.944   3.507   4.910  0.00  0.00    -0.015 C 
ATOM     25  C   UNL     1      -2.478   4.109   6.211  0.00  0.00    -0.002 C 
ATOM     26  C   UNL     1      -1.510   3.794   7.354  0.00  0.00    -0.000 C 
ATOM     27  C   UNL     1      -1.381   2.277   7.509  0.00  0.00    -0.002 C 
ATOM     28  C   UNL     1      -0.848   1.675   6.207  0.00  0.00    -0.015 C 
ENDBRANCH  19  23
ENDBRANCH   1  16
BRANCH   1  30
ATOM     29  N   UNL     1      -1.285   0.350  -2.110  0.00  0.00    -0.222 N 
ATOM     30  C   UNL     1      -0.766   1.227  -1.231  0.00  0.00    +0.174 A 
ATOM     31  N   UNL     1      -1.255   2.403  -1.541  0.00  0.00    -0.111 NA
ATOM     32  N   UNL     1      -2.027   2.257  -2.561  0.00  0.00    -0.023 NA
ATOM     33  N   UNL     1      -2.050   1.017  -2.906  0.00  0.00    -0.043 NA
BRANCH  29  34
ATOM     34  C   UNL     1      -1.028  -1.092  -2.154  0.00  0.00    +0.062 C 
ATOM     35  C   UNL     1       0.475  -1.338  -2.298  0.00  0.00    +0.036 C 
ATOM     36  C   UNL     1      -1.530  -1.739  -0.862  0.00  0.00    +0.036 C 
BRANCH  34  38
ATOM     37  C   UNL     1      -1.494  -3.210  -3.395  0.00  0.00    +0.006 C 
ATOM     38  C   UNL     1      -1.762  -1.704  -3.349  0.00  0.00    +0.026 C 
ENDBRANCH  34  38
ENDBRANCH  29  34
ENDBRANCH   1  30
TORSDOF 6
