REMARK  Name = ZINC13298256
REMARK  12 active torsions:
REMARK  status: ('A' for Active; 'I' for Inactive)
REMARK    1  A    between atoms: C_1  and  C_2
REMARK    2  A    between atoms: C_2  and  O_4
REMARK    3  A    between atoms: O_4  and  C_5
REMARK    4  A    between atoms: C_8  and  O_40
REMARK    5  A    between atoms: C_10  and  C_38
REMARK    6  A    between atoms: C_10  and  C_39
REMARK    7  A    between atoms: C_13  and  C_37
REMARK    8  A    between atoms: C_18  and  C_36
REMARK    9  A    between atoms: C_19  and  C_33
REMARK   10  A    between atoms: C_27  and  C_31
REMARK   11  A    between atoms: O_40  and  C_41
REMARK   12  A    between atoms: C_41  and  C_43
REMARK                            x       y       z     vdW  Elec       q    Type
REMARK                         _______ _______ _______ _____ _____    ______ ____
ROOT
ATOM      1  C   UNL     1      -0.265  -2.206  -1.669  0.00  0.00    +0.186 C 
ATOM      2  C   UNL     1      -1.717  -2.666  -1.762  0.00  0.00    +0.090 C 
ATOM      3  C   UNL     1      -2.343  -2.173  -3.060  0.00  0.00    +0.186 C 
ATOM      4  C   UNL     1      -1.554  -2.608  -4.288  0.00  0.00    +0.006 C 
ATOM      5  C   UNL     1      -0.057  -2.363  -4.174  0.00  0.00    +0.015 C 
ATOM      6  C   UNL     1       0.550  -2.750  -2.837  0.00  0.00    +0.013 C 
ATOM      7  C   UNL     1       2.015  -2.390  -2.668  0.00  0.00    +0.015 C 
ATOM      8  C   UNL     1       2.548  -2.700  -1.291  0.00  0.00    +0.006 C 
ATOM      9  C   UNL     1       2.551  -1.557  -0.306  0.00  0.00    +0.014 C 
ATOM     10  C   UNL     1       2.890  -0.207  -0.833  0.00  0.00    +0.049 C 
ATOM     11  C   UNL     1       4.183   0.402  -0.358  0.00  0.00    +0.297 C 
ATOM     12  O   UNL     1       4.334   1.753  -0.774  0.00  0.00    -0.447 OA
ATOM     13  C   UNL     1       4.094   2.120  -2.030  0.00  0.00    +0.340 C 
ATOM     14  O   UNL     1       4.660   3.088  -2.485  0.00  0.00    -0.248 OA
ATOM     15  C   UNL     1       3.132   1.361  -2.899  0.00  0.00    +0.260 C 
ATOM     16  C   UNL     1       2.567   0.059  -2.284  0.00  0.00    +0.129 C 
ATOM     17  C   UNL     1       2.519  -1.115  -3.254  0.00  0.00    +0.062 C 
ATOM     18  C   UNL     1       1.765  -0.717  -4.492  0.00  0.00    +0.143 C 
ATOM     19  O   UNL     1       2.344  -0.250  -5.442  0.00  0.00    -0.297 OA
ATOM     20  C   UNL     1       0.268  -0.913  -4.541  0.00  0.00    +0.079 C 
ATOM     21  C   UNL     1       3.969  -1.377  -3.704  0.00  0.00    +0.022 C 
ATOM     22  O   UNL     1       1.765   1.216  -2.558  0.00  0.00    -0.351 OA
ATOM     23  C   UNL     1       1.869   0.682  -0.110  0.00  0.00    +0.018 C 
ATOM     24  C   UNL     1       0.533  -4.295  -2.736  0.00  0.00    +0.015 C 
ATOM     25  C   UNL     1      -2.126  -1.814  -5.486  0.00  0.00    +0.015 C 
ATOM     26  C   UNL     1      -1.862  -4.082  -4.597  0.00  0.00    +0.015 C 
ENDROOT
BRANCH  11  27
ATOM     27  C   UNL     1       4.221   0.391   1.153  0.00  0.00    +0.396 C 
ATOM     28  O   UNL     1       4.247  -0.669   1.754  0.00  0.00    -0.242 OA
ATOM     29  O   UNL     1       4.226   1.443   1.770  0.00  0.00    -0.242 OA
ENDBRANCH  11  27
BRANCH   1  30
ATOM     30  O   UNL     1      -0.226  -0.778  -1.659  0.00  0.00    -0.461 OA
BRANCH  30  32
ATOM     31  C   UNL     1      -0.987   1.348  -0.661  0.00  0.00    +0.136 C 
ATOM     32  C   UNL     1      -0.893  -0.156  -0.675  0.00  0.00    +0.304 C 
ATOM     33  O   UNL     1      -1.419  -0.802   0.201  0.00  0.00    -0.251 OA
ENDBRANCH  30  32
ENDBRANCH   1  30
BRANCH   3  34
ATOM     34  O   UNL     1      -2.471  -0.749  -3.039  0.00  0.00    -0.461 OA
BRANCH  34  35
ATOM     35  C   UNL     1      -3.614  -0.247  -2.545  0.00  0.00    +0.304 C 
ATOM     36  O   UNL     1      -4.477  -0.992  -2.144  0.00  0.00    -0.251 OA
ATOM     37  C   UNL     1      -3.821   1.244  -2.492  0.00  0.00    +0.136 C 
ENDBRANCH  34  35
ENDBRANCH   3  34
TORSDOF 5
