REMARK  Name = ZINC40688832
REMARK  7 active torsions:
REMARK  status: ('A' for Active; 'I' for Inactive)
REMARK    1  A    between atoms: C_1  and  C_2
REMARK    2  A    between atoms: C_4  and  C_22
REMARK    3  A    between atoms: C_7  and  N_8
REMARK    4  A    between atoms: C_10  and  N_20
REMARK    5  A    between atoms: C_11  and  N_15
REMARK    6  A    between atoms: C_22  and  C_24
REMARK    7  A    between atoms: C_22  and  C_26
REMARK                            x       y       z     vdW  Elec       q    Type
REMARK                         _______ _______ _______ _____ _____    ______ ____
ROOT
ATOM      1  C   UNL     1      -1.089   0.400   0.804  0.00  0.00    +0.045 C 
ATOM      2  C   UNL     1      -0.454  -0.960   0.676  0.00  0.00    -0.029 A 
ATOM      3  C   UNL     1      -0.146  -1.465  -0.572  0.00  0.00    +0.011 A 
ATOM      4  C   UNL     1       0.437  -2.713  -0.690  0.00  0.00    -0.008 A 
ATOM      5  C   UNL     1       0.714  -3.461   0.441  0.00  0.00    +0.047 A 
ATOM      6  C   UNL     1       0.408  -2.962   1.693  0.00  0.00    +0.043 A 
ATOM      7  C   UNL     1      -0.172  -1.705   1.815  0.00  0.00    +0.037 A 
ATOM      8 CL   UNL     1       1.444  -5.029   0.288  0.00  0.00    -0.083 Cl
ENDROOT
BRANCH   7   9
ATOM      9  N   UNL     1      -0.478  -1.195   3.079  0.00  0.00    -0.298 N 
ATOM     10  C   UNL     1      -0.762  -2.061   4.128  0.00  0.00    +0.149 A 
ATOM     11  C   UNL     1      -0.945  -1.570   5.425  0.00  0.00    +0.109 A 
ATOM     12  C   UNL     1      -1.228  -2.482   6.440  0.00  0.00    +0.165 A 
ATOM     13  N   UNL     1      -1.312  -3.775   6.139  0.00  0.00    -0.216 NA
ATOM     14  C   UNL     1      -1.133  -4.197   4.905  0.00  0.00    +0.225 A 
ATOM     15  N   UNL     1      -0.869  -3.369   3.914  0.00  0.00    -0.219 NA
ATOM     16  H   UNL     1      -0.492  -0.236   3.224  0.00  0.00    +0.154 HD
BRANCH  12  17
ATOM     17  N   UNL     1      -1.420  -2.045   7.754  0.00  0.00    -0.289 N 
ATOM     18  C   UNL     1      -2.287  -2.580   8.673  0.00  0.00    +0.114 A 
ATOM     19  C   UNL     1      -2.151  -1.859   9.802  0.00  0.00    +0.130 A 
ATOM     20  N   UNL     1      -1.228  -0.910   9.585  0.00  0.00    -0.244 NA
ATOM     21  C   UNL     1      -0.779  -1.014   8.364  0.00  0.00    +0.205 A 
ENDBRANCH  12  17
BRANCH  11  22
ATOM     22  N   UNL     1      -0.847  -0.198   5.697  0.00  0.00    -0.352 N 
ATOM     23  H   UNL     1      -0.649   0.425   4.980  0.00  0.00    +0.143 HD
ATOM     24  H   UNL     1      -0.977   0.128   6.601  0.00  0.00    +0.143 HD
ENDBRANCH  11  22
ENDBRANCH   7   9
BRANCH   4  25
ATOM     25  C   UNL     1       0.771  -3.261  -2.054  0.00  0.00    +0.153 C 
BRANCH  25  26
ATOM     26  C   UNL     1      -0.501  -3.493  -2.828  0.00  0.00    -0.026 A 
ATOM     27  C   UNL     1      -1.246  -2.416  -3.271  0.00  0.00    +0.006 A 
ATOM     28  C   UNL     1      -2.413  -2.628  -3.980  0.00  0.00    +0.020 A 
ATOM     29  C   UNL     1      -2.836  -3.918  -4.247  0.00  0.00    +0.041 A 
ATOM     30  C   UNL     1      -2.090  -4.995  -3.804  0.00  0.00    +0.020 A 
ATOM     31  C   UNL     1      -0.920  -4.782  -3.099  0.00  0.00    +0.006 A 
ATOM     32 CL   UNL     1      -4.302  -4.185  -5.138  0.00  0.00    -0.084 Cl
ENDBRANCH  25  26
BRANCH  25  33
ATOM     33  C   UNL     1       1.616  -2.296  -2.777  0.00  0.00    +0.075 C 
ATOM     34  N   UNL     1       2.268  -1.552  -3.334  0.00  0.00    -0.196 NA
ENDBRANCH  25  33
ENDBRANCH   4  25
TORSDOF 6
