REMARK  Name = ZINC12495380
REMARK  8 active torsions:
REMARK  status: ('A' for Active; 'I' for Inactive)
REMARK    1  A    between atoms: C_1  and  C_2
REMARK    2  A    between atoms: C_3  and  C_18
REMARK    3  A    between atoms: C_4  and  N_13
REMARK    4  A    between atoms: N_5  and  C_7
REMARK    5  A    between atoms: N_19  and  N_20
REMARK    6  A    between atoms: C_21  and  C_23
REMARK    7  A    between atoms: C_27  and  S_29
REMARK    8  A    between atoms: S_29  and  N_32
REMARK                            x       y       z     vdW  Elec       q    Type
REMARK                         _______ _______ _______ _____ _____    ______ ____
ROOT
ATOM      1  C   UNL     1      -2.543   1.855   0.408  0.00  0.00    +0.143 C 
ATOM      2  N   UNL     1      -2.791   0.585   0.525  0.00  0.00    -0.187 NA
ENDROOT
BRANCH   1   5
ATOM      3  C   UNL     1       0.017   0.001   0.181  0.00  0.00    +0.068 C 
ATOM      4  C   UNL     1      -0.012   1.505   0.086  0.00  0.00    +0.071 A 
ATOM      5  C   UNL     1      -1.163   2.318   0.190  0.00  0.00    +0.057 A 
ATOM      6  C   UNL     1      -0.747   3.636   0.051  0.00  0.00    +0.134 A 
ATOM      7  N   UNL     1       0.599   3.611  -0.138  0.00  0.00    -0.218 N 
ATOM      8  N   UNL     1       1.021   2.277  -0.111  0.00  0.00    -0.169 NA
BRANCH   7   9
ATOM      9  C   UNL     1       1.422   4.729  -0.329  0.00  0.00    +0.067 A 
ATOM     10  C   UNL     1       1.001   5.772  -1.143  0.00  0.00    +0.028 A 
ATOM     11  C   UNL     1       1.812   6.876  -1.324  0.00  0.00    +0.002 A 
ATOM     12  C   UNL     1       3.047   6.937  -0.705  0.00  0.00    +0.000 A 
ATOM     13  C   UNL     1       3.472   5.896   0.101  0.00  0.00    +0.002 A 
ATOM     14  C   UNL     1       2.663   4.793   0.291  0.00  0.00    +0.028 A 
ENDBRANCH   7   9
BRANCH   6  15
ATOM     15  N   UNL     1      -1.552   4.763   0.092  0.00  0.00    -0.315 N 
ATOM     16  C   UNL     1      -2.652   4.667  -0.903  0.00  0.00    +0.106 C 
ATOM     17  C   UNL     1      -3.697   5.681  -0.375  0.00  0.00    +0.020 C 
ATOM     18  C   UNL     1      -3.602   5.508   1.159  0.00  0.00    +0.020 C 
ATOM     19  C   UNL     1      -2.211   4.896   1.409  0.00  0.00    +0.106 C 
ENDBRANCH   6  15
ENDBRANCH   1   5
BRANCH   2  20
ATOM     20  N   UNL     1      -4.105   0.144   0.733  0.00  0.00    -0.203 N 
ATOM     21  C   UNL     1      -4.363  -1.173   0.855  0.00  0.00    +0.263 C 
ATOM     22  O   UNL     1      -3.455  -1.979   0.784  0.00  0.00    -0.268 OA
ATOM     23  H   UNL     1      -4.829   0.787   0.789  0.00  0.00    +0.178 HD
BRANCH  21  24
ATOM     24  C   UNL     1      -5.749  -1.638   1.074  0.00  0.00    +0.040 A 
ATOM     25  C   UNL     1      -6.792  -0.715   1.161  0.00  0.00    +0.013 A 
ATOM     26  C   UNL     1      -8.084  -1.155   1.361  0.00  0.00    +0.003 A 
ATOM     27  C   UNL     1      -8.345  -2.509   1.484  0.00  0.00    +0.028 A 
ATOM     28  C   UNL     1      -7.315  -3.428   1.404  0.00  0.00    +0.106 A 
ATOM     29  C   UNL     1      -6.019  -3.001   1.200  0.00  0.00    +0.041 A 
BRANCH  28  30
ATOM     30  S   UNL     1      -7.659  -5.149   1.564  0.00  0.00    +0.061 S 
ATOM     31  O   UNL     1      -9.022  -5.326   1.204  0.00  0.00    -0.153 OA
ATOM     32  O   UNL     1      -6.602  -5.837   0.908  0.00  0.00    -0.153 OA
BRANCH  30  33
ATOM     33  N   UNL     1      -7.541  -5.525   3.172  0.00  0.00    -0.172 NA
ATOM     34  C   UNL     1      -6.263  -5.961   3.757  0.00  0.00    +0.137 C 
ATOM     35  C   UNL     1      -5.994  -5.111   5.008  0.00  0.00    +0.177 C 
ATOM     36  O   UNL     1      -7.136  -5.165   5.867  0.00  0.00    -0.377 OA
ATOM     37  C   UNL     1      -8.326  -4.618   5.294  0.00  0.00    +0.177 C 
ATOM     38  C   UNL     1      -8.713  -5.438   4.058  0.00  0.00    +0.137 C 
ENDBRANCH  30  33
ENDBRANCH  28  30
ENDBRANCH  21  24
ENDBRANCH   2  20
TORSDOF 7
