REMARK  Name = ZINC09081509
REMARK  6 active torsions:
REMARK  status: ('A' for Active; 'I' for Inactive)
REMARK    1  A    between atoms: C_3  and  C_6
REMARK    2  A    between atoms: C_6  and  C_8
REMARK    3  A    between atoms: C_6  and  S_21
REMARK    4  A    between atoms: C_8  and  N_9
REMARK    5  A    between atoms: N_12  and  C_13
REMARK    6  A    between atoms: S_21  and  C_24
REMARK                            x       y       z     vdW  Elec       q    Type
REMARK                         _______ _______ _______ _____ _____    ______ ____
ROOT
ATOM      1  C   UNL     1       1.153   4.309   1.754  0.00  0.00    +0.218 C 
ENDROOT
BRANCH   1   4
ATOM      2  C   UNL     1       3.797   2.667   3.728  0.00  0.00    +0.041 A 
ATOM      3  C   UNL     1       2.434   2.901   3.437  0.00  0.00    +0.047 A 
ATOM      4  C   UNL     1       2.399   3.769   2.410  0.00  0.00    +0.131 A 
ATOM      5  O   UNL     1       3.661   4.078   2.072  0.00  0.00    -0.466 OA
ATOM      6  C   UNL     1       4.513   3.412   2.868  0.00  0.00    +0.195 A 
ENDBRANCH   1   4
BRANCH   1   7
ATOM      7  S   UNL     1       1.153   3.861  -0.004  0.00  0.00    +0.008 S 
ATOM      8  O   UNL     1       2.377   4.255  -0.609  0.00  0.00    -0.169 OA
ATOM      9  O   UNL     1      -0.091   4.205  -0.596  0.00  0.00    -0.169 OA
BRANCH   7  10
ATOM     10  C   UNL     1       1.189   2.100  -0.023  0.00  0.00    +0.093 A 
ATOM     11  C   UNL     1       0.005   1.386  -0.024  0.00  0.00    +0.031 A 
ATOM     12  C   UNL     1       0.028   0.004  -0.040  0.00  0.00    +0.051 A 
ATOM     13  C   UNL     1       1.238  -0.669  -0.054  0.00  0.00    +0.166 A 
ATOM     14  C   UNL     1       2.431   0.050  -0.053  0.00  0.00    +0.168 A 
ATOM     15  C   UNL     1       2.401   1.435  -0.036  0.00  0.00    +0.076 A 
ATOM     16  O   UNL     1       3.472  -0.833  -0.069  0.00  0.00    -0.453 OA
ATOM     17  C   UNL     1       2.907  -2.087  -0.492  0.00  0.00    +0.466 C 
ATOM     18  O   UNL     1       1.532  -2.002  -0.071  0.00  0.00    -0.453 OA
ENDBRANCH   7  10
ENDBRANCH   1   7
BRANCH   1  19
ATOM     19  C   UNL     1       1.123   5.832   1.893  0.00  0.00    +0.140 C 
BRANCH  19  20
ATOM     20  N   UNL     1      -0.087   6.357   1.256  0.00  0.00    -0.297 N 
ATOM     21  C   UNL     1      -0.327   7.683   1.255  0.00  0.00    +0.304 C 
ATOM     22  O   UNL     1       0.461   8.444   1.782  0.00  0.00    -0.253 OA
ATOM     23  N   UNL     1      -1.440   8.165   0.668  0.00  0.00    -0.269 N 
ATOM     24  H   UNL     1      -0.715   5.749   0.835  0.00  0.00    +0.150 HD
ATOM     25  H   UNL     1      -2.035   7.567   0.190  0.00  0.00    +0.156 HD
BRANCH  23  26
ATOM     26  C   UNL     1      -1.739   9.531   0.750  0.00  0.00    +0.036 A 
ATOM     27  C   UNL     1      -3.060   9.949   0.840  0.00  0.00    +0.025 A 
ATOM     28  C   UNL     1      -3.353  11.296   0.926  0.00  0.00    +0.023 A 
ATOM     29  C   UNL     1      -2.331  12.230   0.912  0.00  0.00    +0.059 A 
ATOM     30  C   UNL     1      -1.013  11.816   0.818  0.00  0.00    +0.061 A 
ATOM     31  C   UNL     1      -0.716  10.468   0.737  0.00  0.00    +0.044 A 
ATOM     32 CL   UNL     1       0.266  12.990   0.800  0.00  0.00    -0.082 Cl
ATOM     33 CL   UNL     1      -2.703  13.922   1.015  0.00  0.00    -0.082 Cl
ENDBRANCH  23  26
ENDBRANCH  19  20
ENDBRANCH   1  19
TORSDOF 6
