REMARK  Name = ZINC23643644
REMARK  11 active torsions:
REMARK  status: ('A' for Active; 'I' for Inactive)
REMARK    1  A    between atoms: C_1  and  C_2
REMARK    2  A    between atoms: C_5  and  C_33
REMARK    3  A    between atoms: N_8  and  C_10
REMARK    4  A    between atoms: C_10  and  C_12
REMARK    5  A    between atoms: C_10  and  C_24
REMARK    6  A    between atoms: C_14  and  O_22
REMARK    7  A    between atoms: C_15  and  O_20
REMARK    8  A    between atoms: C_16  and  O_18
REMARK    9  A    between atoms: O_18  and  C_19
REMARK   10  A    between atoms: O_20  and  C_21
REMARK   11  A    between atoms: O_22  and  C_23
REMARK                            x       y       z     vdW  Elec       q    Type
REMARK                         _______ _______ _______ _____ _____    ______ ____
ROOT
ATOM      1  C   UNL     1      -1.154  -0.971   0.008  0.00  0.00    +0.006 C 
ENDROOT
BRANCH   1   7
ATOM      2  C   UNL     1      -1.768   0.180   4.750  0.00  0.00    +0.005 C 
ATOM      3  C   UNL     1      -2.463   0.021   3.396  0.00  0.00    -0.031 C 
ATOM      4  C   UNL     1      -3.594  -1.003   3.518  0.00  0.00    +0.003 C 
ATOM      5  C   UNL     1      -4.245  -1.200   2.146  0.00  0.00    -0.031 C 
ATOM      6  C   UNL     1      -3.181  -1.651   1.143  0.00  0.00    -0.074 C 
ATOM      7  N   UNL     1      -2.121  -0.638   1.062  0.00  0.00    +0.388 N 
ATOM      8  C   UNL     1      -1.451  -0.466   2.357  0.00  0.00    -0.074 C 
ATOM      9  C   UNL     1      -4.860   0.120   1.678  0.00  0.00    +0.005 C 
ATOM     10  H   UNL     1      -2.593   0.320   0.798  0.00  0.00    -0.080 HD
ENDBRANCH   1   7
BRANCH   1  11
ATOM     11  C   UNL     1      -0.091   0.096  -0.054  0.00  0.00    +0.050 A 
ATOM     12  C   UNL     1       1.238  -0.039  -0.129  0.00  0.00    +0.282 A 
ATOM     13  N   UNL     1       2.052   1.067  -0.177  0.00  0.00    -0.170 N 
ATOM     14  C   UNL     1       1.449   2.287  -0.146  0.00  0.00    +0.199 A 
ATOM     15  S   UNL     1      -0.276   1.873  -0.048  0.00  0.00    -0.050 S 
ATOM     16  N   UNL     1       2.356   3.225  -0.199  0.00  0.00    -0.208 NA
ATOM     17  C   UNL     1       3.562   2.667  -0.266  0.00  0.00    +0.246 A 
ATOM     18  N   UNL     1       3.437   1.367  -0.255  0.00  0.00    -0.150 NA
ATOM     19  O   UNL     1       1.789  -1.283  -0.157  0.00  0.00    -0.265 OA
ENDBRANCH   1  11
BRANCH   1  20
ATOM     20  C   UNL     1      -1.863  -1.051  -1.319  0.00  0.00    -0.049 A 
ATOM     21  C   UNL     1      -2.764  -0.066  -1.679  0.00  0.00    +0.052 A 
ATOM     22  C   UNL     1      -3.415  -0.133  -2.902  0.00  0.00    +0.165 A 
ATOM     23  C   UNL     1      -3.170  -1.199  -3.760  0.00  0.00    +0.204 A 
ATOM     24  C   UNL     1      -2.268  -2.190  -3.392  0.00  0.00    +0.165 A 
ATOM     25  C   UNL     1      -1.617  -2.112  -2.170  0.00  0.00    +0.052 A 
BRANCH  24  26
ATOM     26  O   UNL     1      -2.025  -3.234  -4.228  0.00  0.00    -0.491 OA
ATOM     27  C   UNL     1      -1.087  -4.216  -3.784  0.00  0.00    +0.277 C 
ENDBRANCH  24  26
BRANCH  23  28
ATOM     28  O   UNL     1      -3.812  -1.271  -4.958  0.00  0.00    -0.488 OA
ATOM     29  C   UNL     1      -5.062  -1.962  -4.983  0.00  0.00    +0.277 C 
ENDBRANCH  23  28
BRANCH  22  30
ATOM     30  O   UNL     1      -4.297   0.839  -3.258  0.00  0.00    -0.491 OA
ATOM     31  C   UNL     1      -4.499   1.904  -2.327  0.00  0.00    +0.277 C 
ENDBRANCH  22  30
ENDBRANCH   1  20
TORSDOF 6
