REMARK  Name = ZINC39777005
REMARK  8 active torsions:
REMARK  status: ('A' for Active; 'I' for Inactive)
REMARK    1  A    between atoms: C_1  and  C_2
REMARK    2  A    between atoms: C_2  and  O_3
REMARK    3  A    between atoms: O_3  and  C_4
REMARK    4  A    between atoms: C_4  and  C_6
REMARK    5  A    between atoms: N_9  and  C_12
REMARK    6  A    between atoms: C_12  and  N_13
REMARK    7  A    between atoms: N_16  and  C_29
REMARK    8  A    between atoms: C_17  and  C_20
REMARK                            x       y       z     vdW  Elec       q    Type
REMARK                         _______ _______ _______ _____ _____    ______ ____
ROOT
ATOM      1  N   UNL     1       4.645  -6.021   4.337  0.00  0.00    -0.263 N 
ATOM      2  C   UNL     1       3.888  -6.853   5.065  0.00  0.00    +0.154 C 
ATOM      3  S   UNL     1       2.836  -6.347   6.318  0.00  0.00    -0.017 S 
ATOM      4  N   UNL     1       4.056  -8.134   4.690  0.00  0.00    -0.260 N 
ATOM      5  C   UNL     1       5.035  -8.132   3.592  0.00  0.00    +0.198 C 
ATOM      6  N   UNL     1       5.375  -6.707   3.409  0.00  0.00    -0.215 NA
ATOM      7  H   UNL     1       5.155  -6.398   2.475  0.00  0.00    +0.147 HD
ENDROOT
BRANCH   5   8
ATOM      8  C   UNL     1       4.419  -8.690   2.335  0.00  0.00    +0.014 A 
ATOM      9  C   UNL     1       4.849  -8.423   0.960  0.00  0.00    +0.006 A 
ATOM     10  C   UNL     1       5.863  -7.649   0.394  0.00  0.00    +0.010 A 
ATOM     11  C   UNL     1       6.008  -7.608  -0.964  0.00  0.00    +0.001 A 
ATOM     12  C   UNL     1       5.154  -8.330  -1.786  0.00  0.00    +0.002 A 
ATOM     13  C   UNL     1       4.146  -9.101  -1.248  0.00  0.00    +0.026 A 
ATOM     14  C   UNL     1       3.981  -9.157   0.132  0.00  0.00    +0.047 A 
ATOM     15  N   UNL     1       3.095  -9.816   0.954  0.00  0.00    -0.360 N 
ATOM     16  C   UNL     1       3.374  -9.530   2.263  0.00  0.00    +0.090 A 
ATOM     17  H   UNL     1       2.381 -10.399   0.651  0.00  0.00    +0.165 HD
ENDBRANCH   5   8
BRANCH   4  18
ATOM     18  C   UNL     1       3.421  -9.254   5.240  0.00  0.00    +0.037 A 
ATOM     19  C   UNL     1       4.177 -10.291   5.771  0.00  0.00    +0.025 A 
ATOM     20  C   UNL     1       3.548 -11.394   6.313  0.00  0.00    +0.022 A 
ATOM     21  C   UNL     1       2.166 -11.467   6.328  0.00  0.00    +0.041 A 
ATOM     22  C   UNL     1       1.411 -10.435   5.799  0.00  0.00    +0.022 A 
ATOM     23  C   UNL     1       2.035  -9.327   5.260  0.00  0.00    +0.025 A 
ATOM     24 CL   UNL     1       1.379 -12.856   7.010  0.00  0.00    -0.084 Cl
ENDBRANCH   4  18
BRANCH   1  25
ATOM     25  C   UNL     1       4.679  -4.566   4.509  0.00  0.00    +0.051 C 
BRANCH  25  29
ATOM     26  C   UNL     1       1.873  -2.179   2.369  0.00  0.00    +0.094 C 
ATOM     27  C   UNL     1       3.356  -1.800   2.346  0.00  0.00    -0.004 C 
ATOM     28  C   UNL     1       4.066  -2.469   3.525  0.00  0.00    -0.076 C 
ATOM     29  N   UNL     1       3.931  -3.926   3.419  0.00  0.00    +0.391 N 
ATOM     30  C   UNL     1       2.515  -4.303   3.513  0.00  0.00    -0.076 C 
ATOM     31  C   UNL     1       1.746  -3.705   2.333  0.00  0.00    -0.004 C 
ATOM     32  H   UNL     1       4.302  -4.234   2.533  0.00  0.00    -0.079 HD
BRANCH  26  33
ATOM     33  C   UNL     1       1.183  -1.588   1.166  0.00  0.00    +0.310 C 
ATOM     34  O   UNL     1       0.644  -2.312   0.362  0.00  0.00    -0.251 OA
BRANCH  33  35
ATOM     35  O   UNL     1       1.167  -0.258   0.989  0.00  0.00    -0.465 OA
BRANCH  35  37
ATOM     36  C   UNL     1       0.581   1.761  -0.204  0.00  0.00    +0.048 C 
ATOM     37  C   UNL     1       0.495   0.234  -0.173  0.00  0.00    +0.229 C 
ENDBRANCH  35  37
ENDBRANCH  33  35
ENDBRANCH  26  33
ENDBRANCH  25  29
ENDBRANCH   1  25
TORSDOF 7
