REMARK  Name = ZINC20236768
REMARK  8 active torsions:
REMARK  status: ('A' for Active; 'I' for Inactive)
REMARK    1  A    between atoms: C_1  and  C_2
REMARK    2  A    between atoms: C_7  and  O_8
REMARK    3  A    between atoms: O_8  and  C_9
REMARK    4  A    between atoms: C_9  and  C_10
REMARK    5  A    between atoms: C_10  and  O_11
REMARK    6  A    between atoms: O_11  and  C_12
REMARK    7  A    between atoms: C_15  and  C_19
REMARK    8  A    between atoms: C_29  and  C_31
REMARK                            x       y       z     vdW  Elec       q    Type
REMARK                         _______ _______ _______ _____ _____    ______ ____
ROOT
ATOM      1  C   UNL     1      -0.648   2.184   5.686  0.00  0.00    +0.135 A 
ATOM      2  C   UNL     1       0.278   2.492   6.678  0.00  0.00    +0.047 A 
ATOM      3  C   UNL     1      -0.103   3.209   7.776  0.00  0.00    +0.011 A 
ATOM      4  C   UNL     1      -1.431   3.640   7.907  0.00  0.00    -0.023 A 
ATOM      5  C   UNL     1      -2.364   3.330   6.907  0.00  0.00    +0.027 A 
ATOM      6  C   UNL     1      -1.968   2.611   5.802  0.00  0.00    +0.060 A 
ATOM      7 BR   UNL     1      -3.219   2.195   4.446  0.00  0.00    -0.047 Br
ENDROOT
BRANCH   4   8
ATOM      8  C   UNL     1      -1.842   4.409   9.084  0.00  0.00    +0.024 C 
ATOM      9  C   UNL     1      -1.311   4.113  10.319  0.00  0.00    +0.084 C 
ATOM     10  C   UNL     1      -1.553   4.976  11.516  0.00  0.00    +0.176 C 
ATOM     11  N   UNL     1      -2.646   5.668  11.699  0.00  0.00    -0.280 NA
ATOM     12  N   UNL     1      -0.493   4.962  12.412  0.00  0.00    -0.142 N 
ATOM     13  C   UNL     1       0.402   3.923  12.443  0.00  0.00    +0.168 C 
ATOM     14  N   UNL     1       0.406   2.917  11.569  0.00  0.00    -0.156 NA
ATOM     15  C   UNL     1      -0.468   2.913  10.549  0.00  0.00    +0.273 C 
ATOM     16  O   UNL     1      -0.565   1.940   9.819  0.00  0.00    -0.268 OA
ATOM     17  C   UNL     1       1.258   4.166  13.526  0.00  0.00    +0.091 C 
ATOM     18  C   UNL     1       0.915   5.348  14.084  0.00  0.00    +0.134 C 
ATOM     19  O   UNL     1      -0.115   5.878  13.404  0.00  0.00    -0.375 OA
ATOM     20  C   UNL     1       1.583   5.973  15.281  0.00  0.00    +0.089 C 
ATOM     21  H   UNL     1      -3.355   5.639  11.038  0.00  0.00    +0.188 HD
ENDBRANCH   4   8
BRANCH   1  22
ATOM     22  O   UNL     1      -0.261   1.471   4.599  0.00  0.00    -0.487 OA
BRANCH  22  23
ATOM     23  C   UNL     1       1.107   1.065   4.543  0.00  0.00    +0.270 C 
BRANCH  23  24
ATOM     24  C   UNL     1       1.353   0.277   3.254  0.00  0.00    +0.270 C 
BRANCH  24  25
ATOM     25  O   UNL     1       1.167   1.137   2.128  0.00  0.00    -0.488 OA
BRANCH  25  32
ATOM     26  C   UNL     1       0.805   2.819  -0.112  0.00  0.00    +0.047 C 
ATOM     27  C   UNL     1       1.185   1.367  -0.240  0.00  0.00    -0.009 A 
ATOM     28  C   UNL     1       1.377   0.810  -1.490  0.00  0.00    +0.007 A 
ATOM     29  C   UNL     1       1.725  -0.523  -1.608  0.00  0.00    +0.000 A 
ATOM     30  C   UNL     1       1.884  -1.301  -0.476  0.00  0.00    +0.004 A 
ATOM     31  C   UNL     1       1.694  -0.749   0.776  0.00  0.00    +0.046 A 
ATOM     32  C   UNL     1       1.349   0.590   0.897  0.00  0.00    +0.124 A 
ENDBRANCH  25  32
ENDBRANCH  24  25
ENDBRANCH  23  24
ENDBRANCH  22  23
ENDBRANCH   1  22
TORSDOF 6
