REMARK  Name = ZINC36585082
REMARK  13 active torsions:
REMARK  status: ('A' for Active; 'I' for Inactive)
REMARK    1  A    between atoms: C_1  and  C_2
REMARK    2  A    between atoms: C_5  and  S_8
REMARK    3  A    between atoms: S_8  and  C_11
REMARK    4  A    between atoms: C_11  and  N_12
REMARK    5  A    between atoms: C_13  and  C_15
REMARK    6  A    between atoms: C_15  and  C_17
REMARK    7  A    between atoms: C_15  and  N_24
REMARK    8  A    between atoms: C_21  and  O_23
REMARK    9  A    between atoms: N_24  and  C_34
REMARK   10  A    between atoms: C_25  and  C_27
REMARK   11  A    between atoms: C_34  and  C_35
REMARK   12  A    between atoms: C_34  and  C_36
REMARK   13  A    between atoms: C_34  and  C_37
REMARK                            x       y       z     vdW  Elec       q    Type
REMARK                         _______ _______ _______ _____ _____    ______ ____
ROOT
ATOM      1  C   UNL     1       2.034  -7.960   3.725  0.00  0.00    +0.193 C 
ENDROOT
BRANCH   1   2
ATOM      2  C   UNL     1       1.219  -6.825   3.160  0.00  0.00    -0.015 A 
ATOM      3  C   UNL     1       0.573  -5.948   4.012  0.00  0.00    +0.006 A 
ATOM      4  C   UNL     1      -0.176  -4.906   3.498  0.00  0.00    +0.004 A 
ATOM      5  C   UNL     1      -0.281  -4.739   2.130  0.00  0.00    +0.045 A 
ATOM      6  C   UNL     1       0.366  -5.618   1.274  0.00  0.00    +0.117 A 
ATOM      7  C   UNL     1       1.122  -6.659   1.793  0.00  0.00    +0.051 A 
BRANCH   6   8
ATOM      8  O   UNL     1       0.264  -5.455  -0.072  0.00  0.00    -0.507 OA
ATOM      9  H   UNL     1       0.950  -4.890  -0.453  0.00  0.00    +0.292 HD
ENDBRANCH   6   8
ENDBRANCH   1   2
BRANCH   1  11
ATOM     10  N   UNL     1       0.727  -9.568   2.374  0.00  0.00    -0.294 N 
ATOM     11  C   UNL     1       1.276  -9.252   3.564  0.00  0.00    +0.239 C 
ATOM     12  O   UNL     1       1.160 -10.009   4.505  0.00  0.00    -0.273 OA
ATOM     13  H   UNL     1       0.819  -8.963   1.622  0.00  0.00    +0.150 HD
BRANCH  10  14
ATOM     14  C   UNL     1      -0.011 -10.824   2.217  0.00  0.00    +0.278 C 
BRANCH  14  15
ATOM     15  S   UNL     1      -1.782 -10.521   2.466  0.00  0.00    +0.013 S 
ATOM     16  O   UNL     1      -1.985  -9.742   3.638  0.00  0.00    -0.168 OA
ATOM     17  O   UNL     1      -2.518 -11.718   2.256  0.00  0.00    -0.168 OA
BRANCH  15  22
ATOM     18  C   UNL     1      -3.393  -6.902  -2.085  0.00  0.00    +0.044 C 
ATOM     19  C   UNL     1      -2.991  -7.806  -0.948  0.00  0.00    -0.050 A 
ATOM     20  C   UNL     1      -3.063  -9.178  -1.097  0.00  0.00    +0.005 A 
ATOM     21  C   UNL     1      -2.694 -10.007  -0.055  0.00  0.00    +0.027 A 
ATOM     22  C   UNL     1      -2.252  -9.464   1.137  0.00  0.00    +0.090 A 
ATOM     23  C   UNL     1      -2.178  -8.092   1.286  0.00  0.00    +0.027 A 
ATOM     24  C   UNL     1      -2.543  -7.263   0.241  0.00  0.00    +0.005 A 
ENDBRANCH  15  22
ENDBRANCH  14  15
ENDBRANCH  10  14
ENDBRANCH   1  11
BRANCH   1  25
ATOM     25  N   UNL     1       2.290  -7.718   5.147  0.00  0.00    -0.277 N 
ATOM     26  C   UNL     1       1.424  -8.173   6.074  0.00  0.00    +0.248 C 
ATOM     27  O   UNL     1       0.236  -8.226   5.823  0.00  0.00    -0.270 OA
BRANCH  26  28
ATOM     28  C   UNL     1       1.920  -8.608   7.397  0.00  0.00    +0.038 A 
ATOM     29  C   UNL     1       3.186  -8.216   7.835  0.00  0.00    +0.013 A 
ATOM     30  C   UNL     1       3.643  -8.625   9.071  0.00  0.00    +0.002 A 
ATOM     31  C   UNL     1       2.849  -9.422   9.877  0.00  0.00    +0.020 A 
ATOM     32  C   UNL     1       1.592  -9.815   9.449  0.00  0.00    +0.042 A 
ATOM     33  C   UNL     1       1.121  -9.408   8.216  0.00  0.00    +0.033 A 
ATOM     34 CL   UNL     1       0.604 -10.816  10.467  0.00  0.00    -0.084 Cl
ENDBRANCH  26  28
BRANCH  25  35
ATOM     35  C   UNL     1       3.486  -6.981   5.561  0.00  0.00    +0.030 C 
ATOM     36  C   UNL     1       3.893  -6.005   4.454  0.00  0.00    +0.031 C 
ATOM     37  C   UNL     1       3.187  -6.201   6.843  0.00  0.00    +0.031 C 
ATOM     38  C   UNL     1       4.629  -7.965   5.818  0.00  0.00    +0.031 C 
ENDBRANCH  25  35
ENDBRANCH   1  25
TORSDOF 9
