REMARK  Name = ZINC40815961
REMARK  10 active torsions:
REMARK  status: ('A' for Active; 'I' for Inactive)
REMARK    1  A    between atoms: C_1  and  C_2
REMARK    2  A    between atoms: C_6  and  C_7
REMARK    3  A    between atoms: N_9  and  C_10
REMARK    4  A    between atoms: C_10  and  C_11
REMARK    5  A    between atoms: C_11  and  C_12
REMARK    6  A    between atoms: C_12  and  N_13
REMARK    7  A    between atoms: N_22  and  N_23
REMARK    8  A    between atoms: C_24  and  C_26
REMARK    9  A    between atoms: C_26  and  O_27
REMARK   10  A    between atoms: O_27  and  C_28
REMARK                            x       y       z     vdW  Elec       q    Type
REMARK                         _______ _______ _______ _____ _____    ______ ____
ROOT
ATOM      1  C   UNL     1      -0.018   1.503   0.010  0.00  0.00    +0.048 C 
ATOM      2  C   UNL     1       0.002  -0.004   0.002  0.00  0.00    +0.009 A 
ATOM      3  C   UNL     1       0.009  -0.838  -1.123  0.00  0.00    +0.042 A 
ATOM      4  C   UNL     1       0.027  -2.137  -0.673  0.00  0.00    +0.115 A 
ATOM      5  O   UNL     1       0.035  -2.112   0.658  0.00  0.00    -0.454 OA
ATOM      6  C   UNL     1       0.024  -0.830   1.091  0.00  0.00    +0.193 A 
ATOM      7  C   UNL     1       0.034  -3.327  -1.599  0.00  0.00    +0.075 C 
ATOM      8  C   UNL     1      -0.492  -2.903  -2.974  0.00  0.00    +0.014 C 
ATOM      9  C   UNL     1       0.279  -1.685  -3.495  0.00  0.00    +0.058 C 
ATOM     10  C   UNL     1       0.000  -0.512  -2.566  0.00  0.00    +0.070 C 
ATOM     11  N   UNL     1      -0.228   0.686  -3.008  0.00  0.00    -0.184 NA
ENDROOT
BRANCH   6  12
ATOM     12  C   UNL     1       0.031  -0.400   2.493  0.00  0.00    +0.280 C 
ATOM     13  O   UNL     1       0.016   0.786   2.766  0.00  0.00    -0.267 OA
ATOM     14  N   UNL     1       0.053  -1.317   3.480  0.00  0.00    -0.309 N 
ATOM     15  H   UNL     1       0.065  -2.263   3.263  0.00  0.00    +0.149 HD
BRANCH  14  16
ATOM     16  C   UNL     1       0.060  -0.887   4.881  0.00  0.00    +0.106 C 
BRANCH  16  17
ATOM     17  C   UNL     1       0.086  -2.116   5.792  0.00  0.00    +0.040 C 
BRANCH  17  18
ATOM     18  C   UNL     1       0.093  -1.667   7.254  0.00  0.00    +0.124 C 
BRANCH  18  19
ATOM     19  N   UNL     1       0.118  -2.844   8.126  0.00  0.00    -0.338 N 
ATOM     20  C   UNL     1      -0.969  -3.516   8.615  0.00  0.00    +0.104 A 
ATOM     21  C   UNL     1      -0.496  -4.527   9.368  0.00  0.00    +0.101 A 
ATOM     22  N   UNL     1       0.844  -4.475   9.339  0.00  0.00    -0.352 N 
ATOM     23  C   UNL     1       1.219  -3.472   8.593  0.00  0.00    +0.173 A 
ATOM     24  H   UNL     1       1.440  -5.088   9.797  0.00  0.00    +0.166 HD
ENDBRANCH  18  19
ENDBRANCH  17  18
ENDBRANCH  16  17
ENDBRANCH  14  16
ENDBRANCH   6  12
BRANCH  11  25
ATOM     25  N   UNL     1      -0.224   0.938  -4.386  0.00  0.00    -0.204 N 
ATOM     26  C   UNL     1      -0.461   2.183  -4.845  0.00  0.00    +0.270 C 
ATOM     27  O   UNL     1      -0.678   3.085  -4.064  0.00  0.00    -0.270 OA
ATOM     28  H   UNL     1      -0.050   0.216  -5.010  0.00  0.00    +0.177 HD
BRANCH  26  29
ATOM     29  C   UNL     1      -0.456   2.453  -6.327  0.00  0.00    +0.326 C 
BRANCH  29  30
ATOM     30  O   UNL     1      -0.731   3.836  -6.560  0.00  0.00    -0.483 OA
BRANCH  30  31
ATOM     31  C   UNL     1      -0.763   4.249  -7.854  0.00  0.00    +0.121 A 
ATOM     32  C   UNL     1      -0.541   3.341  -8.879  0.00  0.00    +0.045 A 
ATOM     33  C   UNL     1      -0.574   3.764 -10.194  0.00  0.00    +0.004 A 
ATOM     34  C   UNL     1      -0.829   5.090 -10.489  0.00  0.00    +0.000 A 
ATOM     35  C   UNL     1      -1.050   5.997  -9.469  0.00  0.00    +0.004 A 
ATOM     36  C   UNL     1      -1.024   5.579  -8.153  0.00  0.00    +0.045 A 
ENDBRANCH  30  31
ENDBRANCH  29  30
ENDBRANCH  26  29
ENDBRANCH  11  25
TORSDOF 9
