REMARK  Name = ZINC20673840
REMARK  6 active torsions:
REMARK  status: ('A' for Active; 'I' for Inactive)
REMARK    1  A    between atoms: C_1  and  C_2
REMARK    2  A    between atoms: C_2  and  N_3
REMARK    3  A    between atoms: N_3  and  C_4
REMARK    4  A    between atoms: N_3  and  C_6
REMARK    5  A    between atoms: C_4  and  C_5
REMARK    6  A    between atoms: C_9  and  C_12
REMARK                            x       y       z     vdW  Elec       q    Type
REMARK                         _______ _______ _______ _____ _____    ______ ____
ROOT
ATOM      1  C   UNL     1       5.115  -1.863   5.508  0.00  0.00    +0.092 C 
ATOM      2  C   UNL     1       4.318  -1.331   4.355  0.00  0.00    +0.069 A 
ATOM      3  C   UNL     1       4.855  -0.346   3.517  0.00  0.00    +0.259 A 
ATOM      4  O   UNL     1       5.974   0.098   3.717  0.00  0.00    -0.267 OA
ATOM      5  N   UNL     1       4.111   0.104   2.485  0.00  0.00    -0.295 N 
ATOM      6  H   UNL     1       4.512   0.878   1.814  0.00  0.00    +0.172 HD
ATOM      7  C   UNL     1       2.864  -0.398   2.271  0.00  0.00    +0.200 A 
ATOM      8  N   UNL     1       2.351  -1.319   3.060  0.00  0.00    -0.200 NA
ATOM      9  C   UNL     1       3.044  -1.805   4.096  0.00  0.00    +0.136 A 
ATOM     10  N   UNL     1       2.493  -2.770   4.916  0.00  0.00    -0.302 N 
ATOM     11  C   UNL     1       2.995  -2.990   6.170  0.00  0.00    +0.017 C 
ATOM     12  C   UNL     1       4.232  -2.569   6.506  0.00  0.00    +0.024 C 
ATOM     13  C   UNL     1       4.742  -2.780   7.799  0.00  0.00    +0.162 C 
ATOM     14  O   UNL     1       5.864  -2.396   8.067  0.00  0.00    -0.292 OA
ATOM     15  C   UNL     1       3.928  -3.472   8.857  0.00  0.00    +0.080 C 
ATOM     16  C   UNL     1       2.440  -3.230   8.580  0.00  0.00    +0.014 C 
ATOM     17  C   UNL     1       2.127  -3.721   7.165  0.00  0.00    +0.051 C 
ATOM     18  N   UNL     1       2.125   0.070   1.217  0.00  0.00    -0.297 N 
ATOM     19  C   UNL     1       0.772  -0.505   1.227  0.00  0.00    +0.136 C 
ATOM     20  C   UNL     1       0.002  -0.004   0.002  0.00  0.00    +0.179 C 
ATOM     21  O   UNL     1      -0.017   1.426   0.010  0.00  0.00    -0.377 OA
ATOM     22  C   UNL     1       1.284   2.019   0.001  0.00  0.00    +0.179 C 
ATOM     23  C   UNL     1       2.067   1.539   1.225  0.00  0.00    +0.136 C 
ATOM     24  H   UNL     1       1.643  -3.371   4.562  0.00  0.00    +0.153 HD
ENDROOT
BRANCH   1  28
ATOM     25  C   UNL     1       8.042  -4.609   4.038  0.00  0.00    +0.030 A 
ATOM     26  C   UNL     1       8.440  -3.471   4.730  0.00  0.00    +0.023 A 
ATOM     27  C   UNL     1       7.491  -2.586   5.203  0.00  0.00    +0.006 A 
ATOM     28  C   UNL     1       6.147  -2.831   4.990  0.00  0.00    -0.035 A 
ATOM     29  C   UNL     1       5.747  -3.965   4.307  0.00  0.00    +0.006 A 
ATOM     30  C   UNL     1       6.691  -4.851   3.826  0.00  0.00    +0.023 A 
BRANCH  25  31
ATOM     31  N   UNL     1       8.998  -5.506   3.558  0.00  0.00    -0.330 N 
BRANCH  31  33
ATOM     32  C   UNL     1       8.495  -6.390   1.334  0.00  0.00    +0.024 C 
ATOM     33  C   UNL     1       8.577  -6.705   2.829  0.00  0.00    +0.102 C 
ENDBRANCH  31  33
BRANCH  31  34
ATOM     34  C   UNL     1      10.423  -5.249   3.784  0.00  0.00    +0.102 C 
ATOM     35  C   UNL     1      10.854  -5.891   5.103  0.00  0.00    +0.024 C 
ENDBRANCH  31  34
ENDBRANCH  25  31
ENDBRANCH   1  28
TORSDOF 4
