REMARK  Name = ZINC53927642
REMARK  2 active torsions:
REMARK  status: ('A' for Active; 'I' for Inactive)
REMARK    1  A    between atoms: N_12  and  C_13
REMARK    2  A    between atoms: C_13  and  C_14
REMARK                            x       y       z     vdW  Elec       q    Type
REMARK                         _______ _______ _______ _____ _____    ______ ____
ROOT
ATOM      1  C   UNL     1       0.036   1.177  -0.249  0.00  0.00    +0.000 C 
ATOM      2  C   UNL     1       1.441   1.782  -0.221  0.00  0.00    -0.002 C 
ATOM      3  C   UNL     1       2.146   1.375   1.074  0.00  0.00    -0.015 C 
ATOM      4  C   UNL     1       2.246  -0.150   1.143  0.00  0.00    -0.065 C 
ATOM      5  C   UNL     1       0.840  -0.755   1.116  0.00  0.00    -0.025 C 
ATOM      6  C   UNL     1       0.136  -0.348  -0.180  0.00  0.00    +0.002 C 
ATOM      7  C   UNL     1       0.946  -2.281   1.181  0.00  0.00    +0.000 C 
ATOM      8  C   UNL     1       1.722  -2.676   2.440  0.00  0.00    -0.018 C 
ATOM      9  C   UNL     1       3.095  -2.000   2.419  0.00  0.00    -0.078 C 
ATOM     10  N   UNL     1       2.924  -0.542   2.384  0.00  0.00    +0.382 N 
ATOM     11  H   UNL     1       2.371  -0.249   3.176  0.00  0.00    -0.081 HD
ENDROOT
BRANCH  10  12
ATOM     12  C   UNL     1       4.242   0.103   2.445  0.00  0.00    -0.067 C 
BRANCH  12  13
ATOM     13  C   UNL     1       4.896  -0.199   3.795  0.00  0.00    +0.039 C 
ATOM     14  C   UNL     1       4.095   0.471   4.931  0.00  0.00    +0.009 C 
ATOM     15  C   UNL     1       5.187   0.946   5.922  0.00  0.00    +0.008 C 
ATOM     16  C   UNL     1       6.323   1.397   4.971  0.00  0.00    +0.074 C 
ATOM     17  C   UNL     1       6.292   0.387   3.837  0.00  0.00    +0.135 C 
ATOM     18  O   UNL     1       7.209   0.103   3.105  0.00  0.00    -0.297 OA
ENDBRANCH  12  13
ENDBRANCH  10  12
TORSDOF 2
