REMARK  Name = ZINC12556403
REMARK  4 active torsions:
REMARK  status: ('A' for Active; 'I' for Inactive)
REMARK    1  A    between atoms: C_3  and  N_14
REMARK    2  A    between atoms: C_4  and  S_10
REMARK    3  A    between atoms: C_6  and  N_7
REMARK    4  A    between atoms: S_10  and  N_13
REMARK                            x       y       z     vdW  Elec       q    Type
REMARK                         _______ _______ _______ _____ _____    ______ ____
ROOT
ATOM      1  C   UNL     1      -3.463   0.880   3.982  0.00  0.00    +0.034 A 
ATOM      2  C   UNL     1      -3.253  -0.140   3.074  0.00  0.00    +0.027 A 
ATOM      3  C   UNL     1      -2.643   0.131   1.856  0.00  0.00    +0.056 A 
ATOM      4  C   UNL     1      -2.236   1.426   1.560  0.00  0.00    +0.128 A 
ATOM      5  C   UNL     1      -2.449   2.441   2.472  0.00  0.00    +0.063 A 
ATOM      6  C   UNL     1      -3.061   2.168   3.682  0.00  0.00    +0.128 A 
ENDROOT
BRANCH   3   7
ATOM      7  N   UNL     1      -2.435  -0.897   0.934  0.00  0.00    -0.328 N 
ATOM      8  C   UNL     1      -3.712  -1.441   0.456  0.00  0.00    +0.105 C 
ATOM      9  C   UNL     1      -3.450  -2.460  -0.656  0.00  0.00    +0.019 C 
ATOM     10  C   UNL     1      -2.565  -3.585  -0.112  0.00  0.00    +0.003 C 
ATOM     11  C   UNL     1      -1.262  -2.986   0.423  0.00  0.00    +0.019 C 
ATOM     12  C   UNL     1      -1.587  -1.952   1.504  0.00  0.00    +0.105 C 
ENDBRANCH   3   7
BRANCH   6  13
ATOM     13  N   UNL     1      -3.287   3.259   4.657  0.00  0.00    +0.056 N 
ATOM     14  O   UNL     1      -2.934   4.394   4.394  0.00  0.00    -0.126 OA
ATOM     15  O   UNL     1      -3.826   3.020   5.723  0.00  0.00    -0.126 OA
ENDBRANCH   6  13
BRANCH   4  16
ATOM     16  S   UNL     1      -1.456   1.774   0.019  0.00  0.00    +0.058 S 
ATOM     17  O   UNL     1      -1.146   3.161   0.025  0.00  0.00    -0.153 OA
ATOM     18  O   UNL     1      -2.263   1.179  -0.988  0.00  0.00    -0.153 OA
BRANCH  16  19
ATOM     19  N   UNL     1      -0.011   0.966   0.007  0.00  0.00    -0.203 NA
ATOM     20  H   UNL     1       0.002  -0.004   0.002  0.00  0.00    +0.144 HD
ATOM     21  H   UNL     1       0.822   1.462   0.002  0.00  0.00    +0.144 HD
ENDBRANCH  16  19
ENDBRANCH   4  16
TORSDOF 4
