REMARK  Name = ZINC20232208
REMARK  16 active torsions:
REMARK  status: ('A' for Active; 'I' for Inactive)
REMARK    1  A    between atoms: C_1  and  C_2
REMARK    2  A    between atoms: C_2  and  O_3
REMARK    3  A    between atoms: O_3  and  C_4
REMARK    4  A    between atoms: C_6  and  C_11
REMARK    5  A    between atoms: C_9  and  O_10
REMARK    6  A    between atoms: C_13  and  C_24
REMARK    7  A    between atoms: N_17  and  C_18
REMARK    8  A    between atoms: C_18  and  C_19
REMARK    9  A    between atoms: C_19  and  N_20
REMARK   10  A    between atoms: N_20  and  C_21
REMARK   11  A    between atoms: N_20  and  C_22
REMARK   12  A    between atoms: C_24  and  C_26
REMARK   13  A    between atoms: C_29  and  O_32
REMARK   14  A    between atoms: O_32  and  C_33
REMARK   15  A    between atoms: C_33  and  C_34
REMARK   16  A    between atoms: C_38  and  C_40
REMARK                            x       y       z     vdW  Elec       q    Type
REMARK                         _______ _______ _______ _____ _____    ______ ____
ROOT
ATOM      1  C   UNL     1       0.196  12.329   0.601  0.00  0.00    +0.145 C 
ATOM      2  C   UNL     1       0.216  12.839  -0.821  0.00  0.00    +0.076 C 
ATOM      3  C   UNL     1       0.224  14.191  -0.751  0.00  0.00    +0.249 C 
ATOM      4  C   UNL     1       0.202  14.603   0.668  0.00  0.00    +0.288 C 
ATOM      5  O   UNL     1       0.201  15.754   1.059  0.00  0.00    -0.266 OA
ATOM      6  N   UNL     1       0.189  13.517   1.462  0.00  0.00    -0.285 N 
ATOM      7  O   UNL     1       0.247  15.030  -1.812  0.00  0.00    -0.282 OA
ENDROOT
BRANCH   1  10
ATOM      8  C   UNL     1      -2.090   9.375   1.164  0.00  0.00    +0.162 A 
ATOM      9  C   UNL     1      -0.951  10.132   0.945  0.00  0.00    +0.055 A 
ATOM     10  C   UNL     1      -1.044  11.507   0.839  0.00  0.00    -0.019 A 
ATOM     11  C   UNL     1      -2.272  12.130   0.957  0.00  0.00    +0.009 A 
ATOM     12  C   UNL     1      -3.414  11.380   1.170  0.00  0.00    +0.049 A 
ATOM     13  C   UNL     1      -3.327  10.002   1.277  0.00  0.00    +0.158 A 
BRANCH  13  14
ATOM     14  O   UNL     1      -4.449   9.263   1.493  0.00  0.00    -0.503 OA
ATOM     15  H   UNL     1      -5.426   9.760   1.582  0.00  0.00    +0.292 HD
ENDBRANCH  13  14
BRANCH   8  16
ATOM     16  O   UNL     1      -2.000   8.022   1.269  0.00  0.00    -0.489 OA
BRANCH  16  18
ATOM     17  C   UNL     1      -0.787   5.933   1.353  0.00  0.00    +0.048 C 
ATOM     18  C   UNL     1      -0.687   7.457   1.261  0.00  0.00    +0.226 C 
ENDBRANCH  16  18
ENDBRANCH   8  16
ENDBRANCH   1  10
BRANCH   2  19
ATOM     19  C   UNL     1       0.230  12.027  -2.042  0.00  0.00    +0.195 C 
ATOM     20  O   UNL     1      -0.721  12.052  -2.801  0.00  0.00    -0.287 OA
BRANCH  19  21
ATOM     21  C   UNL     1       1.397  11.177  -2.350  0.00  0.00    +0.022 A 
ATOM     22  C   UNL     1       1.381  10.344  -3.473  0.00  0.00    +0.015 A 
ATOM     23  C   UNL     1       2.472   9.554  -3.757  0.00  0.00    +0.046 A 
ATOM     24  C   UNL     1       3.589   9.584  -2.929  0.00  0.00    +0.121 A 
ATOM     25  C   UNL     1       3.607  10.408  -1.809  0.00  0.00    +0.046 A 
ATOM     26  C   UNL     1       2.523  11.205  -1.521  0.00  0.00    +0.015 A 
BRANCH  24  27
ATOM     27  O   UNL     1       4.663   8.804  -3.212  0.00  0.00    -0.487 OA
BRANCH  27  28
ATOM     28  C   UNL     1       5.729   8.796  -2.261  0.00  0.00    +0.264 C 
BRANCH  28  29
ATOM     29  C   UNL     1       6.839   7.906  -2.757  0.00  0.00    -0.010 A 
ATOM     30  C   UNL     1       7.796   8.409  -3.619  0.00  0.00    +0.007 A 
ATOM     31  C   UNL     1       8.814   7.593  -4.073  0.00  0.00    +0.001 A 
ATOM     32  C   UNL     1       8.877   6.273  -3.666  0.00  0.00    +0.003 A 
ATOM     33  C   UNL     1       7.917   5.769  -2.808  0.00  0.00    -0.050 A 
ATOM     34  C   UNL     1       6.900   6.587  -2.350  0.00  0.00    +0.010 A 
ATOM     35  C   UNL     1       7.981   4.329  -2.369  0.00  0.00    +0.044 C 
ENDBRANCH  28  29
ENDBRANCH  27  28
ENDBRANCH  24  27
ENDBRANCH  19  21
ENDBRANCH   2  19
BRANCH   6  36
ATOM     36  C   UNL     1       0.171  13.521   2.926  0.00  0.00    +0.090 C 
BRANCH  36  37
ATOM     37  C   UNL     1       1.607  13.518   3.454  0.00  0.00    -0.060 C 
BRANCH  37  38
ATOM     38  N   UNL     1       1.588  13.521   4.923  0.00  0.00    +0.377 N 
ATOM     39  C   UNL     1       1.021  12.270   5.446  0.00  0.00    -0.097 C 
ATOM     40  C   UNL     1       2.933  13.756   5.466  0.00  0.00    -0.097 C 
ATOM     41  H   UNL     1       0.942  14.348   5.252  0.00  0.00    -0.083 HD
ENDBRANCH  37  38
ENDBRANCH  36  37
ENDBRANCH   6  36
TORSDOF 12
