REMARK  Name = ZINC09280204
REMARK  10 active torsions:
REMARK  status: ('A' for Active; 'I' for Inactive)
REMARK    1  A    between atoms: C_1  and  C_2
REMARK    2  A    between atoms: C_2  and  O_3
REMARK    3  A    between atoms: O_3  and  C_4
REMARK    4  A    between atoms: C_4  and  C_6
REMARK    5  A    between atoms: C_7  and  C_34
REMARK    6  A    between atoms: C_14  and  C_15
REMARK    7  A    between atoms: C_20  and  O_21
REMARK    8  A    between atoms: C_24  and  C_26
REMARK    9  A    between atoms: C_31  and  O_32
REMARK   10  A    between atoms: O_32  and  C_33
REMARK                            x       y       z     vdW  Elec       q    Type
REMARK                         _______ _______ _______ _____ _____    ______ ____
ROOT
ATOM      1  C   UNL     1       2.836   3.404   1.581  0.00  0.00    +0.085 C 
ATOM      2  C   UNL     1       4.099   3.458   2.101  0.00  0.00    +0.053 C 
ATOM      3  N   UNL     1       5.144   3.082   1.374  0.00  0.00    -0.228 NA
ATOM      4  C   UNL     1       5.078   2.640   0.143  0.00  0.00    +0.178 A 
ATOM      5  N   UNL     1       3.906   2.506  -0.564  0.00  0.00    -0.275 N 
ATOM      6  C   UNL     1       3.963   2.042  -1.820  0.00  0.00    +0.268 A 
ATOM      7  O   UNL     1       2.953   1.907  -2.485  0.00  0.00    -0.266 OA
ATOM      8  C   UNL     1       5.283   1.701  -2.369  0.00  0.00    +0.081 A 
ATOM      9  C   UNL     1       5.608   1.217  -3.597  0.00  0.00    +0.032 C 
ATOM     10  S   UNL     1       6.342   2.092  -0.986  0.00  0.00    -0.046 S 
ATOM     11  C   UNL     1       2.670   2.905   0.165  0.00  0.00    +0.165 C 
ATOM     12  C   UNL     1       4.307   3.950   3.510  0.00  0.00    +0.066 C 
ENDROOT
BRANCH   9  13
ATOM     13  C   UNL     1       4.583   1.122  -4.643  0.00  0.00    +0.019 A 
ATOM     14  C   UNL     1       3.667   2.164  -4.828  0.00  0.00    +0.031 A 
ATOM     15  C   UNL     1       2.708   2.067  -5.814  0.00  0.00    +0.042 A 
ATOM     16  C   UNL     1       2.647   0.942  -6.622  0.00  0.00    +0.023 A 
ATOM     17  C   UNL     1       3.546  -0.093  -6.450  0.00  0.00    +0.047 A 
ATOM     18  C   UNL     1       4.520  -0.012  -5.469  0.00  0.00    +0.124 A 
ATOM     19 CL   UNL     1       1.570   3.358  -6.043  0.00  0.00    -0.084 Cl
BRANCH  18  20
ATOM     20  O   UNL     1       5.407  -1.027  -5.303  0.00  0.00    -0.506 OA
ATOM     21  H   UNL     1       5.113  -1.708  -4.682  0.00  0.00    +0.292 HD
ENDBRANCH  18  20
ENDBRANCH   9  13
BRANCH  11  22
ATOM     22  C   UNL     1       1.747   1.714   0.198  0.00  0.00    +0.022 A 
ATOM     23  C   UNL     1       0.431   1.848  -0.201  0.00  0.00    +0.009 A 
ATOM     24  C   UNL     1      -0.416   0.755  -0.171  0.00  0.00    +0.001 A 
ATOM     25  C   UNL     1       0.050  -0.472   0.263  0.00  0.00    +0.004 A 
ATOM     26  C   UNL     1       1.366  -0.612   0.658  0.00  0.00    +0.046 A 
ATOM     27  C   UNL     1       2.218   0.483   0.629  0.00  0.00    +0.126 A 
BRANCH  27  28
ATOM     28  O   UNL     1       3.512   0.349   1.022  0.00  0.00    -0.495 OA
ATOM     29  C   UNL     1       3.958  -0.969   1.349  0.00  0.00    +0.277 C 
ENDBRANCH  27  28
ENDBRANCH  11  22
BRANCH   1  30
ATOM     30  C   UNL     1       1.724   3.801   2.343  0.00  0.00    +0.339 C 
ATOM     31  O   UNL     1       1.860   4.075   3.522  0.00  0.00    -0.245 OA
BRANCH  30  32
ATOM     32  O   UNL     1       0.504   3.877   1.768  0.00  0.00    -0.462 OA
BRANCH  32  34
ATOM     33  C   UNL     1      -1.877   4.291   1.797  0.00  0.00    +0.048 C 
ATOM     34  C   UNL     1      -0.560   4.394   2.570  0.00  0.00    +0.229 C 
ENDBRANCH  32  34
ENDBRANCH  30  32
ENDBRANCH   1  30
TORSDOF 7
