REMARK  Name = ZINC04089031
REMARK  2 active torsions:
REMARK  status: ('A' for Active; 'I' for Inactive)
REMARK    1  A    between atoms: C_1  and  N_53
REMARK    2  A    between atoms: C_3  and  C_26
REMARK                            x       y       z     vdW  Elec       q    Type
REMARK                         _______ _______ _______ _____ _____    ______ ____
ROOT
ATOM      1  C   UNL     1       7.949   3.418  -0.625  0.00  0.00    -0.094 C 
ATOM      2  C   UNL     1       6.902   2.070   1.122  0.00  0.00    -0.068 C 
ATOM      3  C   UNL     1       5.590   1.260   1.259  0.00  0.00    +0.019 C 
ATOM      4  C   UNL     1       4.908   1.364  -0.116  0.00  0.00    +0.076 C 
ATOM      5  C   UNL     1       5.925   2.104  -0.994  0.00  0.00    +0.056 C 
ATOM      6  C   UNL     1       5.322   2.890  -2.104  0.00  0.00    -0.027 A 
ATOM      7  C   UNL     1       4.596   4.061  -2.137  0.00  0.00    +0.004 A 
ATOM      8  C   UNL     1       4.160   4.510  -3.378  0.00  0.00    +0.000 A 
ATOM      9  C   UNL     1       4.453   3.821  -4.537  0.00  0.00    +0.002 A 
ATOM     10  C   UNL     1       5.210   2.660  -4.522  0.00  0.00    +0.023 A 
ATOM     11  C   UNL     1       5.676   2.217  -3.285  0.00  0.00    +0.036 A 
ATOM     12  N   UNL     1       6.485   1.131  -2.993  0.00  0.00    -0.286 N 
ATOM     13  C   UNL     1       6.825   1.105  -1.685  0.00  0.00    +0.212 C 
ATOM     14  O   UNL     1       7.675   0.406  -1.178  0.00  0.00    -0.277 OA
ATOM     15  C   UNL     1       4.591   0.006  -0.725  0.00  0.00    +0.243 C 
ATOM     16  O   UNL     1       3.538  -0.636  -0.000  0.00  0.00    -0.490 OA
ATOM     17  C   UNL     1       2.357   0.028   0.056  0.00  0.00    +0.131 A 
ATOM     18  C   UNL     1       1.157  -0.664   0.100  0.00  0.00    +0.046 A 
ATOM     19  C   UNL     1      -0.036   0.030   0.147  0.00  0.00    +0.004 A 
ATOM     20  C   UNL     1      -0.045   1.416   0.148  0.00  0.00    +0.001 A 
ATOM     21  C   UNL     1       1.138   2.122   0.108  0.00  0.00    +0.015 A 
ATOM     22  C   UNL     1       2.353   1.433   0.067  0.00  0.00    +0.060 A 
ATOM     23  C   UNL     1       3.633   2.158   0.043  0.00  0.00    +0.176 C 
ATOM     24  O   UNL     1       3.658   3.363   0.169  0.00  0.00    -0.291 OA
ATOM     25  H   UNL     1       6.789   0.488  -3.650  0.00  0.00    +0.155 HD
ATOM     26  N   UNL     1       6.658   2.924  -0.035  0.00  0.00    +0.391 N 
ATOM     27  H   UNL     1       6.088   3.732   0.242  0.00  0.00    -0.080 HD
ENDROOT
BRANCH   3  28
ATOM     28  C   UNL     1       5.891  -0.158   1.671  0.00  0.00    -0.045 A 
ATOM     29  C   UNL     1       7.068  -0.760   1.267  0.00  0.00    +0.004 A 
ATOM     30  C   UNL     1       7.346  -2.059   1.649  0.00  0.00    +0.000 A 
ATOM     31  C   UNL     1       6.443  -2.760   2.425  0.00  0.00    +0.000 A 
ATOM     32  C   UNL     1       5.263  -2.160   2.825  0.00  0.00    +0.000 A 
ATOM     33  C   UNL     1       4.987  -0.859   2.447  0.00  0.00    +0.004 A 
ENDBRANCH   3  28
TORSDOF 1
