REMARK  Name = ZINC01825338
REMARK  10 active torsions:
REMARK  status: ('A' for Active; 'I' for Inactive)
REMARK    1  A    between atoms: C_1  and  C_2
REMARK    2  A    between atoms: C_3  and  C_38
REMARK    3  A    between atoms: C_4  and  C_24
REMARK    4  A    between atoms: N_17  and  C_20
REMARK    5  A    between atoms: C_27  and  O_30
REMARK    6  A    between atoms: O_30  and  C_31
REMARK    7  A    between atoms: C_31  and  C_33
REMARK    8  A    between atoms: C_38  and  O_40
REMARK    9  A    between atoms: O_40  and  C_41
REMARK   10  A    between atoms: C_41  and  C_42
REMARK                            x       y       z     vdW  Elec       q    Type
REMARK                         _______ _______ _______ _____ _____    ______ ____
ROOT
ATOM      1  C   UNL     1       0.296   1.400   0.164  0.00  0.00    +0.066 C 
ATOM      2  C   UNL     1       0.211  -0.103   0.097  0.00  0.00    +0.053 C 
ATOM      3  C   UNL     1      -1.011  -0.711   0.092  0.00  0.00    +0.085 C 
ATOM      4  C   UNL     1      -1.054  -2.220   0.024  0.00  0.00    +0.162 C 
ATOM      5  N   UNL     1       0.252  -2.935  -0.034  0.00  0.00    -0.275 N 
ATOM      6  C   UNL     1       0.418  -4.263  -0.099  0.00  0.00    +0.269 A 
ATOM      7  O   UNL     1      -0.536  -5.016  -0.115  0.00  0.00    -0.266 OA
ATOM      8  C   UNL     1       1.804  -4.782  -0.150  0.00  0.00    +0.093 A 
ATOM      9  C   UNL     1       2.252  -6.087  -0.220  0.00  0.00    +0.065 C 
ATOM     10  C   UNL     1       3.652  -6.557  -0.264  0.00  0.00    +0.010 A 
ATOM     11  C   UNL     1       4.879  -5.899  -0.250  0.00  0.00    +0.010 A 
ATOM     12  C   UNL     1       6.048  -6.631  -0.302  0.00  0.00    +0.001 A 
ATOM     13  C   UNL     1       5.999  -8.014  -0.369  0.00  0.00    +0.002 A 
ATOM     14  C   UNL     1       4.788  -8.675  -0.383  0.00  0.00    +0.024 A 
ATOM     15  C   UNL     1       3.599  -7.957  -0.331  0.00  0.00    +0.044 A 
ATOM     16  N   UNL     1       2.271  -8.367  -0.331  0.00  0.00    -0.270 N 
ATOM     17  C   UNL     1       1.434  -7.317  -0.261  0.00  0.00    +0.252 C 
ATOM     18  O   UNL     1       0.219  -7.370  -0.240  0.00  0.00    -0.270 OA
ATOM     19  C   UNL     1       1.838  -9.765  -0.392  0.00  0.00    +0.138 C 
ATOM     20  S   UNL     1       2.741  -3.262  -0.099  0.00  0.00    -0.045 S 
ATOM     21  C   UNL     1       1.367  -2.129  -0.019  0.00  0.00    +0.178 A 
ATOM     22  N   UNL     1       1.325  -0.824   0.036  0.00  0.00    -0.228 NA
ENDROOT
BRANCH   4  23
ATOM     23  C   UNL     1      -1.800  -2.719   1.235  0.00  0.00    -0.020 A 
ATOM     24  C   UNL     1      -1.158  -2.801   2.456  0.00  0.00    +0.009 A 
ATOM     25  C   UNL     1      -1.840  -3.258   3.567  0.00  0.00    +0.047 A 
ATOM     26  C   UNL     1      -3.171  -3.633   3.457  0.00  0.00    +0.132 A 
ATOM     27  C   UNL     1      -3.813  -3.549   2.230  0.00  0.00    +0.047 A 
ATOM     28  C   UNL     1      -3.128  -3.087   1.123  0.00  0.00    +0.009 A 
BRANCH  26  29
ATOM     29  O   UNL     1      -3.844  -4.083   4.548  0.00  0.00    -0.420 OA
BRANCH  29  30
ATOM     30  C   UNL     1      -4.125  -3.200   5.528  0.00  0.00    +0.380 C 
ATOM     31  O   UNL     1      -3.873  -2.020   5.373  0.00  0.00    -0.241 OA
BRANCH  30  32
ATOM     32  C   UNL     1      -4.736  -3.660   6.777  0.00  0.00    +0.212 A 
ATOM     33  C   UNL     1      -5.076  -2.875   7.842  0.00  0.00    +0.056 A 
ATOM     34  C   UNL     1      -5.625  -3.727   8.812  0.00  0.00    +0.042 A 
ATOM     35  C   UNL     1      -5.597  -4.979   8.304  0.00  0.00    +0.196 A 
ATOM     36  O   UNL     1      -5.066  -4.934   7.075  0.00  0.00    -0.456 OA
ENDBRANCH  30  32
ENDBRANCH  29  30
ENDBRANCH  26  29
ENDBRANCH   4  23
BRANCH   3  37
ATOM     37  C   UNL     1      -2.197   0.044   0.151  0.00  0.00    +0.340 C 
ATOM     38  O   UNL     1      -2.142   1.260   0.206  0.00  0.00    -0.245 OA
BRANCH  37  39
ATOM     39  O   UNL     1      -3.395  -0.578   0.146  0.00  0.00    -0.457 OA
BRANCH  39  40
ATOM     40  C   UNL     1      -4.557   0.252   0.207  0.00  0.00    +0.259 C 
BRANCH  40  41
ATOM     41  C   UNL     1      -5.792  -0.612   0.191  0.00  0.00    +0.006 C 
ATOM     42  C   UNL     1      -6.773  -0.368   1.025  0.00  0.00    +0.007 C 
ENDBRANCH  40  41
ENDBRANCH  39  40
ENDBRANCH  37  39
ENDBRANCH   3  37
TORSDOF 8
