REMARK  Name = ZINC06511807
REMARK  18 active torsions:
REMARK  status: ('A' for Active; 'I' for Inactive)
REMARK    1  A    between atoms: C_1  and  C_2
REMARK    2  A    between atoms: C_2  and  N_3
REMARK    3  A    between atoms: N_3  and  C_4
REMARK    4  A    between atoms: N_3  and  C_6
REMARK    5  A    between atoms: C_4  and  C_5
REMARK    6  A    between atoms: C_6  and  C_7
REMARK    7  A    between atoms: C_7  and  N_8
REMARK    8  A    between atoms: N_8  and  C_9
REMARK    9  A    between atoms: C_9  and  C_11
REMARK   10  A    between atoms: C_9  and  C_16
REMARK   11  A    between atoms: N_18  and  C_19
REMARK   12  A    between atoms: C_19  and  C_20
REMARK   13  A    between atoms: C_19  and  C_21
REMARK   14  A    between atoms: C_19  and  C_22
REMARK   15  A    between atoms: C_23  and  C_25
REMARK   16  A    between atoms: C_25  and  N_26
REMARK   17  A    between atoms: C_28  and  C_31
REMARK   18  A    between atoms: C_34  and  C_36
REMARK                            x       y       z     vdW  Elec       q    Type
REMARK                         _______ _______ _______ _____ _____    ______ ____
ROOT
ATOM      1  N   UNL     1       2.752  -3.530   2.556  0.00  0.00    -0.286 N 
ATOM      2  C   UNL     1       1.887  -4.557   2.673  0.00  0.00    +0.240 C 
ATOM      3  O   UNL     1       2.259  -5.691   2.455  0.00  0.00    -0.273 OA
ENDROOT
BRANCH   1   4
ATOM      4  C   UNL     1       2.303  -2.160   2.819  0.00  0.00    +0.090 C 
BRANCH   4   5
ATOM      5  C   UNL     1       1.693  -1.570   1.546  0.00  0.00    -0.060 C 
BRANCH   5   6
ATOM      6  N   UNL     1       1.131  -0.245   1.841  0.00  0.00    +0.380 N 
ATOM      7  H   UNL     1       0.488  -0.318   2.615  0.00  0.00    -0.082 HD
BRANCH   6   9
ATOM      8  C   UNL     1       1.623   2.024   2.618  0.00  0.00    -0.017 C 
ATOM      9  C   UNL     1       2.217   0.680   2.191  0.00  0.00    -0.082 C 
ENDBRANCH   6   9
BRANCH   6  10
ATOM     10  C   UNL     1       0.420   0.259   0.659  0.00  0.00    -0.082 C 
ATOM     11  C   UNL     1      -0.803  -0.620   0.386  0.00  0.00    -0.017 C 
ENDBRANCH   6  10
ENDBRANCH   5   6
ENDBRANCH   4   5
ENDBRANCH   1   4
BRANCH   1  12
ATOM     12  C   UNL     1       4.141  -3.783   2.166  0.00  0.00    +0.199 C 
BRANCH  12  13
ATOM     13  C   UNL     1       4.828  -4.581   3.244  0.00  0.00    +0.019 A 
ATOM     14  C   UNL     1       6.052  -4.394   3.796  0.00  0.00    +0.013 A 
ATOM     15  C   UNL     1       6.481  -5.260   4.783  0.00  0.00    +0.008 A 
ATOM     16  C   UNL     1       5.666  -6.271   5.171  0.00  0.00    +0.045 A 
ATOM     17  S   UNL     1       4.238  -6.013   4.131  0.00  0.00    -0.099 S 
ENDBRANCH  12  13
BRANCH  12  18
ATOM     18  C   UNL     1       4.167  -4.558   0.874  0.00  0.00    +0.239 C 
ATOM     19  O   UNL     1       3.127  -4.868   0.332  0.00  0.00    -0.273 OA
ATOM     20  N   UNL     1       5.345  -4.906   0.320  0.00  0.00    -0.309 N 
ATOM     21  H   UNL     1       6.177  -4.658   0.753  0.00  0.00    +0.149 HD
BRANCH  20  22
ATOM     22  C   UNL     1       5.370  -5.659  -0.936  0.00  0.00    +0.026 C 
ATOM     23  C   UNL     1       4.673  -4.849  -2.031  0.00  0.00    +0.031 C 
ATOM     24  C   UNL     1       6.821  -5.924  -1.344  0.00  0.00    +0.031 C 
ATOM     25  C   UNL     1       4.643  -6.992  -0.747  0.00  0.00    +0.031 C 
ENDBRANCH  20  22
ENDBRANCH  12  18
ENDBRANCH   1  12
BRANCH   2  26
ATOM     26  C   UNL     1       0.458  -4.297   3.074  0.00  0.00    +0.264 C 
BRANCH  26  27
ATOM     27  N   UNL     1      -0.273  -5.565   3.130  0.00  0.00    -0.154 N 
ATOM     28  N   UNL     1      -0.904  -6.105   2.145  0.00  0.00    -0.127 NA
ATOM     29  C   UNL     1      -1.433  -7.235   2.576  0.00  0.00    +0.239 A 
ATOM     30  N   UNL     1      -1.091  -7.351   3.869  0.00  0.00    -0.105 NA
ATOM     31  N   UNL     1      -0.379  -6.317   4.169  0.00  0.00    -0.045 NA
BRANCH  29  32
ATOM     32  C   UNL     1      -2.246  -8.188   1.789  0.00  0.00    +0.175 A 
ATOM     33  C   UNL     1      -2.788  -9.345   2.251  0.00  0.00    +0.053 A 
ATOM     34  C   UNL     1      -3.476  -9.931   1.170  0.00  0.00    +0.045 A 
ATOM     35  C   UNL     1      -3.321  -9.111   0.112  0.00  0.00    +0.103 A 
ATOM     36  O   UNL     1      -2.583  -8.055   0.492  0.00  0.00    -0.457 OA
ATOM     37  C   UNL     1      -3.888  -9.336  -1.266  0.00  0.00    +0.086 C 
ENDBRANCH  29  32
ENDBRANCH  26  27
ENDBRANCH   2  26
TORSDOF 12
