REMARK  Name = ZINC33811830
REMARK  4 active torsions:
REMARK  status: ('A' for Active; 'I' for Inactive)
REMARK    1  A    between atoms: C_1  and  N_2
REMARK    2  A    between atoms: C_14  and  N_16
REMARK    3  A    between atoms: N_16  and  S_17
REMARK    4  A    between atoms: S_17  and  C_20
REMARK                            x       y       z     vdW  Elec       q    Type
REMARK                         _______ _______ _______ _____ _____    ______ ____
ROOT
ATOM      1  C   UNL     1       2.910   7.350  -6.248  0.00  0.00    -0.095 C 
ATOM      2  N   UNL     1       2.190   6.096  -5.989  0.00  0.00    +0.383 N 
ATOM      3  C   UNL     1       1.185   5.842  -7.027  0.00  0.00    -0.074 C 
ATOM      4  C   UNL     1       0.535   4.473  -6.950  0.00  0.00    +0.017 C 
ATOM      5  C   UNL     1       0.380   3.975  -5.543  0.00  0.00    -0.047 A 
ATOM      6  C   UNL     1      -0.217   2.777  -5.217  0.00  0.00    +0.004 A 
ATOM      7  C   UNL     1      -0.204   2.352  -3.897  0.00  0.00    +0.001 A 
ATOM      8  C   UNL     1       0.415   3.097  -2.909  0.00  0.00    +0.005 A 
ATOM      9  C   UNL     1       1.021   4.300  -3.233  0.00  0.00    -0.027 A 
ATOM     10  C   UNL     1       0.933   4.737  -4.530  0.00  0.00    -0.053 A 
ATOM     11  C   UNL     1       1.543   6.122  -4.670  0.00  0.00    -0.036 C 
ATOM     12  C   UNL     1       2.511   6.208  -3.483  0.00  0.00    +0.014 C 
ATOM     13  C   UNL     1       1.802   5.315  -2.429  0.00  0.00    +0.105 C 
ATOM     14  H   UNL     1       2.929   5.281  -6.006  0.00  0.00    -0.081 HD
ENDROOT
BRANCH  13  15
ATOM     15  N   UNL     1       2.791   4.642  -1.583  0.00  0.00    -0.182 NA
ATOM     16  H   UNL     1       3.697   4.210  -2.034  0.00  0.00    +0.149 HD
BRANCH  15  17
ATOM     17  S   UNL     1       2.439   4.311   0.001  0.00  0.00    +0.065 S 
ATOM     18  O   UNL     1       1.928   5.512   0.562  0.00  0.00    -0.153 OA
ATOM     19  O   UNL     1       3.571   3.640   0.537  0.00  0.00    -0.153 OA
BRANCH  17  20
ATOM     20  C   UNL     1       1.115   3.148   0.008  0.00  0.00    +0.144 A 
ATOM     21  C   UNL     1       1.169   1.794   0.001  0.00  0.00    +0.038 A 
ATOM     22  C   UNL     1      -0.013   1.076   0.008  0.00  0.00    +0.030 A 
ATOM     23  C   UNL     1      -1.190   1.749   0.017  0.00  0.00    +0.080 A 
ATOM     24  S   UNL     1      -0.644   3.448   0.026  0.00  0.00    -0.057 S 
ATOM     25 CL   UNL     1      -2.809   1.120   0.022  0.00  0.00    -0.076 Cl
ENDBRANCH  17  20
ENDBRANCH  15  17
ENDBRANCH  13  15
TORSDOF 3
