REMARK  Name = ZINC50397307
REMARK  4 active torsions:
REMARK  status: ('A' for Active; 'I' for Inactive)
REMARK    1  A    between atoms: C_3  and  N_20
REMARK    2  A    between atoms: C_4  and  C_16
REMARK    3  A    between atoms: C_6  and  N_7
REMARK    4  A    between atoms: N_7  and  C_8
REMARK                            x       y       z     vdW  Elec       q    Type
REMARK                         _______ _______ _______ _____ _____    ______ ____
ROOT
ATOM      1  C   UNL     1      -0.017   1.384   0.010  0.00  0.00    +0.025 A 
ATOM      2  C   UNL     1       1.170   2.091   0.002  0.00  0.00    +0.025 A 
ATOM      3  C   UNL     1       2.381   1.413  -0.013  0.00  0.00    +0.036 A 
ATOM      4  C   UNL     1       2.400   0.025  -0.021  0.00  0.00    +0.077 A 
ATOM      5  C   UNL     1       1.214  -0.682  -0.014  0.00  0.00    +0.037 A 
ATOM      6  C   UNL     1       0.002  -0.004   0.002  0.00  0.00    +0.028 A 
ENDROOT
BRANCH   4   7
ATOM      7  C   UNL     1       3.715  -0.711  -0.037  0.00  0.00    +0.419 C 
ATOM      8  F   UNL     1       3.478  -2.090  -0.042  0.00  0.00    -0.166 F 
ATOM      9  F   UNL     1       4.433  -0.357  -1.185  0.00  0.00    -0.166 F 
ATOM     10  F   UNL     1       4.455  -0.369   1.100  0.00  0.00    -0.166 F 
ENDBRANCH   4   7
BRANCH   3  11
ATOM     11  N   UNL     1       3.584   2.130  -0.021  0.00  0.00    -0.358 N 
ATOM     12  H   UNL     1       3.571   3.099  -0.016  0.00  0.00    +0.142 HD
ATOM     13  H   UNL     1       4.431   1.656  -0.032  0.00  0.00    +0.142 HD
ENDBRANCH   3  11
BRANCH   6  14
ATOM     14  N   UNL     1      -1.201  -0.721   0.010  0.00  0.00    -0.333 N 
ATOM     15  H   UNL     1      -1.188  -1.690   0.005  0.00  0.00    +0.147 HD
BRANCH  14  16
ATOM     16  C   UNL     1      -2.479  -0.005   0.027  0.00  0.00    +0.157 C 
ATOM     17  C   UNL     1      -3.555  -0.901   0.647  0.00  0.00    +0.033 C 
ATOM     18  C   UNL     1      -4.923  -0.252   0.406  0.00  0.00    +0.021 C 
ATOM     19  C   UNL     1      -5.227  -0.292  -1.093  0.00  0.00    +0.104 C 
ATOM     20  N   UNL     1      -4.105   0.243  -1.854  0.00  0.00    -0.314 N 
ATOM     21  C   UNL     1      -2.866   0.357  -1.378  0.00  0.00    +0.233 C 
ATOM     22  O   UNL     1      -2.005   0.779  -2.120  0.00  0.00    -0.274 OA
ATOM     23  H   UNL     1      -4.271   0.533  -2.765  0.00  0.00    +0.149 HD
ENDBRANCH  14  16
ENDBRANCH   6  14
TORSDOF 4
