REMARK  Name = ZINC12544802
REMARK  8 active torsions:
REMARK  status: ('A' for Active; 'I' for Inactive)
REMARK    1  A    between atoms: C_3  and  C_18
REMARK    2  A    between atoms: C_5  and  S_7
REMARK    3  A    between atoms: S_7  and  N_10
REMARK    4  A    between atoms: N_10  and  C_11
REMARK    5  A    between atoms: N_20  and  C_21
REMARK    6  A    between atoms: C_21  and  C_22
REMARK    7  A    between atoms: C_22  and  C_24
REMARK    8  A    between atoms: C_22  and  N_29
REMARK                            x       y       z     vdW  Elec       q    Type
REMARK                         _______ _______ _______ _____ _____    ______ ____
ROOT
ATOM      1  C   UNL     1      -0.062   1.446   0.292  0.00  0.00    +0.003 A 
ATOM      2  C   UNL     1       1.128   2.137   0.185  0.00  0.00    +0.013 A 
ATOM      3  C   UNL     1       2.321   1.440  -0.008  0.00  0.00    +0.039 A 
ATOM      4  C   UNL     1       2.303   0.046  -0.091  0.00  0.00    +0.042 A 
ATOM      5  C   UNL     1       1.107  -0.632   0.018  0.00  0.00    +0.111 A 
ATOM      6  C   UNL     1      -0.073   0.065   0.209  0.00  0.00    +0.029 A 
ENDROOT
BRANCH   3   7
ATOM      7  C   UNL     1       3.599   2.174  -0.124  0.00  0.00    +0.244 C 
ATOM      8  O   UNL     1       4.637   1.563  -0.292  0.00  0.00    -0.270 OA
ATOM      9  N   UNL     1       3.614   3.519  -0.044  0.00  0.00    -0.312 N 
ATOM     10  H   UNL     1       2.786   4.006   0.090  0.00  0.00    +0.149 HD
BRANCH   9  11
ATOM     11  C   UNL     1       4.880   4.246  -0.159  0.00  0.00    +0.097 C 
BRANCH  11  12
ATOM     12  C   UNL     1       4.608   5.751  -0.139  0.00  0.00    +0.016 C 
BRANCH  12  13
ATOM     13  N   UNL     1       5.860   6.479  -0.387  0.00  0.00    +0.387 N 
ATOM     14  C   UNL     1       6.376   6.161  -1.743  0.00  0.00    -0.078 C 
ATOM     15  C   UNL     1       7.302   7.362  -2.061  0.00  0.00    -0.020 C 
ATOM     16  C   UNL     1       6.542   8.557  -1.441  0.00  0.00    -0.020 C 
ATOM     17  C   UNL     1       5.612   7.937  -0.382  0.00  0.00    -0.078 C 
ATOM     18  H   UNL     1       6.546   6.240   0.312  0.00  0.00    -0.081 HD
ENDBRANCH  12  13
BRANCH  12  19
ATOM     19  C   UNL     1       4.058   6.144   1.208  0.00  0.00    +0.093 A 
ATOM     20  C   UNL     1       2.761   6.348   1.499  0.00  0.00    +0.043 A 
ATOM     21  C   UNL     1       2.698   6.697   2.868  0.00  0.00    +0.041 A 
ATOM     22  C   UNL     1       3.961   6.684   3.332  0.00  0.00    +0.195 A 
ATOM     23  O   UNL     1       4.779   6.343   2.324  0.00  0.00    -0.469 OA
ENDBRANCH  12  19
ENDBRANCH  11  12
ENDBRANCH   9  11
ENDBRANCH   3   7
BRANCH   5  24
ATOM     24  S   UNL     1       1.081  -2.391  -0.087  0.00  0.00    +0.092 S 
ATOM     25  O   UNL     1      -0.229  -2.754  -0.500  0.00  0.00    -0.148 OA
ATOM     26  O   UNL     1       2.242  -2.771  -0.813  0.00  0.00    -0.148 OA
BRANCH  24  27
ATOM     27  N   UNL     1       1.271  -2.976   1.451  0.00  0.00    -0.098 NA
BRANCH  27  28
ATOM     28  C   UNL     1       1.290  -4.355   1.676  0.00  0.00    +0.074 A 
ATOM     29  C   UNL     1       1.155  -5.236   0.611  0.00  0.00    +0.028 A 
ATOM     30  C   UNL     1       1.174  -6.598   0.837  0.00  0.00    +0.017 A 
ATOM     31  C   UNL     1       1.327  -7.085   2.123  0.00  0.00    +0.018 A 
ATOM     32  C   UNL     1       1.461  -6.210   3.186  0.00  0.00    +0.017 A 
ATOM     33  C   UNL     1       1.449  -4.847   2.965  0.00  0.00    +0.028 A 
ATOM     34 BR   UNL     1       1.351  -8.951   2.428  0.00  0.00    -0.050 Br
ENDBRANCH  27  28
ENDBRANCH  24  27
ENDBRANCH   5  24
TORSDOF 8
