REMARK  Name = ZINC36534813
REMARK  11 active torsions:
REMARK  status: ('A' for Active; 'I' for Inactive)
REMARK    1  A    between atoms: C_1  and  C_2
REMARK    2  A    between atoms: C_5  and  S_8
REMARK    3  A    between atoms: S_8  and  C_11
REMARK    4  A    between atoms: C_11  and  N_12
REMARK    5  A    between atoms: C_13  and  C_15
REMARK    6  A    between atoms: C_15  and  C_17
REMARK    7  A    between atoms: C_15  and  N_30
REMARK    8  A    between atoms: C_17  and  C_18
REMARK    9  A    between atoms: C_17  and  C_24
REMARK   10  A    between atoms: N_30  and  C_31
REMARK   11  A    between atoms: C_32  and  C_34
REMARK                            x       y       z     vdW  Elec       q    Type
REMARK                         _______ _______ _______ _____ _____    ______ ____
ROOT
ATOM      1  C   UNL     1       4.183  -4.765   3.082  0.00  0.00    +0.173 C 
ENDROOT
BRANCH   1   3
ATOM      2  N   UNL     1       3.322  -4.546   0.773  0.00  0.00    -0.295 N 
ATOM      3  C   UNL     1       3.714  -5.355   1.777  0.00  0.00    +0.236 C 
ATOM      4  O   UNL     1       3.689  -6.559   1.631  0.00  0.00    -0.274 OA
ATOM      5  H   UNL     1       3.253  -3.590   0.920  0.00  0.00    +0.150 HD
BRANCH   2   6
ATOM      6  C   UNL     1       3.001  -5.111  -0.540  0.00  0.00    +0.278 C 
BRANCH   6   7
ATOM      7  S   UNL     1       1.376  -5.914  -0.472  0.00  0.00    +0.013 S 
ATOM      8  O   UNL     1       1.254  -6.672   0.724  0.00  0.00    -0.168 OA
ATOM      9  O   UNL     1       1.062  -6.492  -1.732  0.00  0.00    -0.168 OA
BRANCH   7  14
ATOM     10  C   UNL     1      -2.566  -1.391   0.169  0.00  0.00    +0.044 C 
ATOM     11  C   UNL     1      -1.581  -2.520   0.009  0.00  0.00    -0.050 A 
ATOM     12  C   UNL     1      -1.005  -2.765  -1.223  0.00  0.00    +0.005 A 
ATOM     13  C   UNL     1      -0.102  -3.802  -1.370  0.00  0.00    +0.027 A 
ATOM     14  C   UNL     1       0.226  -4.592  -0.284  0.00  0.00    +0.090 A 
ATOM     15  C   UNL     1      -0.350  -4.346   0.948  0.00  0.00    +0.027 A 
ATOM     16  C   UNL     1      -1.250  -3.307   1.096  0.00  0.00    +0.005 A 
ENDBRANCH   7  14
ENDBRANCH   6   7
ENDBRANCH   2   6
ENDBRANCH   1   3
BRANCH   1  17
ATOM     17  N   UNL     1       4.864  -5.796   3.868  0.00  0.00    -0.288 N 
ATOM     18  C   UNL     1       4.144  -7.008   4.267  0.00  0.00    +0.133 C 
ATOM     19  C   UNL     1       6.153  -5.630   4.225  0.00  0.00    +0.247 C 
ATOM     20  O   UNL     1       6.722  -4.584   3.980  0.00  0.00    -0.270 OA
BRANCH  19  21
ATOM     21  C   UNL     1       6.876  -6.721   4.913  0.00  0.00    +0.037 A 
ATOM     22  C   UNL     1       6.609  -8.052   4.590  0.00  0.00    +0.013 A 
ATOM     23  C   UNL     1       7.287  -9.065   5.236  0.00  0.00    +0.001 A 
ATOM     24  C   UNL     1       8.231  -8.763   6.202  0.00  0.00    +0.000 A 
ATOM     25  C   UNL     1       8.501  -7.446   6.527  0.00  0.00    +0.001 A 
ATOM     26  C   UNL     1       7.833  -6.423   5.885  0.00  0.00    +0.013 A 
ENDBRANCH  19  21
ENDBRANCH   1  17
BRANCH   1  27
ATOM     27  C   UNL     1       2.979  -4.238   3.866  0.00  0.00    +0.078 C 
BRANCH  27  28
ATOM     28  C   UNL     1       3.385  -3.972   5.292  0.00  0.00    -0.038 A 
ATOM     29  C   UNL     1       4.467  -3.154   5.562  0.00  0.00    +0.004 A 
ATOM     30  C   UNL     1       4.839  -2.910   6.870  0.00  0.00    +0.000 A 
ATOM     31  C   UNL     1       4.131  -3.483   7.909  0.00  0.00    +0.000 A 
ATOM     32  C   UNL     1       3.049  -4.300   7.640  0.00  0.00    +0.000 A 
ATOM     33  C   UNL     1       2.673  -4.541   6.332  0.00  0.00    +0.004 A 
ENDBRANCH  27  28
BRANCH  27  34
ATOM     34  C   UNL     1       2.490  -2.960   3.236  0.00  0.00    -0.038 A 
ATOM     35  C   UNL     1       2.902  -1.740   3.738  0.00  0.00    +0.004 A 
ATOM     36  C   UNL     1       2.453  -0.567   3.160  0.00  0.00    +0.000 A 
ATOM     37  C   UNL     1       1.592  -0.614   2.080  0.00  0.00    +0.000 A 
ATOM     38  C   UNL     1       1.180  -1.834   1.577  0.00  0.00    +0.000 A 
ATOM     39  C   UNL     1       1.633  -3.007   2.152  0.00  0.00    +0.004 A 
ENDBRANCH  27  34
ENDBRANCH   1  27
TORSDOF 9
