REMARK  Name = ZINC39447426
REMARK  11 active torsions:
REMARK  status: ('A' for Active; 'I' for Inactive)
REMARK    1  A    between atoms: C_1  and  C_2
REMARK    2  A    between atoms: C_4  and  C_38
REMARK    3  A    between atoms: N_6  and  C_32
REMARK    4  A    between atoms: C_7  and  N_13
REMARK    5  A    between atoms: C_9  and  C_11
REMARK    6  A    between atoms: C_14  and  C_16
REMARK    7  A    between atoms: C_16  and  N_17
REMARK    8  A    between atoms: N_17  and  C_18
REMARK    9  A    between atoms: N_17  and  C_19
REMARK   10  A    between atoms: C_19  and  C_20
REMARK   11  A    between atoms: C_32  and  C_33
REMARK                            x       y       z     vdW  Elec       q    Type
REMARK                         _______ _______ _______ _____ _____    ______ ____
ROOT
ATOM      1  N   UNL     1       1.455  -2.987   1.103  0.00  0.00    -0.329 N 
ATOM      2  C   UNL     1       2.534  -3.741   1.391  0.00  0.00    +0.195 C 
ATOM      3  O   UNL     1       3.637  -3.237   1.413  0.00  0.00    -0.278 OA
ATOM      4  H   UNL     1       0.566  -3.372   1.153  0.00  0.00    +0.147 HD
ENDROOT
BRANCH   1   9
ATOM      5  C   UNL     1       1.194   1.696   2.383  0.00  0.00    +0.007 C 
ATOM      6  C   UNL     1       0.695   0.315   1.951  0.00  0.00    -0.011 C 
ATOM      7  C   UNL     1       0.259   0.330   0.465  0.00  0.00    -0.064 C 
ATOM      8  N   UNL     1       0.394  -1.092   0.057  0.00  0.00    +0.399 N 
ATOM      9  C   UNL     1       1.624  -1.584   0.714  0.00  0.00    +0.037 C 
ATOM     10  C   UNL     1       1.848  -0.714   1.968  0.00  0.00    +0.096 C 
ATOM     11  C   UNL     1      -1.192   0.798   0.332  0.00  0.00    -0.013 C 
ATOM     12  H   UNL     1      -0.405  -1.622   0.372  0.00  0.00    -0.078 HD
BRANCH  10  13
ATOM     13  C   UNL     1       1.781  -1.538   3.186  0.00  0.00    +0.066 C 
ATOM     14  N   UNL     1       1.729  -2.173   4.125  0.00  0.00    -0.196 NA
ENDBRANCH  10  13
BRANCH   8  15
ATOM     15  C   UNL     1       0.525  -1.190  -1.403  0.00  0.00    -0.000 C 
BRANCH  15  16
ATOM     16  C   UNL     1       0.511  -2.640  -1.812  0.00  0.00    +0.089 A 
ATOM     17  C   UNL     1      -0.571  -3.335  -2.207  0.00  0.00    +0.042 A 
ATOM     18  C   UNL     1      -0.131  -4.648  -2.494  0.00  0.00    +0.041 A 
ATOM     19  C   UNL     1       1.193  -4.677  -2.258  0.00  0.00    +0.195 A 
ATOM     20  O   UNL     1       1.577  -3.456  -1.850  0.00  0.00    -0.470 OA
ENDBRANCH  15  16
ENDBRANCH   8  15
ENDBRANCH   1   9
BRANCH   2  21
ATOM     21  C   UNL     1       2.370  -5.210   1.686  0.00  0.00    +0.019 C 
BRANCH  21  22
ATOM     22  N   UNL     1       3.693  -5.828   1.845  0.00  0.00    +0.388 N 
ATOM     23  C   UNL     1       4.411  -5.786   0.564  0.00  0.00    -0.095 C 
ATOM     24  H   UNL     1       4.219  -5.322   2.542  0.00  0.00    -0.081 HD
BRANCH  22  25
ATOM     25  C   UNL     1       3.532  -7.225   2.271  0.00  0.00    -0.003 C 
BRANCH  25  26
ATOM     26  C   UNL     1       4.887  -7.823   2.553  0.00  0.00    +0.094 A 
ATOM     27  N   UNL     1       4.948  -9.118   2.957  0.00  0.00    -0.312 N 
ATOM     28  H   UNL     1       4.130  -9.630   3.056  0.00  0.00    +0.170 HD
ATOM     29  C   UNL     1       6.140  -9.702   3.222  0.00  0.00    +0.259 A 
ATOM     30  O   UNL     1       6.209 -10.862   3.584  0.00  0.00    -0.267 OA
ATOM     31  C   UNL     1       7.348  -8.880   3.056  0.00  0.00    +0.065 A 
ATOM     32  C   UNL     1       8.622  -9.385   3.304  0.00  0.00    +0.015 A 
ATOM     33  C   UNL     1       9.720  -8.570   3.132  0.00  0.00    +0.001 A 
ATOM     34  C   UNL     1       9.565  -7.255   2.716  0.00  0.00    +0.002 A 
ATOM     35  C   UNL     1       8.314  -6.736   2.466  0.00  0.00    +0.028 A 
ATOM     36  C   UNL     1       7.186  -7.542   2.632  0.00  0.00    +0.078 A 
ATOM     37  N   UNL     1       5.936  -7.075   2.392  0.00  0.00    -0.236 NA
ENDBRANCH  25  26
ENDBRANCH  22  25
ENDBRANCH  21  22
ENDBRANCH   2  21
TORSDOF 8
