REMARK  Name = ZINC35756880
REMARK  12 active torsions:
REMARK  status: ('A' for Active; 'I' for Inactive)
REMARK    1  A    between atoms: C_1  and  C_2
REMARK    2  A    between atoms: C_7  and  C_8
REMARK    3  A    between atoms: C_8  and  N_9
REMARK    4  A    between atoms: C_10  and  C_31
REMARK    5  A    between atoms: C_12  and  C_17
REMARK    6  A    between atoms: C_20  and  N_23
REMARK    7  A    between atoms: C_24  and  C_26
REMARK    8  A    between atoms: N_33  and  C_34
REMARK    9  A    between atoms: C_34  and  C_35
REMARK   10  A    between atoms: C_35  and  N_36
REMARK   11  A    between atoms: N_36  and  C_37
REMARK   12  A    between atoms: N_36  and  C_38
REMARK                            x       y       z     vdW  Elec       q    Type
REMARK                         _______ _______ _______ _____ _____    ______ ____
ROOT
ATOM      1  N   UNL     1      -0.886   0.618   2.556  0.00  0.00    -0.248 N 
ATOM      2  C   UNL     1      -1.740   1.512   1.749  0.00  0.00    +0.210 C 
ATOM      3  C   UNL     1      -3.150   0.921   1.988  0.00  0.00    +0.238 C 
ATOM      4  O   UNL     1      -2.984   0.250   3.253  0.00  0.00    -0.440 OA
ATOM      5  C   UNL     1      -1.688  -0.087   3.375  0.00  0.00    +0.405 C 
ATOM      6  O   UNL     1      -1.284  -0.935   4.145  0.00  0.00    -0.226 OA
ENDROOT
BRANCH   3   7
ATOM      7  C   UNL     1      -4.182   2.014   2.090  0.00  0.00    -0.005 A 
ATOM      8  C   UNL     1      -4.327   2.718   3.272  0.00  0.00    +0.009 A 
ATOM      9  C   UNL     1      -5.272   3.721   3.368  0.00  0.00    +0.024 A 
ATOM     10  C   UNL     1      -6.076   4.022   2.276  0.00  0.00    +0.034 A 
ATOM     11  C   UNL     1      -5.927   3.314   1.091  0.00  0.00    +0.024 A 
ATOM     12  C   UNL     1      -4.977   2.316   1.000  0.00  0.00    +0.009 A 
BRANCH  10  13
ATOM     13  N   UNL     1      -7.034   5.037   2.371  0.00  0.00    -0.279 N 
ATOM     14  C   UNL     1      -8.176   4.954   1.659  0.00  0.00    +0.284 C 
ATOM     15  O   UNL     1      -8.425   3.947   1.024  0.00  0.00    -0.266 OA
ATOM     16  H   UNL     1      -6.877   5.800   2.949  0.00  0.00    +0.155 HD
BRANCH  14  17
ATOM     17  C   UNL     1      -9.117   6.078   1.651  0.00  0.00    +0.189 A 
ATOM     18  C   UNL     1     -10.306   6.123   0.981  0.00  0.00    +0.054 A 
ATOM     19  C   UNL     1     -10.875   7.377   1.254  0.00  0.00    +0.042 A 
ATOM     20  C   UNL     1     -10.020   8.034   2.068  0.00  0.00    +0.196 A 
ATOM     21  O   UNL     1      -8.964   7.246   2.309  0.00  0.00    -0.458 OA
ENDBRANCH  14  17
ENDBRANCH  10  13
ENDBRANCH   3   7
BRANCH   2  22
ATOM     22  C   UNL     1      -1.365   1.441   0.291  0.00  0.00    +0.238 C 
ATOM     23  O   UNL     1      -0.869   0.430  -0.159  0.00  0.00    -0.274 OA
ATOM     24  N   UNL     1      -1.580   2.501  -0.512  0.00  0.00    -0.315 N 
ATOM     25  H   UNL     1      -1.914   3.332  -0.140  0.00  0.00    +0.149 HD
BRANCH  24  26
ATOM     26  C   UNL     1      -1.310   2.399  -1.948  0.00  0.00    +0.085 C 
BRANCH  26  27
ATOM     27  C   UNL     1      -1.522   3.764  -2.606  0.00  0.00    -0.061 C 
BRANCH  27  28
ATOM     28  N   UNL     1      -1.250   3.662  -4.046  0.00  0.00    +0.377 N 
ATOM     29  C   UNL     1      -2.241   2.773  -4.668  0.00  0.00    -0.097 C 
ATOM     30  C   UNL     1      -1.337   4.995  -4.657  0.00  0.00    -0.097 C 
ATOM     31  H   UNL     1      -0.325   3.286  -4.188  0.00  0.00    -0.083 HD
ENDBRANCH  27  28
ENDBRANCH  26  27
ENDBRANCH  24  26
ENDBRANCH   2  22
BRANCH   1  32
ATOM     32  C   UNL     1       0.573   0.513   2.475  0.00  0.00    +0.147 C 
BRANCH  32  39
ATOM     33  C   UNL     1       1.175   0.092   5.269  0.00  0.00    +0.044 C 
ATOM     34  C   UNL     1       1.490   1.415   4.621  0.00  0.00    -0.046 A 
ATOM     35  C   UNL     1       2.072   2.427   5.363  0.00  0.00    +0.003 A 
ATOM     36  C   UNL     1       2.362   3.641   4.769  0.00  0.00    +0.000 A 
ATOM     37  C   UNL     1       2.069   3.844   3.433  0.00  0.00    +0.000 A 
ATOM     38  C   UNL     1       1.487   2.833   2.692  0.00  0.00    +0.005 A 
ATOM     39  C   UNL     1       1.202   1.617   3.284  0.00  0.00    -0.027 A 
ENDBRANCH  32  39
ENDBRANCH   1  32
TORSDOF 9
