REMARK  Name = ZINC12156160
REMARK  11 active torsions:
REMARK  status: ('A' for Active; 'I' for Inactive)
REMARK    1  A    between atoms: C_1  and  C_2
REMARK    2  A    between atoms: C_4  and  C_36
REMARK    3  A    between atoms: C_5  and  C_9
REMARK    4  A    between atoms: C_7  and  C_8
REMARK    5  A    between atoms: C_9  and  N_73
REMARK    6  A    between atoms: C_13  and  C_23
REMARK    7  A    between atoms: C_14  and  O_21
REMARK    8  A    between atoms: O_21  and  C_22
REMARK    9  A    between atoms: C_30  and  C_32
REMARK   10  A    between atoms: C_32  and  O_34
REMARK   11  A    between atoms: O_34  and  C_35
REMARK                            x       y       z     vdW  Elec       q    Type
REMARK                         _______ _______ _______ _____ _____    ______ ____
ROOT
ATOM      1  C   UNL     1      -8.093   3.371  -0.225  0.00  0.00    -0.072 C 
ATOM      2  C   UNL     1      -6.567   3.331  -0.158  0.00  0.00    +0.036 C 
ATOM      3  C   UNL     1      -5.972   2.833  -1.453  0.00  0.00    +0.036 A 
ATOM      4  C   UNL     1      -4.752   2.179  -1.365  0.00  0.00    +0.098 A 
ATOM      5  C   UNL     1      -4.092   1.717  -2.586  0.00  0.00    +0.139 A 
ATOM      6  C   UNL     1      -4.724   1.958  -3.790  0.00  0.00    +0.116 A 
ATOM      7  C   UNL     1      -5.953   2.618  -3.788  0.00  0.00    +0.255 A 
ATOM      8  O   UNL     1      -6.502   2.846  -4.854  0.00  0.00    -0.268 OA
ATOM      9  N   UNL     1      -6.557   3.015  -2.643  0.00  0.00    -0.313 N 
ATOM     10  C   UNL     1      -7.878   3.635  -2.786  0.00  0.00    +0.106 C 
ATOM     11  C   UNL     1      -7.947   4.965  -2.033  0.00  0.00    -0.056 C 
ATOM     12  N   UNL     1      -8.526   4.700  -0.703  0.00  0.00    +0.384 N 
ATOM     13  H   UNL     1      -9.550   4.711  -0.776  0.00  0.00    -0.081 HD
ENDROOT
BRANCH   4  14
ATOM     14  C   UNL     1      -4.123   1.955  -0.052  0.00  0.00    +0.253 C 
ATOM     15  O   UNL     1      -3.291   2.738   0.365  0.00  0.00    -0.270 OA
ATOM     16  N   UNL     1      -4.469   0.883   0.688  0.00  0.00    -0.284 N 
ATOM     17  C   UNL     1      -5.564   0.001   0.261  0.00  0.00    +0.109 C 
ATOM     18  C   UNL     1      -5.048  -1.441   0.220  0.00  0.00    +0.019 C 
ATOM     19  C   UNL     1      -4.445  -1.801   1.580  0.00  0.00    +0.004 C 
ATOM     20  C   UNL     1      -3.264  -0.874   1.877  0.00  0.00    +0.034 C 
ATOM     21  C   UNL     1      -3.760   0.575   1.937  0.00  0.00    +0.185 C 
BRANCH  21  22
ATOM     22  C   UNL     1      -2.584   1.505   2.094  0.00  0.00    +0.328 C 
ATOM     23  O   UNL     1      -1.670   1.460   1.305  0.00  0.00    -0.249 OA
BRANCH  22  24
ATOM     24  O   UNL     1      -2.554   2.382   3.109  0.00  0.00    -0.467 OA
ATOM     25  C   UNL     1      -1.391   3.247   3.198  0.00  0.00    +0.280 C 
ENDBRANCH  22  24
ENDBRANCH  21  22
ENDBRANCH   4  14
BRANCH   5  26
ATOM     26  O   UNL     1      -2.903   1.072  -2.538  0.00  0.00    -0.494 OA
ATOM     27  C   UNL     1      -2.284   0.757  -3.787  0.00  0.00    +0.277 C 
ENDBRANCH   5  26
BRANCH  12  28
ATOM     28  C   UNL     1      -8.101   5.745   0.252  0.00  0.00    -0.043 C 
BRANCH  28  33
ATOM     29  C   UNL     1     -10.521  10.768  -1.269  0.00  0.00    +0.044 C 
ATOM     30  C   UNL     1      -9.890   9.458  -0.872  0.00  0.00    -0.047 A 
ATOM     31  C   UNL     1     -10.631   8.514  -0.185  0.00  0.00    +0.007 A 
ATOM     32  C   UNL     1     -10.052   7.312   0.179  0.00  0.00    -0.049 A 
ATOM     33  C   UNL     1      -8.732   7.055  -0.144  0.00  0.00    -0.061 A 
ATOM     34  C   UNL     1      -7.991   8.001  -0.827  0.00  0.00    +0.005 A 
ATOM     35  C   UNL     1      -8.571   9.201  -1.195  0.00  0.00    -0.047 A 
ATOM     36  C   UNL     1      -7.764  10.230  -1.944  0.00  0.00    +0.044 C 
ATOM     37  C   UNL     1     -10.859   6.283   0.928  0.00  0.00    +0.044 C 
ENDBRANCH  28  33
ENDBRANCH  12  28
TORSDOF 6
