REMARK  Name = ZINC63476849
REMARK  7 active torsions:
REMARK  status: ('A' for Active; 'I' for Inactive)
REMARK    1  A    between atoms: C_1  and  C_2
REMARK    2  A    between atoms: C_11  and  C_15
REMARK    3  A    between atoms: N_17  and  C_18
REMARK    4  A    between atoms: N_17  and  C_19
REMARK    5  A    between atoms: N_22  and  C_25
REMARK    6  A    between atoms: C_25  and  C_26
REMARK    7  A    between atoms: C_25  and  C_27
REMARK                            x       y       z     vdW  Elec       q    Type
REMARK                         _______ _______ _______ _____ _____    ______ ____
ROOT
ATOM      1  C   UNL     1       2.986   0.575  -1.470  0.00  0.00    +0.008 C 
ATOM      2  C   UNL     1       2.719  -0.896  -1.145  0.00  0.00    -0.009 C 
ATOM      3  C   UNL     1       1.493  -1.377  -1.926  0.00  0.00    +0.009 C 
ATOM      4  C   UNL     1       1.373  -2.900  -1.798  0.00  0.00    +0.054 C 
ATOM      5  C   UNL     1       1.465  -3.269  -0.336  0.00  0.00    +0.020 A 
ATOM      6  C   UNL     1       1.945  -2.443   0.617  0.00  0.00    -0.019 A 
ATOM      7  C   UNL     1       1.867  -3.157   1.875  0.00  0.00    +0.004 A 
ATOM      8  C   UNL     1       2.215  -2.811   3.184  0.00  0.00    +0.010 A 
ATOM      9  C   UNL     1       1.998  -3.763   4.168  0.00  0.00    +0.001 A 
ATOM     10  C   UNL     1       1.462  -5.003   3.885  0.00  0.00    +0.015 A 
ATOM     11  C   UNL     1       1.104  -5.378   2.584  0.00  0.00    +0.061 A 
ATOM     12  C   UNL     1       1.316  -4.427   1.569  0.00  0.00    +0.059 A 
ATOM     13  N   UNL     1       1.087  -4.460   0.230  0.00  0.00    -0.357 N 
ATOM     14  H   UNL     1       0.713  -5.213  -0.254  0.00  0.00    +0.166 HD
ATOM     15  C   UNL     1       2.455  -1.048   0.358  0.00  0.00    +0.040 C 
ENDROOT
BRANCH  11  16
ATOM     16  C   UNL     1       0.532  -6.706   2.292  0.00  0.00    +0.249 C 
ATOM     17  O   UNL     1      -0.462  -6.801   1.599  0.00  0.00    -0.270 OA
ATOM     18  N   UNL     1       1.113  -7.815   2.793  0.00  0.00    -0.298 N 
ATOM     19  C   UNL     1       2.252  -7.696   3.707  0.00  0.00    +0.132 C 
BRANCH  18  20
ATOM     20  C   UNL     1       0.605  -9.138   2.424  0.00  0.00    +0.073 C 
ATOM     21  C   UNL     1       0.156  -9.884   3.684  0.00  0.00    +0.004 C 
ATOM     22  C   UNL     1      -0.298 -11.294   3.301  0.00  0.00    -0.077 C 
ATOM     23  N   UNL     1       0.814 -12.017   2.672  0.00  0.00    +0.381 N 
ATOM     24  C   UNL     1       1.202 -11.347   1.425  0.00  0.00    -0.077 C 
ATOM     25  C   UNL     1       1.715  -9.939   1.737  0.00  0.00    +0.004 C 
ATOM     26  H   UNL     1       1.601 -12.034   3.303  0.00  0.00    -0.081 HD
BRANCH  23  27
ATOM     27  C   UNL     1       0.396 -13.394   2.377  0.00  0.00    -0.075 C 
ATOM     28  C   UNL     1       1.555 -14.149   1.722  0.00  0.00    -0.014 C 
ATOM     29  C   UNL     1       0.000 -14.097   3.677  0.00  0.00    -0.014 C 
ENDBRANCH  23  27
ENDBRANCH  18  20
ENDBRANCH  11  16
TORSDOF 3
