REMARK  Name = ZINC34749367
REMARK  11 active torsions:
REMARK  status: ('A' for Active; 'I' for Inactive)
REMARK    1  A    between atoms: C_1  and  C_2
REMARK    2  A    between atoms: C_2  and  C_3
REMARK    3  A    between atoms: C_4  and  C_36
REMARK    4  A    between atoms: N_10  and  C_28
REMARK    5  A    between atoms: N_16  and  C_19
REMARK    6  A    between atoms: C_19  and  C_20
REMARK    7  A    between atoms: C_28  and  C_29
REMARK    8  A    between atoms: N_31  and  C_32
REMARK    9  A    between atoms: N_31  and  C_34
REMARK   10  A    between atoms: C_32  and  C_33
REMARK   11  A    between atoms: C_34  and  C_35
REMARK                            x       y       z     vdW  Elec       q    Type
REMARK                         _______ _______ _______ _____ _____    ______ ____
ROOT
ATOM      1  C   UNL     1       0.777  -0.451   1.259  0.00  0.00    -0.023 A 
ATOM      2  C   UNL     1       2.112  -0.581   1.266  0.00  0.00    -0.007 A 
ATOM      3  S   UNL     1       2.467  -1.124   2.927  0.00  0.00    -0.073 S 
ATOM      4  C   UNL     1       0.811  -1.161   3.564  0.00  0.00    +0.117 A 
ATOM      5  C   UNL     1       0.030  -0.745   2.470  0.00  0.00    +0.076 A 
ATOM      6  C   UNL     1      -1.380  -0.676   2.702  0.00  0.00    +0.264 A 
ATOM      7  O   UNL     1      -2.137  -0.330   1.811  0.00  0.00    -0.267 OA
ATOM      8  N   UNL     1      -1.860  -0.998   3.917  0.00  0.00    -0.271 N 
ATOM      9  C   UNL     1      -1.029  -1.387   4.926  0.00  0.00    +0.202 A 
ATOM     10  N   UNL     1       0.271  -1.470   4.737  0.00  0.00    -0.208 NA
ATOM     11  N   UNL     1      -1.557  -1.708   6.152  0.00  0.00    -0.304 N 
ATOM     12  C   UNL     1      -1.743  -0.679   7.188  0.00  0.00    +0.089 C 
ATOM     13  C   UNL     1      -1.120  -1.186   8.493  0.00  0.00    -0.059 C 
ATOM     14  N   UNL     1      -1.690  -2.496   8.830  0.00  0.00    +0.387 N 
ATOM     15  C   UNL     1      -1.319  -3.481   7.807  0.00  0.00    -0.059 C 
ATOM     16  C   UNL     1      -1.958  -3.088   6.466  0.00  0.00    +0.089 C 
ATOM     17  C   UNL     1       3.081  -0.328   0.140  0.00  0.00    +0.052 C 
ATOM     18  H   UNL     1      -2.696  -2.422   8.876  0.00  0.00    -0.081 HD
ENDROOT
BRANCH   1  20
ATOM     19  C   UNL     1      -0.043   1.526   0.007  0.00  0.00    +0.009 C 
ATOM     20  C   UNL     1       0.062  -0.001   0.012  0.00  0.00    +0.033 C 
ENDBRANCH   1  20
BRANCH  14  21
ATOM     21  C   UNL     1      -1.175  -2.930  10.136  0.00  0.00    +0.019 C 
BRANCH  21  22
ATOM     22  C   UNL     1      -1.852  -4.215  10.540  0.00  0.00    +0.199 C 
ATOM     23  O   UNL     1      -2.682  -4.718   9.813  0.00  0.00    -0.278 OA
ATOM     24  N   UNL     1      -1.536  -4.804  11.710  0.00  0.00    -0.303 N 
ATOM     25  C   UNL     1      -0.537  -4.203  12.605  0.00  0.00    +0.107 C 
ATOM     26  C   UNL     1      -1.156  -4.040  13.997  0.00  0.00    +0.019 C 
ATOM     27  C   UNL     1      -1.694  -5.391  14.473  0.00  0.00    +0.003 C 
ATOM     28  C   UNL     1      -2.783  -5.875  13.513  0.00  0.00    +0.019 C 
ATOM     29  C   UNL     1      -2.187  -6.056  12.119  0.00  0.00    +0.107 C 
ENDBRANCH  21  22
ENDBRANCH  14  21
BRANCH   8  30
ATOM     30  C   UNL     1      -3.303  -0.929   4.162  0.00  0.00    +0.224 C 
BRANCH  30  31
ATOM     31  C   UNL     1      -3.946  -2.226   3.744  0.00  0.00    +0.236 C 
ATOM     32  O   UNL     1      -3.266  -3.120   3.287  0.00  0.00    -0.274 OA
ATOM     33  N   UNL     1      -5.277  -2.393   3.878  0.00  0.00    -0.301 N 
BRANCH  33  34
ATOM     34  C   UNL     1      -5.902  -3.654   3.471  0.00  0.00    +0.104 C 
ATOM     35  C   UNL     1      -5.920  -4.619   4.658  0.00  0.00    +0.024 C 
ENDBRANCH  33  34
BRANCH  33  36
ATOM     36  C   UNL     1      -6.098  -1.312   4.429  0.00  0.00    +0.104 C 
ATOM     37  C   UNL     1      -6.584  -0.409   3.293  0.00  0.00    +0.024 C 
ENDBRANCH  33  36
ENDBRANCH  30  31
ENDBRANCH   8  30
TORSDOF 7
