REMARK  Name = ZINC64026063
REMARK  7 active torsions:
REMARK  status: ('A' for Active; 'I' for Inactive)
REMARK    1  A    between atoms: C_1  and  C_2
REMARK    2  A    between atoms: C_3  and  C_24
REMARK    3  A    between atoms: N_5  and  C_11
REMARK    4  A    between atoms: C_8  and  C_9
REMARK    5  A    between atoms: C_11  and  C_12
REMARK    6  A    between atoms: C_16  and  C_22
REMARK    7  A    between atoms: C_17  and  C_21
REMARK                            x       y       z     vdW  Elec       q    Type
REMARK                         _______ _______ _______ _____ _____    ______ ____
ROOT
ATOM      1  C   UNL     1      -0.278  -5.394   1.099  0.00  0.00    +0.154 A 
ATOM      2  N   UNL     1       0.855  -5.759   1.671  0.00  0.00    -0.215 NA
ATOM      3  C   UNL     1       0.900  -6.235   2.905  0.00  0.00    +0.128 A 
ATOM      4  C   UNL     1      -0.308  -6.360   3.644  0.00  0.00    +0.050 A 
ATOM      5  C   UNL     1      -0.524  -6.846   4.996  0.00  0.00    -0.028 A 
ATOM      6  C   UNL     1      -1.770  -6.873   5.491  0.00  0.00    -0.008 A 
ATOM      7  S   UNL     1      -2.763  -6.235   4.154  0.00  0.00    -0.074 S 
ATOM      8  C   UNL     1      -1.477  -5.950   2.967  0.00  0.00    +0.114 A 
ATOM      9  N   UNL     1      -1.430  -5.481   1.735  0.00  0.00    -0.223 NA
ATOM     10  C   UNL     1      -2.223  -7.333   6.853  0.00  0.00    +0.052 C 
ATOM     11  C   UNL     1       0.639  -7.316   5.832  0.00  0.00    +0.045 C 
ATOM     12  N   UNL     1       2.108  -6.607   3.468  0.00  0.00    -0.343 N 
ATOM     13  H   UNL     1       2.859  -6.834   2.898  0.00  0.00    +0.144 HD
ATOM     14  H   UNL     1       2.203  -6.640   4.433  0.00  0.00    +0.144 HD
ENDROOT
BRANCH   1  15
ATOM     15  C   UNL     1      -0.254  -4.860  -0.310  0.00  0.00    +0.223 C 
BRANCH  15  20
ATOM     16  C   UNL     1       0.237   0.829  -0.180  0.00  0.00    +0.047 C 
ATOM     17  C   UNL     1       0.176  -0.676  -0.217  0.00  0.00    -0.005 A 
ATOM     18  C   UNL     1      -1.051  -1.349  -0.201  0.00  0.00    +0.063 A 
ATOM     19  N   UNL     1      -1.108  -2.651  -0.233  0.00  0.00    -0.173 NA
ATOM     20  N   UNL     1      -0.073  -3.407  -0.279  0.00  0.00    -0.221 N 
ATOM     21  C   UNL     1       1.176  -2.901  -0.299  0.00  0.00    +0.285 A 
ATOM     22  O   UNL     1       2.147  -3.637  -0.343  0.00  0.00    -0.265 OA
ATOM     23  C   UNL     1       1.340  -1.442  -0.272  0.00  0.00    +0.122 A 
ATOM     24  C   UNL     1      -2.330  -0.554  -0.147  0.00  0.00    +0.068 C 
BRANCH  23  25
ATOM     25  C   UNL     1       2.636  -0.833  -0.297  0.00  0.00    +0.105 C 
ATOM     26  N   UNL     1       3.664  -0.350  -0.317  0.00  0.00    -0.191 NA
ENDBRANCH  23  25
ENDBRANCH  15  20
ENDBRANCH   1  15
TORSDOF 3
