REMARK  Name = ZINC39690707
REMARK  4 active torsions:
REMARK  status: ('A' for Active; 'I' for Inactive)
REMARK    1  A    between atoms: C_5  and  C_7
REMARK    2  A    between atoms: C_7  and  N_8
REMARK    3  A    between atoms: C_9  and  C_11
REMARK    4  A    between atoms: C_22  and  C_24
REMARK                            x       y       z     vdW  Elec       q    Type
REMARK                         _______ _______ _______ _____ _____    ______ ____
ROOT
ATOM      1  C   UNL     1       1.906  -4.525   2.861  0.00  0.00    +0.100 C 
ATOM      2  C   UNL     1       3.321  -4.155   3.361  0.00  0.00    +0.121 C 
ATOM      3  N   UNL     1       3.761  -5.333   4.144  0.00  0.00    -0.297 N 
ATOM      4  C   UNL     1       3.265  -6.497   3.371  0.00  0.00    +0.115 C 
ATOM      5  C   UNL     1       1.874  -6.063   2.869  0.00  0.00    -0.004 C 
ATOM      6  C   UNL     1       0.790  -6.564   3.818  0.00  0.00    -0.010 C 
ATOM      7  C   UNL     1       0.740  -8.094   3.765  0.00  0.00    -0.082 C 
ATOM      8  N   UNL     1       0.455  -8.528   2.393  0.00  0.00    +0.379 N 
ATOM      9  C   UNL     1       1.549  -8.122   1.501  0.00  0.00    -0.082 C 
ATOM     10  C   UNL     1       1.633  -6.593   1.459  0.00  0.00    -0.010 C 
ATOM     11  C   UNL     1       4.455  -5.345   5.300  0.00  0.00    +0.260 C 
ATOM     12  O   UNL     1       4.713  -4.302   5.863  0.00  0.00    -0.271 OA
ATOM     13  H   UNL     1       0.362  -9.533   2.372  0.00  0.00    -0.086 HD
ATOM     14  H   UNL     1      -0.406  -8.107   2.079  0.00  0.00    -0.086 HD
ENDROOT
BRANCH  11  15
ATOM     15  C   UNL     1       4.911  -6.653   5.892  0.00  0.00    +0.296 C 
ATOM     16  C   UNL     1       5.982  -7.284   4.991  0.00  0.00    +0.283 C 
ATOM     17  O   UNL     1       6.402  -8.515   5.588  0.00  0.00    -0.484 OA
ATOM     18  C   UNL     1       6.671  -8.487   6.923  0.00  0.00    +0.162 A 
ATOM     19  C   UNL     1       7.414  -9.512   7.489  0.00  0.00    +0.049 A 
ATOM     20  C   UNL     1       7.692  -9.499   8.843  0.00  0.00    +0.004 A 
ATOM     21  C   UNL     1       7.231  -8.464   9.636  0.00  0.00    +0.004 A 
ATOM     22  C   UNL     1       6.492  -7.439   9.077  0.00  0.00    +0.049 A 
ATOM     23  C   UNL     1       6.211  -7.445   7.719  0.00  0.00    +0.163 A 
ATOM     24  O   UNL     1       5.488  -6.424   7.182  0.00  0.00    -0.473 OA
ENDBRANCH  11  15
BRANCH   1  26
ATOM     25  N   UNL     1       0.438  -3.807   1.005  0.00  0.00    -0.311 N 
ATOM     26  C   UNL     1       1.690  -4.003   1.464  0.00  0.00    +0.218 C 
ATOM     27  O   UNL     1       2.642  -3.758   0.754  0.00  0.00    -0.275 OA
ATOM     28  H   UNL     1      -0.324  -4.002   1.573  0.00  0.00    +0.149 HD
BRANCH  25  29
ATOM     29  C   UNL     1       0.227  -3.299  -0.353  0.00  0.00    +0.140 C 
BRANCH  29  34
ATOM     30  C   UNL     1      -3.266  -4.029  -1.585  0.00  0.00    +0.000 A 
ATOM     31  C   UNL     1      -3.962  -2.935  -1.105  0.00  0.00    +0.001 A 
ATOM     32  C   UNL     1      -3.304  -1.959  -0.382  0.00  0.00    +0.015 A 
ATOM     33  C   UNL     1      -1.947  -2.076  -0.138  0.00  0.00    +0.023 A 
ATOM     34  C   UNL     1      -1.250  -3.171  -0.618  0.00  0.00    -0.016 A 
ATOM     35  C   UNL     1      -1.910  -4.146  -1.341  0.00  0.00    +0.006 A 
ATOM     36 BR   UNL     1      -1.045  -0.741   0.851  0.00  0.00    -0.050 Br
ENDBRANCH  29  34
ENDBRANCH  25  29
ENDBRANCH   1  26
TORSDOF 4
