REMARK  Name = ZINC39653996
REMARK  8 active torsions:
REMARK  status: ('A' for Active; 'I' for Inactive)
REMARK    1  A    between atoms: C_1  and  C_2
REMARK    2  A    between atoms: C_2  and  O_3
REMARK    3  A    between atoms: O_3  and  C_4
REMARK    4  A    between atoms: C_7  and  C_10
REMARK    5  A    between atoms: C_10  and  C_11
REMARK    6  A    between atoms: C_11  and  N_12
REMARK    7  A    between atoms: C_13  and  C_15
REMARK    8  A    between atoms: C_26  and  C_28
REMARK                            x       y       z     vdW  Elec       q    Type
REMARK                         _______ _______ _______ _____ _____    ______ ____
ROOT
ATOM      1  C   UNL     1      -2.572 -10.148   2.624  0.00  0.00    +0.100 C 
ATOM      2  C   UNL     1      -3.939 -10.576   2.045  0.00  0.00    +0.121 C 
ATOM      3  N   UNL     1      -4.346 -11.739   2.869  0.00  0.00    -0.297 N 
ATOM      4  C   UNL     1      -3.932 -11.379   4.246  0.00  0.00    +0.115 C 
ATOM      5  C   UNL     1      -2.571 -10.676   4.068  0.00  0.00    -0.004 C 
ATOM      6  C   UNL     1      -1.433 -11.672   4.266  0.00  0.00    -0.010 C 
ATOM      7  C   UNL     1      -1.419 -12.140   5.724  0.00  0.00    -0.082 C 
ATOM      8  N   UNL     1      -1.242 -10.983   6.610  0.00  0.00    +0.379 N 
ATOM      9  C   UNL     1      -2.388 -10.074   6.481  0.00  0.00    -0.082 C 
ATOM     10  C   UNL     1      -2.443  -9.519   5.054  0.00  0.00    -0.010 C 
ATOM     11  C   UNL     1      -4.956 -12.868   2.458  0.00  0.00    +0.260 C 
ATOM     12  O   UNL     1      -5.151 -13.057   1.276  0.00  0.00    -0.271 OA
ATOM     13  H   UNL     1      -1.172 -11.299   7.565  0.00  0.00    -0.086 HD
ATOM     14  H   UNL     1      -0.396 -10.493   6.357  0.00  0.00    -0.086 HD
ENDROOT
BRANCH  11  15
ATOM     15  C   UNL     1      -5.396 -13.897   3.468  0.00  0.00    +0.296 C 
ATOM     16  C   UNL     1      -6.541 -13.330   4.318  0.00  0.00    +0.283 C 
ATOM     17  O   UNL     1      -6.944 -14.335   5.255  0.00  0.00    -0.484 OA
ATOM     18  C   UNL     1      -7.115 -15.594   4.766  0.00  0.00    +0.162 A 
ATOM     19  C   UNL     1      -7.837 -16.519   5.506  0.00  0.00    +0.049 A 
ATOM     20  C   UNL     1      -8.017 -17.802   5.024  0.00  0.00    +0.004 A 
ATOM     21  C   UNL     1      -7.480 -18.166   3.804  0.00  0.00    +0.004 A 
ATOM     22  C   UNL     1      -6.761 -17.248   3.061  0.00  0.00    +0.049 A 
ATOM     23  C   UNL     1      -6.577 -15.959   3.538  0.00  0.00    +0.163 A 
ATOM     24  O   UNL     1      -5.874 -15.065   2.792  0.00  0.00    -0.473 OA
ENDBRANCH  11  15
BRANCH   1  26
ATOM     25  N   UNL     1      -1.226  -8.073   2.641  0.00  0.00    -0.315 N 
ATOM     26  C   UNL     1      -2.445  -8.646   2.614  0.00  0.00    +0.218 C 
ATOM     27  O   UNL     1      -3.440  -7.954   2.583  0.00  0.00    -0.275 OA
ATOM     28  H   UNL     1      -0.429  -8.626   2.666  0.00  0.00    +0.149 HD
BRANCH  25  29
ATOM     29  C   UNL     1      -1.102  -6.613   2.631  0.00  0.00    +0.109 C 
BRANCH  29  30
ATOM     30  C   UNL     1       0.378  -6.226   2.666  0.00  0.00    +0.054 C 
BRANCH  30  34
ATOM     31  C   UNL     1       0.738  -1.968   2.638  0.00  0.00    +0.121 A 
ATOM     32  C   UNL     1       0.648  -2.650   3.843  0.00  0.00    +0.046 A 
ATOM     33  C   UNL     1       0.532  -4.026   3.849  0.00  0.00    +0.007 A 
ATOM     34  C   UNL     1       0.504  -4.724   2.656  0.00  0.00    -0.046 A 
ATOM     35  C   UNL     1       0.594  -4.047   1.454  0.00  0.00    +0.007 A 
ATOM     36  C   UNL     1       0.704  -2.670   1.442  0.00  0.00    +0.046 A 
BRANCH  31  37
ATOM     37  O   UNL     1       0.852  -0.613   2.630  0.00  0.00    -0.492 OA
BRANCH  37  39
ATOM     38  C   UNL     1       1.012   1.553   3.688  0.00  0.00    +0.048 C 
ATOM     39  C   UNL     1       0.880   0.043   3.898  0.00  0.00    +0.225 C 
ENDBRANCH  37  39
ENDBRANCH  31  37
ENDBRANCH  30  34
ENDBRANCH  29  30
ENDBRANCH  25  29
ENDBRANCH   1  26
TORSDOF 7
