REMARK  Name = ZINC23562624
REMARK  12 active torsions:
REMARK  status: ('A' for Active; 'I' for Inactive)
REMARK    1  A    between atoms: C_1  and  C_2
REMARK    2  A    between atoms: C_6  and  C_36
REMARK    3  A    between atoms: C_7  and  N_8
REMARK    4  A    between atoms: C_9  and  C_11
REMARK    5  A    between atoms: C_11  and  N_12
REMARK    6  A    between atoms: C_13  and  C_15
REMARK    7  A    between atoms: C_15  and  C_17
REMARK    8  A    between atoms: C_15  and  S_18
REMARK    9  A    between atoms: S_18  and  C_19
REMARK   10  A    between atoms: C_22  and  C_31
REMARK   11  A    between atoms: N_23  and  C_24
REMARK   12  A    between atoms: C_24  and  C_25
REMARK                            x       y       z     vdW  Elec       q    Type
REMARK                         _______ _______ _______ _____ _____    ______ ____
ROOT
ATOM      1  C   UNL     1      -7.519  -2.944   1.654  0.00  0.00    +0.137 C 
ATOM      2  C   UNL     1      -8.233  -4.250   1.300  0.00  0.00    +0.029 C 
ENDROOT
BRANCH   1   4
ATOM      3  N   UNL     1      -7.363  -3.071   4.120  0.00  0.00    -0.306 N 
ATOM      4  C   UNL     1      -6.735  -3.130   2.928  0.00  0.00    +0.227 C 
ATOM      5  O   UNL     1      -5.541  -3.333   2.881  0.00  0.00    -0.275 OA
ATOM      6  H   UNL     1      -8.447  -2.887   4.162  0.00  0.00    +0.149 HD
BRANCH   3   7
ATOM      7  C   UNL     1      -6.601  -3.251   5.358  0.00  0.00    +0.200 C 
BRANCH   7   9
ATOM      8  N   UNL     1      -7.048  -3.273   7.791  0.00  0.00    -0.284 N 
ATOM      9  C   UNL     1      -7.530  -3.140   6.540  0.00  0.00    +0.234 C 
ATOM     10  O   UNL     1      -8.712  -2.931   6.364  0.00  0.00    -0.274 OA
ATOM     11  H   UNL     1      -5.993  -3.542   7.948  0.00  0.00    +0.155 HD
BRANCH   8  18
ATOM     12  C   UNL     1      -7.171  -5.301   9.783  0.00  0.00    +0.045 C 
ATOM     13  C   UNL     1      -7.979  -4.034   9.886  0.00  0.00    -0.029 A 
ATOM     14  C   UNL     1      -8.807  -3.828  10.972  0.00  0.00    +0.005 A 
ATOM     15  C   UNL     1      -9.553  -2.667  11.064  0.00  0.00    +0.001 A 
ATOM     16  C   UNL     1      -9.470  -1.708  10.072  0.00  0.00    +0.005 A 
ATOM     17  C   UNL     1      -8.640  -1.905   8.986  0.00  0.00    -0.029 A 
ATOM     18  C   UNL     1      -7.889  -3.070   8.890  0.00  0.00    +0.039 A 
ATOM     19  C   UNL     1      -8.550  -0.859   7.905  0.00  0.00    +0.045 C 
ENDBRANCH   8  18
ENDBRANCH   7   9
ENDBRANCH   3   7
ENDBRANCH   1   4
BRANCH   1  20
ATOM     20  S   UNL     1      -6.391  -2.490   0.313  0.00  0.00    -0.074 S 
BRANCH  20  21
ATOM     21  C   UNL     1      -7.553  -2.195  -0.977  0.00  0.00    +0.193 A 
ATOM     22  N   UNL     1      -8.859  -2.299  -0.888  0.00  0.00    -0.122 NA
ATOM     23  N   UNL     1      -9.404  -2.018  -2.017  0.00  0.00    -0.128 NA
ATOM     24  C   UNL     1      -8.478  -1.710  -2.898  0.00  0.00    +0.172 A 
ATOM     25  N   UNL     1      -7.263  -1.811  -2.257  0.00  0.00    -0.299 N 
BRANCH  24  26
ATOM     26  C   UNL     1      -8.697  -1.331  -4.303  0.00  0.00    +0.056 A 
ATOM     27  C   UNL     1      -9.823  -1.481  -5.074  0.00  0.00    +0.019 A 
ATOM     28  C   UNL     1      -9.794  -1.041  -6.378  0.00  0.00    +0.008 A 
ATOM     29  C   UNL     1      -8.654  -0.485  -6.864  0.00  0.00    +0.046 A 
ATOM     30  S   UNL     1      -7.566  -0.563  -5.452  0.00  0.00    -0.094 S 
ENDBRANCH  24  26
BRANCH  25  31
ATOM     31  C   UNL     1      -5.937  -1.564  -2.829  0.00  0.00    +0.157 C 
BRANCH  31  32
ATOM     32  C   UNL     1      -5.566  -0.092  -2.640  0.00  0.00    +0.138 C 
ATOM     33  C   UNL     1      -4.229   0.206  -3.347  0.00  0.00    +0.035 C 
ATOM     34  C   UNL     1      -3.311   0.732  -2.216  0.00  0.00    +0.031 C 
ATOM     35  C   UNL     1      -4.338   1.186  -1.148  0.00  0.00    +0.160 C 
ATOM     36  O   UNL     1      -5.383   0.193  -1.243  0.00  0.00    -0.375 OA
ENDBRANCH  31  32
ENDBRANCH  25  31
ENDBRANCH  20  21
ENDBRANCH   1  20
TORSDOF 9
