REMARK  Name = ZINC10288870
REMARK  14 active torsions:
REMARK  status: ('A' for Active; 'I' for Inactive)
REMARK    1  A    between atoms: C_1  and  C_2
REMARK    2  A    between atoms: C_3  and  C_33
REMARK    3  A    between atoms: C_4  and  C_32
REMARK    4  A    between atoms: C_7  and  C_8
REMARK    5  A    between atoms: C_8  and  C_10
REMARK    6  A    between atoms: C_10  and  C_12
REMARK    7  A    between atoms: C_10  and  S_13
REMARK    8  A    between atoms: S_13  and  C_14
REMARK    9  A    between atoms: C_17  and  C_26
REMARK   10  A    between atoms: N_18  and  C_19
REMARK   11  A    between atoms: C_19  and  C_20
REMARK   12  A    between atoms: C_26  and  N_68
REMARK   13  A    between atoms: C_33  and  O_35
REMARK   14  A    between atoms: O_35  and  C_36
REMARK                            x       y       z     vdW  Elec       q    Type
REMARK                         _______ _______ _______ _____ _____    ______ ____
ROOT
ATOM      1  C   UNL     1       3.564   1.437   5.953  0.00  0.00    +0.193 A 
ATOM      2  N   UNL     1       2.741   2.136   6.700  0.00  0.00    -0.123 NA
ATOM      3  N   UNL     1       3.228   2.266   7.882  0.00  0.00    -0.135 NA
ATOM      4  C   UNL     1       4.384   1.670   7.958  0.00  0.00    +0.118 A 
ATOM      5  N   UNL     1       4.640   1.121   6.732  0.00  0.00    -0.303 N 
ENDROOT
BRANCH   1   6
ATOM      6  S   UNL     1       3.329   0.997   4.263  0.00  0.00    -0.075 S 
BRANCH   6   7
ATOM      7  C   UNL     1       1.716   1.761   3.961  0.00  0.00    +0.124 C 
ATOM      8  C   UNL     1       1.842   3.281   4.081  0.00  0.00    +0.028 C 
BRANCH   7   9
ATOM      9  C   UNL     1       1.243   1.404   2.576  0.00  0.00    +0.192 C 
ATOM     10  O   UNL     1       2.049   1.115   1.714  0.00  0.00    -0.289 OA
BRANCH   9  17
ATOM     11  C   UNL     1       0.024   0.706  -0.198  0.00  0.00    +0.047 C 
ATOM     12  C   UNL     1      -0.708   1.100   1.059  0.00  0.00    -0.008 A 
ATOM     13  C   UNL     1      -2.104   1.235   1.213  0.00  0.00    +0.083 A 
ATOM     14  C   UNL     1      -2.337   1.609   2.525  0.00  0.00    +0.028 A 
ATOM     15  N   UNL     1      -1.159   1.713   3.158  0.00  0.00    -0.355 N 
ATOM     16  H   UNL     1      -1.041   1.965   4.087  0.00  0.00    +0.166 HD
ATOM     17  C   UNL     1      -0.141   1.405   2.278  0.00  0.00    +0.087 A 
ATOM     18  C   UNL     1      -3.689   1.864   3.139  0.00  0.00    +0.064 C 
BRANCH  13  19
ATOM     19  C   UNL     1      -3.123   1.015   0.173  0.00  0.00    +0.341 C 
ATOM     20  O   UNL     1      -3.610  -0.088   0.023  0.00  0.00    -0.245 OA
BRANCH  19  21
ATOM     21  O   UNL     1      -3.515   2.037  -0.613  0.00  0.00    -0.464 OA
ATOM     22  C   UNL     1      -4.524   1.747  -1.617  0.00  0.00    +0.280 C 
ENDBRANCH  19  21
ENDBRANCH  13  19
ENDBRANCH   9  17
ENDBRANCH   7   9
ENDBRANCH   6   7
ENDBRANCH   1   6
BRANCH   5  23
ATOM     23  C   UNL     1       5.823   0.352   6.337  0.00  0.00    +0.160 C 
BRANCH  23  24
ATOM     24  C   UNL     1       6.832   1.274   5.702  0.00  0.00    -0.028 A 
ATOM     25  C   UNL     1       6.751   1.563   4.352  0.00  0.00    +0.005 A 
ATOM     26  C   UNL     1       7.673   2.413   3.771  0.00  0.00    +0.000 A 
ATOM     27  C   UNL     1       8.683   2.965   4.536  0.00  0.00    +0.000 A 
ATOM     28  C   UNL     1       8.767   2.672   5.885  0.00  0.00    +0.000 A 
ATOM     29  C   UNL     1       7.842   1.827   6.467  0.00  0.00    +0.005 A 
ENDBRANCH  23  24
ENDBRANCH   5  23
BRANCH   4  30
ATOM     30  C   UNL     1       5.274   1.600   9.172  0.00  0.00    -0.001 C 
BRANCH  30  36
ATOM     31  C   UNL     1       3.718   0.377  10.566  0.00  0.00    -0.078 C 
ATOM     32  C   UNL     1       3.425  -0.993  11.181  0.00  0.00    -0.019 C 
ATOM     33  C   UNL     1       4.530  -1.343  12.183  0.00  0.00    -0.004 C 
ATOM     34  C   UNL     1       5.883  -1.323  11.466  0.00  0.00    -0.019 C 
ATOM     35  C   UNL     1       6.104   0.057  10.842  0.00  0.00    -0.078 C 
ATOM     36  N   UNL     1       5.021   0.323   9.871  0.00  0.00    +0.384 N 
ATOM     37  H   UNL     1       4.999  -0.437   9.181  0.00  0.00    -0.081 HD
ENDBRANCH  30  36
ENDBRANCH   4  30
TORSDOF 10
