REMARK  Name = ZINC39794137
REMARK  5 active torsions:
REMARK  status: ('A' for Active; 'I' for Inactive)
REMARK    1  A    between atoms: C_13  and  S_15
REMARK    2  A    between atoms: S_15  and  C_16
REMARK    3  A    between atoms: C_16  and  C_17
REMARK    4  A    between atoms: N_19  and  C_20
REMARK    5  A    between atoms: C_22  and  C_27
REMARK                            x       y       z     vdW  Elec       q    Type
REMARK                         _______ _______ _______ _____ _____    ______ ____
ROOT
ATOM      1  C   UNL     1       5.036  -4.602  -2.819  0.00  0.00    +0.173 C 
ENDROOT
BRANCH   1   2
ATOM      2  C   UNL     1       5.666  -5.522  -3.833  0.00  0.00    +0.228 C 
ATOM      3  O   UNL     1       5.028  -6.445  -4.293  0.00  0.00    -0.275 OA
ATOM      4  N   UNL     1       6.938  -5.319  -4.228  0.00  0.00    -0.284 N 
ATOM      5  H   UNL     1       7.422  -4.535  -3.922  0.00  0.00    +0.155 HD
BRANCH   4   6
ATOM      6  C   UNL     1       7.562  -6.238  -5.080  0.00  0.00    +0.052 A 
ATOM      7  C   UNL     1       7.129  -7.556  -5.117  0.00  0.00    +0.037 A 
ATOM      8  C   UNL     1       7.746  -8.461  -5.959  0.00  0.00    +0.057 A 
ATOM      9  C   UNL     1       8.794  -8.055  -6.765  0.00  0.00    +0.014 A 
ATOM     10  C   UNL     1       9.228  -6.742  -6.731  0.00  0.00    +0.022 A 
ATOM     11  C   UNL     1       8.611  -5.831  -5.895  0.00  0.00    +0.062 A 
ATOM     12 CL   UNL     1       9.151  -4.181  -5.858  0.00  0.00    -0.082 Cl
BRANCH   8  13
ATOM     13  C   UNL     1       7.277  -9.892  -6.000  0.00  0.00    +0.417 C 
ATOM     14  F   UNL     1       6.276 -10.028  -6.969  0.00  0.00    -0.166 F 
ATOM     15  F   UNL     1       8.353 -10.727  -6.320  0.00  0.00    -0.166 F 
ATOM     16  F   UNL     1       6.765 -10.251  -4.748  0.00  0.00    -0.166 F 
ENDBRANCH   8  13
ENDBRANCH   4   6
ENDBRANCH   1   2
BRANCH   1  17
ATOM     17  S   UNL     1       3.332  -5.134  -2.497  0.00  0.00    -0.075 S 
BRANCH  17  29
ATOM     18  C   UNL     1       0.004   1.323   0.082  0.00  0.00    +0.001 A 
ATOM     19  C   UNL     1       1.177   2.090   0.076  0.00  0.00    +0.002 A 
ATOM     20  C   UNL     1       2.402   1.517   0.059  0.00  0.00    +0.026 A 
ATOM     21  C   UNL     1       2.510   0.053   0.046  0.00  0.00    +0.046 A 
ATOM     22  N   UNL     1       3.548  -0.747  -0.003  0.00  0.00    -0.358 N 
ATOM     23  C   UNL     1       3.090  -2.119   0.134  0.00  0.00    +0.252 C 
ATOM     24  C   UNL     1       1.577  -2.065   0.009  0.00  0.00    +0.117 C 
ATOM     25  C   UNL     1       1.248  -0.731   0.040  0.00  0.00    +0.025 A 
ATOM     26  C   UNL     1       0.021  -0.030   0.064  0.00  0.00    +0.012 A 
ATOM     27  N   UNL     1       0.852  -3.161  -0.229  0.00  0.00    -0.147 NA
ATOM     28  N   UNL     1       1.469  -4.113  -0.861  0.00  0.00    -0.122 NA
ATOM     29  C   UNL     1       2.741  -3.975  -1.308  0.00  0.00    +0.208 C 
ATOM     30  N   UNL     1       3.561  -3.031  -0.907  0.00  0.00    -0.227 NA
ATOM     31  H   UNL     1       4.471  -0.468  -0.113  0.00  0.00    +0.162 HD
ENDBRANCH  17  29
ENDBRANCH   1  17
TORSDOF 5
