REMARK  Name = ZINC15346532
REMARK  9 active torsions:
REMARK  status: ('A' for Active; 'I' for Inactive)
REMARK    1  A    between atoms: C_1  and  C_2
REMARK    2  A    between atoms: C_2  and  N_3
REMARK    3  A    between atoms: N_3  and  C_4
REMARK    4  A    between atoms: N_3  and  S_6
REMARK    5  A    between atoms: C_4  and  C_5
REMARK    6  A    between atoms: S_6  and  C_9
REMARK    7  A    between atoms: C_11  and  C_16
REMARK    8  A    between atoms: N_18  and  N_19
REMARK    9  A    between atoms: C_20  and  C_22
REMARK                            x       y       z     vdW  Elec       q    Type
REMARK                         _______ _______ _______ _____ _____    ______ ____
ROOT
ATOM      1  C   UNL     1       0.227   1.956  -0.143  0.00  0.00    +0.124 A 
ATOM      2  C   UNL     1       1.054   0.855  -0.209  0.00  0.00    +0.043 A 
ATOM      3  C   UNL     1       0.502  -0.425  -0.287  0.00  0.00    +0.040 A 
ATOM      4  C   UNL     1      -0.885  -0.582  -0.298  0.00  0.00    +0.014 A 
ATOM      5  C   UNL     1      -1.702   0.527  -0.232  0.00  0.00    +0.023 A 
ATOM      6  C   UNL     1      -1.148   1.795  -0.154  0.00  0.00    +0.067 A 
ATOM      7 CL   UNL     1      -2.183   3.186  -0.078  0.00  0.00    -0.082 Cl
ENDROOT
BRANCH   3   8
ATOM      8  C   UNL     1       1.383  -1.610  -0.358  0.00  0.00    +0.260 C 
ATOM      9  O   UNL     1       2.591  -1.471  -0.348  0.00  0.00    -0.269 OA
ATOM     10  N   UNL     1       0.848  -2.844  -0.433  0.00  0.00    -0.230 N 
ATOM     11  H   UNL     1      -0.116  -2.955  -0.441  0.00  0.00    +0.173 HD
BRANCH  10  12
ATOM     12  N   UNL     1       1.683  -3.967  -0.499  0.00  0.00    -0.230 N 
ATOM     13  C   UNL     1       1.147  -5.202  -0.575  0.00  0.00    +0.261 C 
ATOM     14  O   UNL     1      -0.060  -5.341  -0.584  0.00  0.00    -0.269 OA
ATOM     15  H   UNL     1       2.647  -3.856  -0.492  0.00  0.00    +0.173 HD
BRANCH  13  16
ATOM     16  C   UNL     1       2.028  -6.386  -0.645  0.00  0.00    +0.052 A 
ATOM     17  C   UNL     1       3.416  -6.230  -0.640  0.00  0.00    +0.014 A 
ATOM     18  C   UNL     1       4.232  -7.340  -0.700  0.00  0.00    +0.001 A 
ATOM     19  C   UNL     1       3.679  -8.607  -0.777  0.00  0.00    +0.001 A 
ATOM     20  C   UNL     1       2.306  -8.770  -0.788  0.00  0.00    +0.016 A 
ATOM     21  C   UNL     1       1.477  -7.667  -0.723  0.00  0.00    +0.030 A 
ATOM     22 BR   UNL     1      -0.401  -7.891  -0.739  0.00  0.00    -0.050 Br
ENDBRANCH  13  16
ENDBRANCH  10  12
ENDBRANCH   3   8
BRANCH   1  23
ATOM     23  S   UNL     1       0.922   3.572  -0.044  0.00  0.00    +0.062 S 
ATOM     24  O   UNL     1       0.209   4.259   0.977  0.00  0.00    -0.153 OA
ATOM     25  O   UNL     1       2.333   3.407  -0.009  0.00  0.00    -0.153 OA
BRANCH  23  26
ATOM     26  N   UNL     1       0.571   4.344  -1.467  0.00  0.00    -0.177 NA
BRANCH  26  28
ATOM     27  C   UNL     1      -0.116   6.669  -1.787  0.00  0.00    +0.022 C 
ATOM     28  C   UNL     1      -0.590   5.234  -1.551  0.00  0.00    +0.106 C 
ENDBRANCH  26  28
BRANCH  26  29
ATOM     29  C   UNL     1       1.422   4.137  -2.641  0.00  0.00    +0.106 C 
ATOM     30  C   UNL     1       0.823   3.033  -3.516  0.00  0.00    +0.022 C 
ENDBRANCH  26  29
ENDBRANCH  23  26
ENDBRANCH   1  23
TORSDOF 7
