REMARK  Name = ZINC20791088
REMARK  5 active torsions:
REMARK  status: ('A' for Active; 'I' for Inactive)
REMARK    1  A    between atoms: C_1  and  C_2
REMARK    2  A    between atoms: C_3  and  C_17
REMARK    3  A    between atoms: C_4  and  C_10
REMARK    4  A    between atoms: N_19  and  C_20
REMARK    5  A    between atoms: C_23  and  N_26
REMARK                            x       y       z     vdW  Elec       q    Type
REMARK                         _______ _______ _______ _____ _____    ______ ____
ROOT
ATOM      1  C   UNL     1       5.270  -4.396   0.209  0.00  0.00    +0.061 C 
ATOM      2  C   UNL     1       3.914  -5.048   0.125  0.00  0.00    +0.017 C 
ATOM      3  C   UNL     1       2.810  -4.277   0.036  0.00  0.00    +0.056 C 
ATOM      4  C   UNL     1       1.466  -4.973  -0.040  0.00  0.00    +0.139 C 
ATOM      5  N   UNL     1       1.476  -6.446  -0.021  0.00  0.00    -0.315 N 
ATOM      6  C   UNL     1       2.663  -7.078   0.072  0.00  0.00    +0.135 C 
ATOM      7  S   UNL     1       2.690  -8.789   0.102  0.00  0.00    -0.019 S 
ATOM      8  N   UNL     1       3.822  -6.411   0.141  0.00  0.00    -0.300 N 
ATOM      9  H   UNL     1       0.530  -7.003  -0.083  0.00  0.00    +0.149 HD
ATOM     10  H   UNL     1       4.733  -7.022   0.214  0.00  0.00    +0.154 HD
ENDROOT
BRANCH   4  11
ATOM     11  C   UNL     1       0.786  -4.534  -1.311  0.00  0.00    -0.023 A 
ATOM     12  C   UNL     1       1.168  -5.079  -2.523  0.00  0.00    +0.007 A 
ATOM     13  C   UNL     1       0.541  -4.680  -3.688  0.00  0.00    +0.015 A 
ATOM     14  C   UNL     1      -0.461  -3.728  -3.643  0.00  0.00    +0.018 A 
ATOM     15  C   UNL     1      -0.839  -3.179  -2.431  0.00  0.00    +0.015 A 
ATOM     16  C   UNL     1      -0.215  -3.582  -1.266  0.00  0.00    +0.007 A 
ATOM     17 BR   UNL     1      -1.313  -3.176  -5.239  0.00  0.00    -0.050 Br
ENDBRANCH   4  11
BRANCH   3  18
ATOM     18  C   UNL     1       2.904  -2.864   0.019  0.00  0.00    +0.248 C 
ATOM     19  O   UNL     1       2.589  -2.221   1.005  0.00  0.00    -0.270 OA
ATOM     20  N   UNL     1       3.342  -2.230  -1.087  0.00  0.00    -0.282 N 
ATOM     21  H   UNL     1       3.493  -2.793  -2.020  0.00  0.00    +0.155 HD
BRANCH  20  22
ATOM     22  C   UNL     1       3.606  -0.857  -1.048  0.00  0.00    +0.034 A 
ATOM     23  C   UNL     1       4.616  -0.320  -1.835  0.00  0.00    +0.025 A 
ATOM     24  C   UNL     1       4.874   1.036  -1.794  0.00  0.00    +0.034 A 
ATOM     25  C   UNL     1       4.126   1.859  -0.972  0.00  0.00    +0.126 A 
ATOM     26  C   UNL     1       3.119   1.328  -0.187  0.00  0.00    +0.034 A 
ATOM     27  C   UNL     1       2.857  -0.028  -0.223  0.00  0.00    +0.025 A 
BRANCH  25  28
ATOM     28  N   UNL     1       4.405   3.312  -0.931  0.00  0.00    +0.056 N 
ATOM     29  O   UNL     1       5.292   3.782  -1.621  0.00  0.00    -0.126 OA
ATOM     30  O   UNL     1       3.748   4.038  -0.207  0.00  0.00    -0.126 OA
ENDBRANCH  25  28
ENDBRANCH  20  22
ENDBRANCH   3  18
TORSDOF 4
