REMARK  Name = ZINC64006279
REMARK  8 active torsions:
REMARK  status: ('A' for Active; 'I' for Inactive)
REMARK    1  A    between atoms: C_1  and  N_2
REMARK    2  A    between atoms: C_6  and  C_18
REMARK    3  A    between atoms: C_8  and  N_9
REMARK    4  A    between atoms: C_10  and  C_12
REMARK    5  A    between atoms: N_20  and  C_21
REMARK    6  A    between atoms: N_20  and  C_22
REMARK    7  A    between atoms: C_22  and  C_23
REMARK    8  A    between atoms: C_33  and  C_35
REMARK                            x       y       z     vdW  Elec       q    Type
REMARK                         _______ _______ _______ _____ _____    ______ ____
ROOT
ATOM      1  C   UNL     1      -0.619   1.549   0.281  0.00  0.00    +0.131 C 
ATOM      2  N   UNL     1      -0.629   0.085   0.253  0.00  0.00    -0.312 N 
ATOM      3  C   UNL     1      -0.561  -0.722  -0.887  0.00  0.00    +0.074 A 
ATOM      4  C   UNL     1      -0.596  -2.065  -0.518  0.00  0.00    +0.052 A 
ATOM      5  C   UNL     1      -0.540  -3.050  -1.491  0.00  0.00    +0.038 A 
ATOM      6  C   UNL     1      -0.449  -2.700  -2.840  0.00  0.00    +0.040 A 
ATOM      7  C   UNL     1      -0.414  -1.353  -3.209  0.00  0.00    +0.038 A 
ATOM      8  C   UNL     1      -0.470  -0.371  -2.237  0.00  0.00    +0.057 A 
ATOM      9  N   UNL     1      -0.688  -2.171   0.877  0.00  0.00    -0.324 N 
ATOM     10  C   UNL     1      -0.706  -0.806   1.417  0.00  0.00    +0.161 C 
ATOM     11  H   UNL     1      -0.729  -2.993   1.391  0.00  0.00    +0.148 HD
ENDROOT
BRANCH   8  12
ATOM     12  N   UNL     1      -0.435   0.980  -2.608  0.00  0.00    -0.282 N 
ATOM     13  C   UNL     1      -1.033   1.383  -3.747  0.00  0.00    +0.246 C 
ATOM     14  O   UNL     1      -1.524   0.565  -4.496  0.00  0.00    -0.273 OA
ATOM     15  H   UNL     1       0.020   1.626  -2.044  0.00  0.00    +0.155 HD
BRANCH  13  16
ATOM     16  C   UNL     1      -1.091   2.849  -4.090  0.00  0.00    +0.204 C 
ATOM     17  C   UNL     1       0.333   3.393  -4.367  0.00  0.00    +0.043 C 
ATOM     18  C   UNL     1       0.012   4.608  -5.279  0.00  0.00    +0.031 C 
ATOM     19  C   UNL     1      -1.217   4.109  -6.069  0.00  0.00    +0.161 C 
ATOM     20  O   UNL     1      -1.815   3.046  -5.315  0.00  0.00    -0.367 OA
ENDBRANCH  13  16
ENDBRANCH   8  12
BRANCH   6  21
ATOM     21  C   UNL     1      -0.390  -3.751  -3.874  0.00  0.00    +0.247 C 
ATOM     22  O   UNL     1      -0.924  -3.574  -4.952  0.00  0.00    -0.270 OA
ATOM     23  N   UNL     1       0.256  -4.907  -3.624  0.00  0.00    -0.297 N 
ATOM     24  C   UNL     1       0.811  -5.162  -2.292  0.00  0.00    +0.132 C 
BRANCH  23  25
ATOM     25  C   UNL     1       0.404  -5.908  -4.683  0.00  0.00    +0.154 C 
BRANCH  25  26
ATOM     26  C   UNL     1       1.700  -5.648  -5.454  0.00  0.00    +0.192 C 
ATOM     27  N   UNL     1       2.844  -5.661  -4.534  0.00  0.00    -0.362 N 
ATOM     28  C   UNL     1       3.405  -4.487  -4.592  0.00  0.00    +0.060 A 
ATOM     29  C   UNL     1       4.570  -3.902  -3.914  0.00  0.00    +0.027 A 
ATOM     30  C   UNL     1       4.924  -2.629  -4.180  0.00  0.00    +0.002 A 
ATOM     31  C   UNL     1       4.220  -1.821  -5.090  0.00  0.00    +0.002 A 
ATOM     32  C   UNL     1       3.138  -2.258  -5.765  0.00  0.00    +0.027 A 
ATOM     33  C   UNL     1       2.660  -3.632  -5.556  0.00  0.00    +0.060 A 
ATOM     34  N   UNL     1       1.668  -4.309  -6.056  0.00  0.00    -0.362 N 
ATOM     35  H   UNL     1       3.130  -6.407  -3.984  0.00  0.00    +0.162 HD
ATOM     36  H   UNL     1       1.025  -3.989  -6.708  0.00  0.00    +0.162 HD
ENDBRANCH  25  26
ENDBRANCH  23  25
ENDBRANCH   6  21
BRANCH  10  37
ATOM     37  C   UNL     1      -2.007  -0.561   2.184  0.00  0.00    +0.027 C 
ATOM     38  C   UNL     1      -1.937   0.632   3.151  0.00  0.00    +0.007 C 
ATOM     39  C   UNL     1      -2.745  -0.224   4.141  0.00  0.00    +0.001 C 
ATOM     40  C   UNL     1      -2.169  -1.456   3.424  0.00  0.00    +0.007 C 
ENDBRANCH  10  37
TORSDOF 6
