REMARK  Name = ZINC34014590
REMARK  5 active torsions:
REMARK  status: ('A' for Active; 'I' for Inactive)
REMARK    1  A    between atoms: C_1  and  C_2
REMARK    2  A    between atoms: C_20  and  O_41
REMARK    3  A    between atoms: C_24  and  C_40
REMARK    4  A    between atoms: C_28  and  C_33
REMARK    5  A    between atoms: C_33  and  C_34
REMARK                            x       y       z     vdW  Elec       q    Type
REMARK                         _______ _______ _______ _____ _____    ______ ____
ROOT
ATOM      1  C   UNL     1       0.396   1.683  -0.188  0.00  0.00    +0.008 C 
ATOM      2  C   UNL     1       0.525   0.159  -0.212  0.00  0.00    -0.010 C 
ATOM      3  C   UNL     1      -0.815  -0.461  -0.611  0.00  0.00    +0.004 C 
ATOM      4  C   UNL     1      -0.969  -0.428  -2.132  0.00  0.00    +0.008 C 
ATOM      5  C   UNL     1      -2.086  -1.384  -2.557  0.00  0.00    +0.079 C 
ATOM      6  C   UNL     1      -1.510  -2.759  -2.784  0.00  0.00    +0.156 C 
ATOM      7  O   UNL     1      -1.397  -3.191  -3.912  0.00  0.00    -0.293 OA
ATOM      8  C   UNL     1      -1.094  -3.575  -1.637  0.00  0.00    +0.053 C 
ATOM      9  C   UNL     1      -0.565  -4.797  -1.822  0.00  0.00    +0.095 C 
ATOM     10  C   UNL     1      -0.143  -5.587  -0.642  0.00  0.00    +0.333 C 
ATOM     11  O   UNL     1       0.112  -6.766  -0.786  0.00  0.00    -0.246 OA
ATOM     12  O   UNL     1      -0.058  -4.983   0.552  0.00  0.00    -0.444 OA
ATOM     13  C   UNL     1       1.042  -5.223   1.420  0.00  0.00    +0.202 C 
ATOM     14  C   UNL     1       1.955  -4.030   1.380  0.00  0.00    +0.097 C 
ATOM     15  C   UNL     1       1.147  -2.756   1.464  0.00  0.00    -0.020 C 
ATOM     16  C   UNL     1       1.686  -1.626   1.076  0.00  0.00    -0.030 C 
ATOM     17  C   UNL     1       0.915  -0.337   1.182  0.00  0.00    +0.030 C 
ATOM     18  C   UNL     1       2.979  -4.005   2.513  0.00  0.00    +0.151 C 
ATOM     19  C   UNL     1       2.270  -4.254   3.816  0.00  0.00    -0.045 C 
ATOM     20  C   UNL     1       2.423  -3.444   4.830  0.00  0.00    +0.010 C 
ATOM     21  C   UNL     1       1.364  -5.464   3.953  0.00  0.00    +0.023 C 
ATOM     22  C   UNL     1       0.408  -5.547   2.788  0.00  0.00    +0.070 C 
ATOM     23  C   UNL     1      -0.093  -6.930   2.433  0.00  0.00    +0.085 C 
ATOM     24  N   UNL     1       0.971  -7.540   1.632  0.00  0.00    -0.308 N 
ATOM     25  C   UNL     1       1.653  -6.545   1.021  0.00  0.00    +0.258 C 
ATOM     26  O   UNL     1       2.593  -6.698   0.277  0.00  0.00    -0.271 OA
ATOM     27  C   UNL     1       2.276  -6.679   4.086  0.00  0.00    +0.012 C 
ATOM     28  H   UNL     1       1.158  -8.482   1.552  0.00  0.00    +0.149 HD
ENDROOT
BRANCH  18  29
ATOM     29  O   UNL     1       3.992  -4.984   2.287  0.00  0.00    -0.387 OA
ATOM     30  H   UNL     1       4.671  -5.014   2.975  0.00  0.00    +0.210 HD
ENDBRANCH  18  29
BRANCH  23  31
ATOM     31  C   UNL     1      -0.533  -7.778   3.608  0.00  0.00    +0.057 C 
BRANCH  31  32
ATOM     32  C   UNL     1      -1.145  -9.059   3.101  0.00  0.00    -0.046 A 
ATOM     33  C   UNL     1      -2.501  -9.121   2.838  0.00  0.00    +0.004 A 
ATOM     34  C   UNL     1      -3.062 -10.295   2.373  0.00  0.00    +0.000 A 
ATOM     35  C   UNL     1      -2.267 -11.408   2.170  0.00  0.00    +0.000 A 
ATOM     36  C   UNL     1      -0.911 -11.346   2.433  0.00  0.00    +0.000 A 
ATOM     37  C   UNL     1      -0.349 -10.170   2.893  0.00  0.00    +0.004 A 
ENDBRANCH  31  32
ENDBRANCH  23  31
TORSDOF 3
