REMARK  Name = ZINC13940707
REMARK  8 active torsions:
REMARK  status: ('A' for Active; 'I' for Inactive)
REMARK    1  A    between atoms: C_1  and  C_2
REMARK    2  A    between atoms: C_2  and  C_4
REMARK    3  A    between atoms: C_2  and  C_32
REMARK    4  A    between atoms: C_4  and  N_5
REMARK    5  A    between atoms: C_7  and  C_14
REMARK    6  A    between atoms: C_19  and  C_26
REMARK    7  A    between atoms: C_32  and  O_33
REMARK    8  A    between atoms: O_33  and  C_34
REMARK                            x       y       z     vdW  Elec       q    Type
REMARK                         _______ _______ _______ _____ _____    ______ ____
ROOT
ATOM      1  N   UNL     1       5.284   3.748   1.796  0.00  0.00    -0.346 N 
ATOM      2  C   UNL     1       4.275   2.921   1.460  0.00  0.00    +0.094 A 
ATOM      3  C   UNL     1       3.072   3.595   1.558  0.00  0.00    +0.001 A 
ATOM      4  C   UNL     1       3.405   4.967   1.992  0.00  0.00    +0.007 A 
ATOM      5  C   UNL     1       4.801   4.998   2.130  0.00  0.00    +0.050 A 
ATOM      6  C   UNL     1       5.419   6.176   2.537  0.00  0.00    +0.026 A 
ATOM      7  C   UNL     1       4.661   7.298   2.791  0.00  0.00    +0.002 A 
ATOM      8  C   UNL     1       3.281   7.264   2.658  0.00  0.00    +0.001 A 
ATOM      9  C   UNL     1       2.650   6.104   2.260  0.00  0.00    +0.010 A 
ENDROOT
BRANCH   3  10
ATOM     10  C   UNL     1       1.785   3.077   1.291  0.00  0.00    +0.026 C 
ATOM     11  C   UNL     1       1.583   1.710   1.256  0.00  0.00    +0.079 C 
ATOM     12  C   UNL     1       2.670   0.748   1.583  0.00  0.00    +0.136 C 
ATOM     13  N   UNL     1       3.604   0.995   2.464  0.00  0.00    -0.284 NA
ATOM     14  N   UNL     1       2.597  -0.456   0.849  0.00  0.00    -0.233 N 
ATOM     15  C   UNL     1       3.640  -1.320   0.642  0.00  0.00    +0.056 C 
ATOM     16  C   UNL     1       3.432  -2.494   0.009  0.00  0.00    +0.072 C 
ATOM     17  S   UNL     1       1.684  -2.418  -0.355  0.00  0.00    -0.062 S 
ATOM     18  C   UNL     1       1.369  -0.812   0.329  0.00  0.00    +0.163 C 
ATOM     19  N   UNL     1       0.258  -0.118   0.366  0.00  0.00    -0.154 NA
ATOM     20  C   UNL     1       0.272   1.123   0.891  0.00  0.00    +0.273 C 
ATOM     21  O   UNL     1      -0.763   1.748   1.056  0.00  0.00    -0.268 OA
ATOM     22  H   UNL     1       3.555   1.793   3.013  0.00  0.00    +0.188 HD
BRANCH  15  23
ATOM     23  C   UNL     1       4.997  -0.965   1.112  0.00  0.00    -0.003 A 
ATOM     24  C   UNL     1       5.736   0.013   0.445  0.00  0.00    +0.010 A 
ATOM     25  C   UNL     1       6.999   0.343   0.892  0.00  0.00    +0.001 A 
ATOM     26  C   UNL     1       7.537  -0.300   1.992  0.00  0.00    +0.000 A 
ATOM     27  C   UNL     1       6.811  -1.274   2.655  0.00  0.00    +0.001 A 
ATOM     28  C   UNL     1       5.545  -1.610   2.221  0.00  0.00    +0.010 A 
ENDBRANCH  15  23
ENDBRANCH   3  10
BRANCH   1  29
ATOM     29  C   UNL     1       6.700   3.373   1.807  0.00  0.00    +0.128 C 
BRANCH  29  31
ATOM     30  C   UNL     1       6.452   2.089   3.936  0.00  0.00    +0.013 C 
ATOM     31  C   UNL     1       7.184   3.247   3.253  0.00  0.00    +0.043 C 
BRANCH  31  32
ATOM     32  C   UNL     1       8.690   2.977   3.266  0.00  0.00    +0.234 C 
BRANCH  32  33
ATOM     33  O   UNL     1       9.162   2.975   4.614  0.00  0.00    -0.492 OA
BRANCH  33  34
ATOM     34  C   UNL     1      10.488   2.749   4.803  0.00  0.00    +0.121 A 
ATOM     35  C   UNL     1      11.318   2.527   3.713  0.00  0.00    +0.045 A 
ATOM     36  C   UNL     1      12.667   2.303   3.908  0.00  0.00    +0.004 A 
ATOM     37  C   UNL     1      13.189   2.288   5.188  0.00  0.00    +0.000 A 
ATOM     38  C   UNL     1      12.364   2.502   6.276  0.00  0.00    +0.004 A 
ATOM     39  C   UNL     1      11.015   2.733   6.087  0.00  0.00    +0.045 A 
ENDBRANCH  33  34
ENDBRANCH  32  33
ENDBRANCH  31  32
ENDBRANCH  29  31
ENDBRANCH   1  29
TORSDOF 7
