REMARK  Name = ZINC67205028
REMARK  8 active torsions:
REMARK  status: ('A' for Active; 'I' for Inactive)
REMARK    1  A    between atoms: C_1  and  C_2
REMARK    2  A    between atoms: C_2  and  O_3
REMARK    3  A    between atoms: O_3  and  C_4
REMARK    4  A    between atoms: C_4  and  C_6
REMARK    5  A    between atoms: C_7  and  C_21
REMARK    6  A    between atoms: C_12  and  C_14
REMARK    7  A    between atoms: C_21  and  N_22
REMARK    8  A    between atoms: N_25  and  C_28
REMARK                            x       y       z     vdW  Elec       q    Type
REMARK                         _______ _______ _______ _____ _____    ______ ____
ROOT
ATOM      1  C   UNL     1       1.522  -2.329   2.719  0.00  0.00    +0.079 C 
ATOM      2  C   UNL     1       1.744  -3.594   3.137  0.00  0.00    +0.038 C 
ATOM      3  N   UNL     1       2.501  -3.848   4.245  0.00  0.00    -0.271 N 
ATOM      4  C   UNL     1       3.072  -2.892   4.989  0.00  0.00    +0.304 C 
ATOM      5  O   UNL     1       3.729  -3.217   5.958  0.00  0.00    -0.252 OA
ATOM      6  N   UNL     1       2.941  -1.583   4.698  0.00  0.00    -0.288 N 
ATOM      7  C   UNL     1       2.147  -1.203   3.517  0.00  0.00    +0.145 C 
ATOM      8  H   UNL     1       2.633  -4.772   4.507  0.00  0.00    +0.156 HD
ATOM      9  H   UNL     1       3.363  -0.907   5.251  0.00  0.00    +0.151 HD
ENDROOT
BRANCH   7  10
ATOM     10  C   UNL     1       1.040  -0.292   3.981  0.00  0.00    -0.004 A 
ATOM     11  C   UNL     1       0.446  -0.498   5.212  0.00  0.00    +0.007 A 
ATOM     12  C   UNL     1      -0.569   0.338   5.638  0.00  0.00    +0.000 A 
ATOM     13  C   UNL     1      -0.991   1.380   4.833  0.00  0.00    +0.001 A 
ATOM     14  C   UNL     1      -0.398   1.586   3.602  0.00  0.00    +0.020 A 
ATOM     15  C   UNL     1       0.622   0.754   3.178  0.00  0.00    +0.046 A 
ATOM     16 CL   UNL     1       1.373   1.017   1.635  0.00  0.00    -0.083 Cl
ENDBRANCH   7  10
BRANCH   1  17
ATOM     17  C   UNL     1       0.738  -2.065   1.572  0.00  0.00    +0.339 C 
ATOM     18  O   UNL     1       1.277  -1.777   0.519  0.00  0.00    -0.245 OA
BRANCH  17  19
ATOM     19  O   UNL     1      -0.608  -2.131   1.644  0.00  0.00    -0.462 OA
BRANCH  19  21
ATOM     20  C   UNL     1      -2.833  -1.947   0.720  0.00  0.00    +0.048 C 
ATOM     21  C   UNL     1      -1.332  -1.962   0.424  0.00  0.00    +0.229 C 
ENDBRANCH  19  21
ENDBRANCH  17  19
ENDBRANCH   1  17
BRANCH   2  22
ATOM     22  C   UNL     1       1.145  -4.744   2.369  0.00  0.00    +0.136 C 
BRANCH  22  23
ATOM     23  N   UNL     1       2.220  -5.559   1.790  0.00  0.00    -0.294 NA
ATOM     24  C   UNL     1       2.966  -4.803   0.776  0.00  0.00    +0.103 C 
ATOM     25  C   UNL     1       4.184  -5.619   0.329  0.00  0.00    +0.120 C 
ATOM     26  N   UNL     1       3.725  -6.948  -0.100  0.00  0.00    -0.326 N 
ATOM     27  C   UNL     1       2.857  -7.712   0.810  0.00  0.00    +0.120 C 
ATOM     28  C   UNL     1       1.691  -6.814   1.238  0.00  0.00    +0.103 C 
BRANCH  26  29
ATOM     29  C   UNL     1       4.102  -7.473  -1.339  0.00  0.00    +0.048 A 
ATOM     30  C   UNL     1       5.257  -8.237  -1.449  0.00  0.00    +0.024 A 
ATOM     31  C   UNL     1       5.627  -8.754  -2.675  0.00  0.00    +0.002 A 
ATOM     32  C   UNL     1       4.850  -8.512  -3.793  0.00  0.00    +0.002 A 
ATOM     33  C   UNL     1       3.700  -7.751  -3.688  0.00  0.00    +0.022 A 
ATOM     34  C   UNL     1       3.320  -7.235  -2.463  0.00  0.00    +0.062 A 
ATOM     35 CL   UNL     1       1.873  -6.286  -2.331  0.00  0.00    -0.082 Cl
ENDBRANCH  26  29
ENDBRANCH  22  23
ENDBRANCH   2  22
TORSDOF 7
