REMARK  Name = ZINC58382361
REMARK  4 active torsions:
REMARK  status: ('A' for Active; 'I' for Inactive)
REMARK    1  A    between atoms: C_2  and  C_13
REMARK    2  A    between atoms: N_15  and  C_16
REMARK    3  A    between atoms: C_16  and  C_17
REMARK    4  A    between atoms: C_17  and  N_18
REMARK                            x       y       z     vdW  Elec       q    Type
REMARK                         _______ _______ _______ _____ _____    ______ ____
ROOT
ATOM      1  C   UNL     1       1.180   3.560   0.010  0.00  0.00    +0.244 C 
ATOM      2  O   UNL     1       0.123   4.161   0.023  0.00  0.00    -0.270 OA
ATOM      3  N   UNL     1       2.343   4.241   0.002  0.00  0.00    -0.310 N 
ATOM      4  H   UNL     1       3.186   3.761  -0.008  0.00  0.00    +0.149 HD
ENDROOT
BRANCH   1   6
ATOM      5  C   UNL     1      -0.017   1.376   0.010  0.00  0.00    +0.062 A 
ATOM      6  C   UNL     1       1.189   2.084   0.002  0.00  0.00    +0.042 A 
ATOM      7  C   UNL     1       2.403   1.392  -0.014  0.00  0.00    +0.037 A 
ATOM      8  C   UNL     1       2.412   0.012  -0.022  0.00  0.00    +0.087 A 
ATOM      9  C   UNL     1       1.213  -0.687  -0.014  0.00  0.00    +0.180 A 
ATOM     10  C   UNL     1       0.002  -0.004   0.002  0.00  0.00    +0.164 A 
ATOM     11  O   UNL     1      -1.168  -0.707   0.011  0.00  0.00    -0.488 OA
ATOM     12  C   UNL     1      -1.472  -1.431  -1.183  0.00  0.00    +0.232 C 
ATOM     13  C   UNL     1      -0.786  -2.788  -1.180  0.00  0.00    +0.082 C 
ATOM     14  C   UNL     1       0.729  -2.671  -1.212  0.00  0.00    +0.232 C 
ATOM     15  O   UNL     1       1.215  -2.051  -0.021  0.00  0.00    -0.487 OA
ATOM     16 CL   UNL     1       3.920  -0.847  -0.043  0.00  0.00    -0.080 Cl
ENDBRANCH   1   6
BRANCH   3  17
ATOM     17  C   UNL     1       2.334   5.706   0.010  0.00  0.00    +0.123 C 
BRANCH  17  18
ATOM     18  C   UNL     1       3.773   6.225  -0.001  0.00  0.00    +0.121 C 
BRANCH  18  19
ATOM     19  N   UNL     1       3.764   7.690   0.007  0.00  0.00    -0.326 N 
ATOM     20  C   UNL     1       4.964   8.393  -0.000  0.00  0.00    +0.137 A 
ATOM     21  C   UNL     1       4.948   9.786   0.013  0.00  0.00    +0.082 A 
ATOM     22  C   UNL     1       6.150  10.472   0.005  0.00  0.00    +0.045 A 
ATOM     23  C   UNL     1       7.331   9.741  -0.016  0.00  0.00    +0.061 A 
ATOM     24  C   UNL     1       7.272   8.361  -0.028  0.00  0.00    +0.133 A 
ATOM     25  N   UNL     1       6.111   7.733  -0.015  0.00  0.00    -0.238 NA
ATOM     26 CL   UNL     1       8.866  10.553  -0.027  0.00  0.00    -0.082 Cl
ATOM     27 CL   UNL     1       3.442  10.648   0.038  0.00  0.00    -0.080 Cl
ATOM     28  H   UNL     1       2.921   8.170   0.018  0.00  0.00    +0.148 HD
ENDBRANCH  18  19
ENDBRANCH  17  18
ENDBRANCH   3  17
TORSDOF 4
