REMARK  Name = ZINC02743773
REMARK  11 active torsions:
REMARK  status: ('A' for Active; 'I' for Inactive)
REMARK    1  A    between atoms: C_1  and  C_2
REMARK    2  A    between atoms: C_2  and  O_3
REMARK    3  A    between atoms: O_3  and  C_4
REMARK    4  A    between atoms: C_4  and  C_6
REMARK    5  A    between atoms: C_7  and  C_32
REMARK    6  A    between atoms: C_9  and  N_31
REMARK    7  A    between atoms: C_10  and  C_29
REMARK    8  A    between atoms: C_11  and  C_13
REMARK    9  A    between atoms: C_18  and  O_19
REMARK   10  A    between atoms: O_19  and  C_20
REMARK   11  A    between atoms: C_20  and  C_21
REMARK                            x       y       z     vdW  Elec       q    Type
REMARK                         _______ _______ _______ _____ _____    ______ ____
ROOT
ATOM      1  C   UNL     1       1.041   3.491  -0.553  0.00  0.00    +0.087 C 
ATOM      2  C   UNL     1      -0.145   4.107  -0.472  0.00  0.00    +0.115 C 
ATOM      3  O   UNL     1      -1.222   3.519   0.069  0.00  0.00    -0.445 OA
ATOM      4  C   UNL     1      -1.249   2.181   0.195  0.00  0.00    +0.198 C 
ATOM      5  C   UNL     1      -0.116   1.438   0.161  0.00  0.00    +0.098 C 
ATOM      6  C   UNL     1       1.226   2.091  -0.034  0.00  0.00    +0.108 C 
ATOM      7  C   UNL     1      -0.275   5.509  -1.009  0.00  0.00    +0.087 C 
ENDROOT
BRANCH   6   8
ATOM      8  C   UNL     1       1.957   2.137   1.283  0.00  0.00    +0.008 A 
ATOM      9  C   UNL     1       1.408   2.815   2.355  0.00  0.00    +0.023 A 
ATOM     10  C   UNL     1       2.078   2.858   3.564  0.00  0.00    +0.018 A 
ATOM     11  C   UNL     1       3.299   2.222   3.703  0.00  0.00    +0.019 A 
ATOM     12  C   UNL     1       3.851   1.543   2.635  0.00  0.00    +0.047 A 
ATOM     13  C   UNL     1       3.178   1.494   1.422  0.00  0.00    +0.125 A 
ATOM     14 BR   UNL     1       1.324   3.786   5.029  0.00  0.00    -0.050 Br
BRANCH  13  15
ATOM     15  O   UNL     1       3.717   0.822   0.371  0.00  0.00    -0.487 OA
BRANCH  15  16
ATOM     16  C   UNL     1       4.977   0.183   0.587  0.00  0.00    +0.264 C 
BRANCH  16  17
ATOM     17  C   UNL     1       5.413  -0.507  -0.680  0.00  0.00    -0.010 A 
ATOM     18  C   UNL     1       5.054  -1.822  -0.909  0.00  0.00    +0.008 A 
ATOM     19  C   UNL     1       5.449  -2.453  -2.073  0.00  0.00    +0.020 A 
ATOM     20  C   UNL     1       6.215  -1.773  -3.004  0.00  0.00    +0.041 A 
ATOM     21  C   UNL     1       6.579  -0.459  -2.771  0.00  0.00    +0.020 A 
ATOM     22  C   UNL     1       6.178   0.174  -1.609  0.00  0.00    +0.008 A 
ATOM     23 CL   UNL     1       6.717  -2.568  -4.463  0.00  0.00    -0.084 Cl
ENDBRANCH  16  17
ENDBRANCH  15  16
ENDBRANCH  13  15
ENDBRANCH   6   8
BRANCH   4  24
ATOM     24  N   UNL     1      -2.456   1.550   0.366  0.00  0.00    -0.328 N 
ATOM     25  H   UNL     1      -2.490   0.585   0.462  0.00  0.00    +0.145 HD
ATOM     26  H   UNL     1      -3.275   2.069   0.392  0.00  0.00    +0.145 HD
ENDBRANCH   4  24
BRANCH   1  27
ATOM     27  C   UNL     1       2.139   4.168  -1.136  0.00  0.00    +0.339 C 
ATOM     28  O   UNL     1       2.449   3.943  -2.291  0.00  0.00    -0.245 OA
BRANCH  27  29
ATOM     29  O   UNL     1       2.842   5.063  -0.411  0.00  0.00    -0.462 OA
BRANCH  29  31
ATOM     30  C   UNL     1       4.609   6.680  -0.091  0.00  0.00    +0.048 C 
ATOM     31  C   UNL     1       3.938   5.709  -1.064  0.00  0.00    +0.229 C 
ENDBRANCH  29  31
ENDBRANCH  27  29
ENDBRANCH   1  27
BRANCH   5  32
ATOM     32  C   UNL     1      -0.198   0.016   0.306  0.00  0.00    +0.101 C 
ATOM     33  N   UNL     1      -0.262  -1.113   0.422  0.00  0.00    -0.191 NA
ENDBRANCH   5  32
TORSDOF 9
