REMARK  Name = ZINC39485418
REMARK  11 active torsions:
REMARK  status: ('A' for Active; 'I' for Inactive)
REMARK    1  A    between atoms: C_1  and  C_2
REMARK    2  A    between atoms: C_6  and  C_21
REMARK    3  A    between atoms: C_8  and  C_15
REMARK    4  A    between atoms: N_10  and  C_11
REMARK    5  A    between atoms: C_11  and  C_12
REMARK    6  A    between atoms: C_12  and  O_13
REMARK    7  A    between atoms: O_13  and  C_14
REMARK    8  A    between atoms: C_15  and  C_16
REMARK    9  A    between atoms: N_23  and  C_24
REMARK   10  A    between atoms: C_24  and  C_25
REMARK   11  A    between atoms: C_25  and  C_26
REMARK                            x       y       z     vdW  Elec       q    Type
REMARK                         _______ _______ _______ _____ _____    ______ ____
ROOT
ATOM      1  C   UNL     1       1.067  -0.660  -1.645  0.00  0.00    +0.060 C 
ATOM      2  C   UNL     1       0.340  -1.895  -1.177  0.00  0.00    +0.007 C 
ATOM      3  C   UNL     1      -0.111  -2.801  -2.077  0.00  0.00    +0.065 C 
ATOM      4  C   UNL     1      -0.772  -3.962  -1.660  0.00  0.00    +0.171 C 
ATOM      5  O   UNL     1      -1.186  -4.751  -2.488  0.00  0.00    -0.292 OA
ATOM      6  C   UNL     1      -0.974  -4.244  -0.193  0.00  0.00    +0.165 C 
ATOM      7  C   UNL     1      -1.024  -2.912   0.568  0.00  0.00    +0.093 C 
ATOM      8  N   UNL     1       0.140  -2.109   0.158  0.00  0.00    -0.327 N 
ENDROOT
BRANCH   6   9
ATOM      9  C   UNL     1      -2.268  -4.989   0.005  0.00  0.00    +0.225 C 
ATOM     10  O   UNL     1      -3.044  -4.640   0.869  0.00  0.00    -0.275 OA
ATOM     11  N   UNL     1      -2.564  -6.045  -0.779  0.00  0.00    -0.314 N 
ATOM     12  H   UNL     1      -1.944  -6.325  -1.470  0.00  0.00    +0.149 HD
BRANCH  11  13
ATOM     13  C   UNL     1      -3.822  -6.770  -0.587  0.00  0.00    +0.112 C 
BRANCH  13  14
ATOM     14  C   UNL     1      -3.911  -7.915  -1.598  0.00  0.00    +0.093 C 
BRANCH  14  15
ATOM     15  C   UNL     1      -5.205  -8.661  -1.400  0.00  0.00    +0.110 A 
ATOM     16  N   UNL     1      -6.129  -8.890  -2.372  0.00  0.00    -0.342 N 
ATOM     17  H   UNL     1      -6.071  -8.607  -3.298  0.00  0.00    +0.167 HD
ATOM     18  C   UNL     1      -7.164  -9.600  -1.796  0.00  0.00    +0.066 A 
ATOM     19  C   UNL     1      -8.364 -10.112  -2.270  0.00  0.00    +0.029 A 
ATOM     20  C   UNL     1      -9.204 -10.793  -1.416  0.00  0.00    +0.022 A 
ATOM     21  C   UNL     1      -8.858 -10.972  -0.083  0.00  0.00    +0.043 A 
ATOM     22  C   UNL     1      -7.672 -10.471   0.405  0.00  0.00    +0.050 A 
ATOM     23  C   UNL     1      -6.809  -9.778  -0.449  0.00  0.00    +0.090 A 
ATOM     24  N   UNL     1      -5.599  -9.185  -0.276  0.00  0.00    -0.232 NA
ATOM     25 CL   UNL     1      -9.930 -11.832   0.978  0.00  0.00    -0.083 Cl
ENDBRANCH  14  15
ENDBRANCH  13  14
ENDBRANCH  11  13
ENDBRANCH   6   9
BRANCH   8  26
ATOM     26  C   UNL     1       1.058  -1.550   1.153  0.00  0.00    +0.133 C 
BRANCH  26  27
ATOM     27  C   UNL     1       0.497  -0.227   1.679  0.00  0.00    +0.178 C 
BRANCH  27  28
ATOM     28  O   UNL     1      -0.721  -0.473   2.385  0.00  0.00    -0.381 OA
ATOM     29  C   UNL     1      -1.387   0.712   2.825  0.00  0.00    +0.194 C 
ENDBRANCH  27  28
ENDBRANCH  26  27
ENDBRANCH   8  26
BRANCH   7  30
ATOM     30  C   UNL     1      -2.317  -2.170   0.223  0.00  0.00    +0.027 C 
BRANCH  30  31
ATOM     31  C   UNL     1      -2.316  -1.804  -1.262  0.00  0.00    -0.009 C 
ATOM     32  C   UNL     1      -1.848  -0.346  -1.447  0.00  0.00    +0.003 C 
ATOM     33  C   UNL     1      -2.722   0.189  -2.609  0.00  0.00    +0.000 C 
ATOM     34  C   UNL     1      -4.097  -0.469  -2.333  0.00  0.00    +0.000 C 
ATOM     35  C   UNL     1      -3.745  -1.883  -1.826  0.00  0.00    +0.003 C 
ENDBRANCH  30  31
ENDBRANCH   7  30
TORSDOF 9
