REMARK  Name = ZINC06300162
REMARK  10 active torsions:
REMARK  status: ('A' for Active; 'I' for Inactive)
REMARK    1  A    between atoms: C_1  and  C_2
REMARK    2  A    between atoms: C_3  and  C_28
REMARK    3  A    between atoms: C_8  and  C_10
REMARK    4  A    between atoms: C_10  and  S_11
REMARK    5  A    between atoms: S_11  and  C_12
REMARK    6  A    between atoms: N_16  and  C_17
REMARK    7  A    between atoms: C_17  and  C_18
REMARK    8  A    between atoms: C_17  and  C_19
REMARK    9  A    between atoms: N_22  and  C_27
REMARK   10  A    between atoms: N_25  and  C_26
REMARK                            x       y       z     vdW  Elec       q    Type
REMARK                         _______ _______ _______ _____ _____    ______ ____
ROOT
ATOM      1  C   UNL     1      -2.487  -0.233   1.274  0.00  0.00    +0.172 A 
ATOM      2  N   UNL     1      -3.804  -0.301   1.287  0.00  0.00    -0.204 NA
ATOM      3  C   UNL     1      -4.324   0.927   1.299  0.00  0.00    +0.169 A 
ATOM      4  C   UNL     1      -3.266   1.831   1.298  0.00  0.00    +0.153 A 
ATOM      5  N   UNL     1      -2.103   1.072   1.277  0.00  0.00    -0.311 N 
ATOM      6  C   UNL     1      -3.542   3.209   1.314  0.00  0.00    +0.282 A 
ATOM      7  O   UNL     1      -2.631   4.019   1.311  0.00  0.00    -0.265 OA
ATOM      8  N   UNL     1      -4.825   3.626   1.333  0.00  0.00    -0.262 N 
ATOM      9  C   UNL     1      -5.839   2.744   1.337  0.00  0.00    +0.333 A 
ATOM     10  O   UNL     1      -6.983   3.156   1.354  0.00  0.00    -0.246 OA
ATOM     11  N   UNL     1      -5.620   1.416   1.315  0.00  0.00    -0.280 N 
ATOM     12  C   UNL     1      -6.753   0.487   1.321  0.00  0.00    +0.155 C 
ATOM     13  C   UNL     1      -5.117   5.061   1.350  0.00  0.00    +0.157 C 
ENDROOT
BRANCH   5  14
ATOM     14  C   UNL     1      -0.729   1.579   1.267  0.00  0.00    +0.084 C 
ATOM     15  C   UNL     1      -0.013   1.086   0.008  0.00  0.00    +0.030 C 
ATOM     16  C   UNL     1       0.011   1.072   2.506  0.00  0.00    +0.030 C 
ENDBRANCH   5  14
BRANCH   1  17
ATOM     17  S   UNL     1      -1.396  -1.616   1.257  0.00  0.00    -0.078 S 
BRANCH  17  18
ATOM     18  C   UNL     1      -2.600  -2.967   1.262  0.00  0.00    +0.173 C 
BRANCH  18  26
ATOM     19  C   UNL     1       1.357  -8.373   1.198  0.00  0.00    +0.066 C 
ATOM     20  C   UNL     1      -0.129  -8.120   1.213  0.00  0.00    +0.050 A 
ATOM     21  C   UNL     1      -1.008  -9.152   1.216  0.00  0.00    +0.011 A 
ATOM     22  S   UNL     1      -2.559  -8.265   1.235  0.00  0.00    -0.057 S 
ATOM     23  C   UNL     1      -1.901  -6.658   1.237  0.00  0.00    +0.165 A 
ATOM     24  N   UNL     1      -0.603  -6.890   1.218  0.00  0.00    -0.230 NA
ATOM     25  N   UNL     1      -2.571  -5.441   1.249  0.00  0.00    -0.264 N 
ATOM     26  C   UNL     1      -1.874  -4.287   1.248  0.00  0.00    +0.229 C 
ATOM     27  O   UNL     1      -0.661  -4.312   1.237  0.00  0.00    -0.275 OA
ATOM     28  C   UNL     1      -0.748 -10.636   1.206  0.00  0.00    +0.053 C 
ATOM     29  H   UNL     1      -3.541  -5.420   1.258  0.00  0.00    +0.157 HD
ENDBRANCH  18  26
ENDBRANCH  17  18
ENDBRANCH   1  17
TORSDOF 4
