REMARK  Name = ZINC35450753
REMARK  15 active torsions:
REMARK  status: ('A' for Active; 'I' for Inactive)
REMARK    1  A    between atoms: C_1  and  C_2
REMARK    2  A    between atoms: C_2  and  C_3
REMARK    3  A    between atoms: C_2  and  C_4
REMARK    4  A    between atoms: C_4  and  C_5
REMARK    5  A    between atoms: C_5  and  S_6
REMARK    6  A    between atoms: S_6  and  C_7
REMARK    7  A    between atoms: C_14  and  C_26
REMARK    8  A    between atoms: C_20  and  C_24
REMARK    9  A    between atoms: C_20  and  C_25
REMARK   10  A    between atoms: C_28  and  O_36
REMARK   11  A    between atoms: C_29  and  O_34
REMARK   12  A    between atoms: C_31  and  O_32
REMARK   13  A    between atoms: O_32  and  C_33
REMARK   14  A    between atoms: O_34  and  C_35
REMARK   15  A    between atoms: O_36  and  C_37
REMARK                            x       y       z     vdW  Elec       q    Type
REMARK                         _______ _______ _______ _____ _____    ______ ____
ROOT
ATOM      1  C   UNL     1       4.694  -0.098  -2.494  0.00  0.00    +0.171 A 
ATOM      2  N   UNL     1       5.018   0.576  -1.409  0.00  0.00    -0.208 NA
ATOM      3  C   UNL     1       6.265   1.018  -1.218  0.00  0.00    +0.135 A 
ATOM      4  C   UNL     1       7.238   0.771  -2.171  0.00  0.00    +0.069 A 
ATOM      5  C   UNL     1       6.889   0.054  -3.321  0.00  0.00    +0.258 A 
ATOM      6  O   UNL     1       7.721  -0.185  -4.182  0.00  0.00    -0.267 OA
ATOM      7  N   UNL     1       5.616  -0.374  -3.458  0.00  0.00    -0.302 N 
ATOM      8  C   UNL     1       8.641   1.266  -1.982  0.00  0.00    +0.096 C 
ATOM      9  C   UNL     1       8.908   1.620  -0.541  0.00  0.00    +0.024 C 
ATOM     10  C   UNL     1       7.896   1.833   0.326  0.00  0.00    +0.017 C 
ATOM     11  N   UNL     1       6.592   1.719  -0.073  0.00  0.00    -0.302 N 
ATOM     12  C   UNL     1       8.170   2.211   1.761  0.00  0.00    +0.058 C 
ATOM     13  C   UNL     1       9.485   1.574   2.218  0.00  0.00    -0.023 C 
ATOM     14  C   UNL     1      10.605   2.060   1.293  0.00  0.00    +0.086 C 
ATOM     15  C   UNL     1      10.248   1.720  -0.128  0.00  0.00    +0.162 C 
ATOM     16  O   UNL     1      11.136   1.529  -0.935  0.00  0.00    -0.292 OA
ATOM     17  C   UNL     1       9.374   0.051   2.138  0.00  0.00    +0.011 C 
ATOM     18  C   UNL     1       9.787   1.994   3.658  0.00  0.00    +0.011 C 
ATOM     19  H   UNL     1       5.891   2.133   0.453  0.00  0.00    +0.153 HD
ATOM     20  H   UNL     1       5.356  -0.877  -4.247  0.00  0.00    +0.171 HD
ENDROOT
BRANCH   8  21
ATOM     21  C   UNL     1       8.853   2.488  -2.837  0.00  0.00    +0.010 A 
ATOM     22  C   UNL     1       8.072   3.612  -2.640  0.00  0.00    +0.057 A 
ATOM     23  C   UNL     1       8.265   4.737  -3.425  0.00  0.00    +0.162 A 
ATOM     24  C   UNL     1       9.246   4.736  -4.412  0.00  0.00    +0.165 A 
ATOM     25  C   UNL     1      10.027   3.609  -4.608  0.00  0.00    +0.095 A 
ATOM     26  C   UNL     1       9.834   2.486  -3.817  0.00  0.00    +0.128 A 
BRANCH  26  27
ATOM     27  O   UNL     1      10.604   1.382  -4.005  0.00  0.00    -0.495 OA
ATOM     28  C   UNL     1      11.596   1.450  -5.032  0.00  0.00    +0.277 C 
ENDBRANCH  26  27
BRANCH  24  29
ATOM     29  O   UNL     1       9.437   5.840  -5.184  0.00  0.00    -0.491 OA
ATOM     30  C   UNL     1      10.461   5.767  -6.177  0.00  0.00    +0.277 C 
ENDBRANCH  24  29
BRANCH  23  31
ATOM     31  O   UNL     1       7.496   5.843  -3.230  0.00  0.00    -0.491 OA
ATOM     32  C   UNL     1       6.509   5.773  -2.200  0.00  0.00    +0.277 C 
ENDBRANCH  23  31
ENDBRANCH   8  21
BRANCH   1  33
ATOM     33  S   UNL     1       3.036  -0.658  -2.700  0.00  0.00    -0.088 S 
BRANCH  33  34
ATOM     34  C   UNL     1       2.187  -0.073  -1.207  0.00  0.00    +0.077 C 
BRANCH  34  35
ATOM     35  C   UNL     1       0.718  -0.497  -1.257  0.00  0.00    +0.014 C 
BRANCH  35  37
ATOM     36  C   UNL     1      -0.019   1.526   0.010  0.00  0.00    +0.007 C 
ATOM     37  C   UNL     1       0.002  -0.004   0.002  0.00  0.00    -0.016 C 
ATOM     38  C   UNL     1      -1.433  -0.534   0.013  0.00  0.00    +0.007 C 
ENDBRANCH  35  37
ENDBRANCH  34  35
ENDBRANCH  33  34
ENDBRANCH   1  33
TORSDOF 8
