REMARK  Name = ZINC63479899
REMARK  3 active torsions:
REMARK  status: ('A' for Active; 'I' for Inactive)
REMARK    1  A    between atoms: C_7  and  C_10
REMARK    2  A    between atoms: C_10  and  C_11
REMARK    3  A    between atoms: N_19  and  C_22
REMARK                            x       y       z     vdW  Elec       q    Type
REMARK                         _______ _______ _______ _____ _____    ______ ____
ROOT
ATOM      1  C   UNL     1       0.236  -3.703  -1.156  0.00  0.00    +0.072 C 
ATOM      2  C   UNL     1      -0.647  -4.938  -1.433  0.00  0.00    +0.107 C 
ATOM      3  C   UNL     1       0.011  -5.628  -2.661  0.00  0.00    +0.123 C 
ATOM      4  C   UNL     1      -1.030  -5.474  -3.746  0.00  0.00    +0.233 C 
ATOM      5  O   UNL     1      -0.919  -5.875  -4.885  0.00  0.00    -0.274 OA
ATOM      6  N   UNL     1      -2.093  -4.828  -3.255  0.00  0.00    -0.210 N 
ATOM      7  C   UNL     1      -1.992  -4.481  -1.950  0.00  0.00    +0.232 C 
ATOM      8  O   UNL     1      -2.832  -3.899  -1.298  0.00  0.00    -0.274 OA
ATOM      9  C   UNL     1       1.241  -4.770  -2.976  0.00  0.00    +0.136 C 
ATOM     10  N   UNL     1       1.561  -4.038  -1.741  0.00  0.00    -0.295 NA
ATOM     11  C   UNL     1       2.393  -5.610  -3.450  0.00  0.00    +0.005 A 
ATOM     12  C   UNL     1       3.099  -6.652  -2.890  0.00  0.00    +0.008 A 
ATOM     13  C   UNL     1       4.138  -7.239  -3.591  0.00  0.00    +0.002 A 
ATOM     14  C   UNL     1       4.464  -6.779  -4.853  0.00  0.00    +0.022 A 
ATOM     15  C   UNL     1       3.759  -5.735  -5.418  0.00  0.00    +0.062 A 
ATOM     16  C   UNL     1       2.711  -5.138  -4.719  0.00  0.00    +0.057 A 
ATOM     17  N   UNL     1       1.862  -4.086  -5.070  0.00  0.00    -0.282 N 
ATOM     18  C   UNL     1       0.969  -3.809  -4.100  0.00  0.00    +0.243 C 
ATOM     19  O   UNL     1       0.112  -2.951  -4.129  0.00  0.00    -0.273 OA
ATOM     20 CL   UNL     1       4.179  -5.164  -7.003  0.00  0.00    -0.082 Cl
ATOM     21  H   UNL     1       2.092  -3.203  -1.936  0.00  0.00    +0.124 HD
ATOM     22  H   UNL     1       1.909  -3.610  -5.914  0.00  0.00    +0.155 HD
ENDROOT
BRANCH   6  23
ATOM     23  C   UNL     1      -3.228  -4.537  -4.026  0.00  0.00    +0.044 A 
ATOM     24  C   UNL     1      -3.534  -3.220  -4.342  0.00  0.00    +0.027 A 
ATOM     25  C   UNL     1      -4.652  -2.935  -5.102  0.00  0.00    +0.040 A 
ATOM     26  C   UNL     1      -5.466  -3.962  -5.549  0.00  0.00    +0.124 A 
ATOM     27  C   UNL     1      -5.162  -5.276  -5.236  0.00  0.00    +0.040 A 
ATOM     28  C   UNL     1      -4.042  -5.565  -4.481  0.00  0.00    +0.027 A 
ATOM     29  F   UNL     1      -6.559  -3.681  -6.292  0.00  0.00    -0.205 F 
ENDBRANCH   6  23
BRANCH   1  30
ATOM     30  C   UNL     1       0.363  -3.467   0.351  0.00  0.00    +0.052 C 
BRANCH  30  37
ATOM     31  C   UNL     1      -0.881   0.884   1.106  0.00  0.00    +0.001 A 
ATOM     32  C   UNL     1       0.202   1.755   1.289  0.00  0.00    +0.002 A 
ATOM     33  C   UNL     1       1.486   1.341   1.245  0.00  0.00    +0.026 A 
ATOM     34  C   UNL     1       1.792  -0.027   1.006  0.00  0.00    +0.043 A 
ATOM     35  N   UNL     1       2.935  -0.663   0.918  0.00  0.00    -0.380 N 
ATOM     36  C   UNL     1       2.662  -2.081   0.656  0.00  0.00    +0.144 C 
ATOM     37  C   UNL     1       1.156  -2.209   0.597  0.00  0.00    -0.040 C 
ATOM     38  C   UNL     1       0.665  -0.967   0.810  0.00  0.00    -0.001 A 
ATOM     39  C   UNL     1      -0.701  -0.436   0.873  0.00  0.00    +0.010 A 
ATOM     40  H   UNL     1       3.814  -0.264   1.011  0.00  0.00    +0.160 HD
ENDBRANCH  30  37
ENDBRANCH   1  30
TORSDOF 3
