REMARK  Name = ZINC33810633
REMARK  12 active torsions:
REMARK  status: ('A' for Active; 'I' for Inactive)
REMARK    1  A    between atoms: C_1  and  C_2
REMARK    2  A    between atoms: C_2  and  N_3
REMARK    3  A    between atoms: N_3  and  C_4
REMARK    4  A    between atoms: N_3  and  C_6
REMARK    5  A    between atoms: C_4  and  C_5
REMARK    6  A    between atoms: C_9  and  C_12
REMARK    7  A    between atoms: C_17  and  S_21
REMARK    8  A    between atoms: S_21  and  C_22
REMARK    9  A    between atoms: C_22  and  C_23
REMARK   10  A    between atoms: C_26  and  C_29
REMARK   11  A    between atoms: C_36  and  C_38
REMARK   12  A    between atoms: C_36  and  C_39
REMARK                            x       y       z     vdW  Elec       q    Type
REMARK                         _______ _______ _______ _____ _____    ______ ____
ROOT
ATOM      1  C   UNL     1       2.336   0.062  -0.857  0.00  0.00    +0.092 C 
ATOM      2  C   UNL     1       2.315   1.492  -0.404  0.00  0.00    +0.069 A 
ATOM      3  C   UNL     1       1.158   2.080   0.002  0.00  0.00    +0.135 A 
ATOM      4  N   UNL     1       1.176   3.390   0.402  0.00  0.00    -0.208 NA
ATOM      5  C   UNL     1       2.344   4.091   0.395  0.00  0.00    +0.171 A 
ATOM      6  N   UNL     1       3.472   3.531   0.008  0.00  0.00    -0.302 N 
ATOM      7  C   UNL     1       3.505   2.252  -0.394  0.00  0.00    +0.258 A 
ATOM      8  O   UNL     1       4.560   1.746  -0.750  0.00  0.00    -0.267 OA
ATOM      9  N   UNL     1      -0.017   1.364   0.009  0.00  0.00    -0.302 N 
ATOM     10  C   UNL     1       0.002  -0.004   0.002  0.00  0.00    +0.017 C 
ATOM     11  C   UNL     1       1.102  -0.675  -0.402  0.00  0.00    +0.024 C 
ATOM     12  C   UNL     1       1.128  -2.080  -0.416  0.00  0.00    +0.162 C 
ATOM     13  O   UNL     1       2.140  -2.654  -0.768  0.00  0.00    -0.292 OA
ATOM     14  C   UNL     1      -0.072  -2.888  -0.004  0.00  0.00    +0.086 C 
ATOM     15  C   UNL     1      -1.340  -2.074  -0.283  0.00  0.00    -0.023 C 
ATOM     16  C   UNL     1      -1.233  -0.740   0.459  0.00  0.00    +0.058 C 
ATOM     17  C   UNL     1      -1.465  -1.817  -1.786  0.00  0.00    +0.011 C 
ATOM     18  C   UNL     1      -2.565  -2.846   0.210  0.00  0.00    +0.011 C 
ATOM     19  H   UNL     1      -0.982   1.892   0.021  0.00  0.00    +0.153 HD
ATOM     20  H   UNL     1       4.404   4.115   0.010  0.00  0.00    +0.171 HD
ENDROOT
BRANCH   1  24
ATOM     21  C   UNL     1       2.541  -0.051  -5.124  0.00  0.00    +0.030 A 
ATOM     22  C   UNL     1       3.565  -0.602  -4.364  0.00  0.00    +0.023 A 
ATOM     23  C   UNL     1       3.495  -0.563  -2.985  0.00  0.00    +0.006 A 
ATOM     24  C   UNL     1       2.408   0.022  -2.361  0.00  0.00    -0.035 A 
ATOM     25  C   UNL     1       1.385   0.565  -3.116  0.00  0.00    +0.006 A 
ATOM     26  C   UNL     1       1.450   0.535  -4.495  0.00  0.00    +0.023 A 
BRANCH  21  27
ATOM     27  N   UNL     1       2.608  -0.089  -6.519  0.00  0.00    -0.330 N 
BRANCH  27  29
ATOM     28  C   UNL     1       1.834   1.964  -7.600  0.00  0.00    +0.024 C 
ATOM     29  C   UNL     1       1.527   0.492  -7.320  0.00  0.00    +0.102 C 
ENDBRANCH  27  29
BRANCH  27  30
ATOM     30  C   UNL     1       3.758  -0.709  -7.181  0.00  0.00    +0.102 C 
ATOM     31  C   UNL     1       3.475  -2.195  -7.410  0.00  0.00    +0.024 C 
ENDBRANCH  27  30
ENDBRANCH  21  27
ENDBRANCH   1  24
BRANCH   5  32
ATOM     32  S   UNL     1       2.347   5.775   0.913  0.00  0.00    -0.083 S 
BRANCH  32  33
ATOM     33  C   UNL     1       4.101   6.167   0.699  0.00  0.00    +0.112 C 
BRANCH  33  34
ATOM     34  C   UNL     1       4.347   7.601   1.093  0.00  0.00    -0.037 A 
ATOM     35  C   UNL     1       4.251   8.604   0.147  0.00  0.00    +0.005 A 
ATOM     36  C   UNL     1       4.472   9.919   0.510  0.00  0.00    +0.003 A 
ATOM     37  C   UNL     1       4.800  10.230   1.816  0.00  0.00    -0.050 A 
ATOM     38  C   UNL     1       4.901   9.226   2.761  0.00  0.00    +0.003 A 
ATOM     39  C   UNL     1       4.675   7.911   2.400  0.00  0.00    +0.005 A 
ATOM     40  C   UNL     1       5.046  11.664   2.211  0.00  0.00    +0.044 C 
ENDBRANCH  33  34
ENDBRANCH  32  33
ENDBRANCH   5  32
TORSDOF 7
