REMARK  Name = ZINC12702773
REMARK  11 active torsions:
REMARK  status: ('A' for Active; 'I' for Inactive)
REMARK    1  A    between atoms: C_1  and  C_2
REMARK    2  A    between atoms: C_5  and  C_7
REMARK    3  A    between atoms: N_10  and  C_12
REMARK    4  A    between atoms: C_12  and  C_13
REMARK    5  A    between atoms: N_15  and  C_16
REMARK    6  A    between atoms: N_15  and  C_23
REMARK    7  A    between atoms: C_16  and  C_17
REMARK    8  A    between atoms: C_23  and  C_25
REMARK    9  A    between atoms: C_23  and  C_32
REMARK   10  A    between atoms: C_28  and  O_31
REMARK   11  A    between atoms: N_34  and  C_35
REMARK                            x       y       z     vdW  Elec       q    Type
REMARK                         _______ _______ _______ _____ _____    ______ ____
ROOT
ATOM      1  C   UNL     1      -0.664  -0.536  -0.457  0.00  0.00    +0.240 C 
ATOM      2  O   UNL     1      -0.611  -1.183   0.567  0.00  0.00    -0.273 OA
ATOM      3  N   UNL     1       0.059  -0.913  -1.531  0.00  0.00    -0.280 N 
ENDROOT
BRANCH   1   4
ATOM      4  C   UNL     1      -1.537   0.690  -0.530  0.00  0.00    +0.264 C 
BRANCH   4   8
ATOM      5  C   UNL     1      -3.717   0.724   2.246  0.00  0.00    +0.239 A 
ATOM      6  N   UNL     1      -2.696   1.469   2.696  0.00  0.00    -0.105 NA
ATOM      7  N   UNL     1      -1.820   1.529   1.751  0.00  0.00    -0.045 NA
ATOM      8  N   UNL     1      -2.249   0.858   0.739  0.00  0.00    -0.154 N 
ATOM      9  N   UNL     1      -3.406   0.362   1.015  0.00  0.00    -0.127 NA
BRANCH   5  14
ATOM     10  C   UNL     1      -8.214  -1.230   3.323  0.00  0.00    +0.086 C 
ATOM     11  C   UNL     1      -6.919  -0.472   3.459  0.00  0.00    +0.103 A 
ATOM     12  C   UNL     1      -6.521   0.215   4.548  0.00  0.00    +0.045 A 
ATOM     13  C   UNL     1      -5.256   0.761   4.252  0.00  0.00    +0.053 A 
ATOM     14  C   UNL     1      -4.952   0.380   2.983  0.00  0.00    +0.175 A 
ATOM     15  O   UNL     1      -5.968  -0.370   2.516  0.00  0.00    -0.457 OA
ENDBRANCH   5  14
ENDBRANCH   4   8
ENDBRANCH   1   4
BRANCH   3  16
ATOM     16  C   UNL     1       0.014  -0.117  -2.760  0.00  0.00    +0.144 C 
BRANCH  16  17
ATOM     17  C   UNL     1      -0.938  -0.757  -3.738  0.00  0.00    -0.030 A 
ATOM     18  C   UNL     1      -0.566  -1.901  -4.417  0.00  0.00    +0.005 A 
ATOM     19  C   UNL     1      -1.441  -2.491  -5.310  0.00  0.00    +0.000 A 
ATOM     20  C   UNL     1      -2.684  -1.929  -5.532  0.00  0.00    +0.000 A 
ATOM     21  C   UNL     1      -3.054  -0.781  -4.857  0.00  0.00    +0.000 A 
ATOM     22  C   UNL     1      -2.181  -0.195  -3.959  0.00  0.00    +0.005 A 
ENDBRANCH  16  17
ENDBRANCH   3  16
BRANCH   3  23
ATOM     23  C   UNL     1       0.889  -2.119  -1.468  0.00  0.00    +0.193 C 
BRANCH  23  24
ATOM     24  C   UNL     1       2.000  -1.912  -0.471  0.00  0.00    -0.018 A 
ATOM     25  C   UNL     1       2.641  -0.690  -0.395  0.00  0.00    +0.009 A 
ATOM     26  C   UNL     1       3.656  -0.496   0.522  0.00  0.00    +0.046 A 
ATOM     27  C   UNL     1       4.040  -1.534   1.359  0.00  0.00    +0.117 A 
ATOM     28  C   UNL     1       3.399  -2.761   1.276  0.00  0.00    +0.046 A 
ATOM     29  C   UNL     1       2.381  -2.948   0.362  0.00  0.00    +0.009 A 
BRANCH  27  30
ATOM     30  O   UNL     1       5.043  -1.348   2.257  0.00  0.00    -0.507 OA
ATOM     31  H   UNL     1       5.922  -1.561   1.915  0.00  0.00    +0.292 HD
ENDBRANCH  27  30
ENDBRANCH  23  24
BRANCH  23  32
ATOM     32  C   UNL     1       1.478  -2.394  -2.827  0.00  0.00    +0.238 C 
ATOM     33  O   UNL     1       1.755  -1.473  -3.566  0.00  0.00    -0.273 OA
ATOM     34  N   UNL     1       1.698  -3.664  -3.222  0.00  0.00    -0.311 N 
ATOM     35  H   UNL     1       1.477  -4.400  -2.631  0.00  0.00    +0.149 HD
BRANCH  34  36
ATOM     36  C   UNL     1       2.271  -3.931  -4.543  0.00  0.00    +0.073 C 
ATOM     37  C   UNL     1       1.148  -4.028  -5.597  0.00  0.00    +0.022 C 
ATOM     38  C   UNL     1       1.622  -5.148  -6.556  0.00  0.00    +0.002 C 
ATOM     39  C   UNL     1       2.279  -6.168  -5.592  0.00  0.00    +0.002 C 
ATOM     40  C   UNL     1       2.990  -5.292  -4.541  0.00  0.00    +0.022 C 
ENDBRANCH  34  36
ENDBRANCH  23  32
ENDBRANCH   3  23
TORSDOF 10
