REMARK  Name = ZINC38535894
REMARK  8 active torsions:
REMARK  status: ('A' for Active; 'I' for Inactive)
REMARK    1  A    between atoms: C_4  and  O_7
REMARK    2  A    between atoms: O_7  and  C_8
REMARK    3  A    between atoms: C_8  and  C_9
REMARK    4  A    between atoms: N_17  and  C_18
REMARK    5  A    between atoms: C_18  and  C_19
REMARK    6  A    between atoms: N_22  and  C_25
REMARK    7  A    between atoms: C_25  and  C_26
REMARK    8  A    between atoms: C_26  and  C_28
REMARK                            x       y       z     vdW  Elec       q    Type
REMARK                         _______ _______ _______ _____ _____    ______ ____
ROOT
ATOM      1  C   UNL     1       4.567  -4.026   2.921  0.00  0.00    +0.005 C 
ATOM      2  C   UNL     1       3.270  -4.245   2.138  0.00  0.00    -0.014 C 
ATOM      3  C   UNL     1       2.556  -5.486   2.681  0.00  0.00    -0.078 C 
ATOM      4  N   UNL     1       2.245  -5.293   4.102  0.00  0.00    +0.385 N 
ATOM      5  C   UNL     1       3.488  -5.153   4.870  0.00  0.00    -0.078 C 
ATOM      6  C   UNL     1       4.237  -3.900   4.412  0.00  0.00    -0.014 C 
ATOM      7  H   UNL     1       1.687  -4.459   4.213  0.00  0.00    -0.081 HD
ENDROOT
BRANCH   1   8
ATOM      8  C   UNL     1       5.246  -2.743   2.438  0.00  0.00    +0.127 C 
BRANCH   8  17
ATOM      9  C   UNL     1       4.932  -2.615  -0.061  0.00  0.00    +0.149 A 
ATOM     10  N   UNL     1       5.616  -2.879  -1.136  0.00  0.00    -0.229 NA
ATOM     11  C   UNL     1       6.836  -3.366  -0.793  0.00  0.00    +0.089 A 
ATOM     12  C   UNL     1       7.942  -3.800  -1.528  0.00  0.00    +0.030 A 
ATOM     13  C   UNL     1       9.058  -4.248  -0.879  0.00  0.00    +0.002 A 
ATOM     14  C   UNL     1       9.107  -4.277   0.507  0.00  0.00    +0.002 A 
ATOM     15  C   UNL     1       8.027  -3.853   1.253  0.00  0.00    +0.028 A 
ATOM     16  C   UNL     1       6.885  -3.395   0.611  0.00  0.00    +0.069 A 
ATOM     17  N   UNL     1       5.668  -2.909   1.045  0.00  0.00    -0.325 N 
BRANCH   9  18
ATOM     18  C   UNL     1       3.531  -2.060  -0.044  0.00  0.00    +0.303 C 
BRANCH  18  19
ATOM     19  O   UNL     1       3.586  -0.632  -0.037  0.00  0.00    -0.484 OA
BRANCH  19  23
ATOM     20  C   UNL     1      -0.017   1.378   0.010  0.00  0.00    +0.000 A 
ATOM     21  C   UNL     1       1.170   2.088   0.002  0.00  0.00    +0.004 A 
ATOM     22  C   UNL     1       2.377   1.417  -0.013  0.00  0.00    +0.045 A 
ATOM     23  C   UNL     1       2.399   0.030  -0.021  0.00  0.00    +0.121 A 
ATOM     24  C   UNL     1       1.207  -0.680  -0.013  0.00  0.00    +0.045 A 
ATOM     25  C   UNL     1       0.002  -0.004   0.002  0.00  0.00    +0.004 A 
ENDBRANCH  19  23
ENDBRANCH  18  19
ENDBRANCH   9  18
ENDBRANCH   8  17
ENDBRANCH   1   8
BRANCH   4  26
ATOM     26  C   UNL     1       1.492  -6.452   4.599  0.00  0.00    +0.002 C 
BRANCH  26  27
ATOM     27  C   UNL     1       1.066  -6.202   6.022  0.00  0.00    +0.147 C 
ATOM     28  O   UNL     1       1.360  -5.160   6.569  0.00  0.00    -0.294 OA
BRANCH  27  29
ATOM     29  C   UNL     1       0.294  -7.220   6.747  0.00  0.00    +0.017 A 
ATOM     30  C   UNL     1      -0.042  -8.425   6.119  0.00  0.00    +0.015 A 
ATOM     31  C   UNL     1      -0.766  -9.380   6.799  0.00  0.00    +0.048 A 
ATOM     32  C   UNL     1      -1.164  -9.149   8.109  0.00  0.00    +0.142 A 
ATOM     33  C   UNL     1      -0.833  -7.949   8.742  0.00  0.00    +0.076 A 
ATOM     34  C   UNL     1      -0.104  -6.989   8.071  0.00  0.00    +0.038 A 
ATOM     35  N   UNL     1      -1.246  -7.736  10.066  0.00  0.00    -0.280 N 
ATOM     36  C   UNL     1      -1.666  -8.791  10.798  0.00  0.00    +0.255 C 
ATOM     37  O   UNL     1      -2.056  -8.627  11.934  0.00  0.00    -0.272 OA
ATOM     38  C   UNL     1      -1.649 -10.173  10.195  0.00  0.00    +0.325 C 
ATOM     39  O   UNL     1      -1.877 -10.086   8.787  0.00  0.00    -0.481 OA
ATOM     40  H   UNL     1      -1.230  -6.845  10.450  0.00  0.00    +0.155 HD
ENDBRANCH  27  29
ENDBRANCH  26  27
ENDBRANCH   4  26
TORSDOF 8
