REMARK  Name = ZINC04761944
REMARK  15 active torsions:
REMARK  status: ('A' for Active; 'I' for Inactive)
REMARK    1  A    between atoms: C_1  and  C_2
REMARK    2  A    between atoms: C_7  and  C_22
REMARK    3  A    between atoms: C_9  and  C_13
REMARK    4  A    between atoms: C_10  and  C_12
REMARK    5  A    between atoms: C_13  and  O_15
REMARK    6  A    between atoms: O_15  and  C_16
REMARK    7  A    between atoms: C_16  and  C_17
REMARK    8  A    between atoms: C_17  and  O_18
REMARK    9  A    between atoms: O_18  and  C_19
REMARK   10  A    between atoms: C_19  and  C_20
REMARK   11  A    between atoms: C_19  and  C_21
REMARK   12  A    between atoms: C_25  and  O_28
REMARK   13  A    between atoms: C_31  and  C_33
REMARK   14  A    between atoms: C_33  and  O_35
REMARK   15  A    between atoms: O_35  and  C_36
REMARK                            x       y       z     vdW  Elec       q    Type
REMARK                         _______ _______ _______ _____ _____    ______ ____
ROOT
ATOM      1  C   UNL     1       3.720  -1.397   3.454  0.00  0.00    +0.009 C 
ATOM      2  C   UNL     1       3.418  -2.890   3.601  0.00  0.00    +0.013 C 
ATOM      3  C   UNL     1       3.925  -3.640   2.367  0.00  0.00    +0.055 C 
ATOM      4  C   UNL     1       3.207  -3.139   1.139  0.00  0.00    +0.016 C 
ATOM      5  C   UNL     1       1.939  -2.680   1.213  0.00  0.00    +0.025 C 
ATOM      6  C   UNL     1       1.226  -2.187  -0.021  0.00  0.00    +0.092 C 
ATOM      7  C   UNL     1       1.912  -2.665  -1.267  0.00  0.00    +0.065 C 
ATOM      8  C   UNL     1       3.175  -3.119  -1.238  0.00  0.00    +0.016 C 
ATOM      9  N   UNL     1       3.868  -3.164  -0.060  0.00  0.00    -0.321 N 
ATOM     10  C   UNL     1       3.834  -3.583  -2.511  0.00  0.00    +0.061 C 
ATOM     11  C   UNL     1       1.250  -2.646   2.438  0.00  0.00    +0.176 C 
ATOM     12  O   UNL     1       0.106  -2.240   2.467  0.00  0.00    -0.291 OA
ATOM     13  C   UNL     1       1.905  -3.104   3.712  0.00  0.00    +0.171 C 
ATOM     14  H   UNL     1       4.966  -3.219  -0.081  0.00  0.00    +0.152 HD
ENDROOT
BRANCH   6  15
ATOM     15  C   UNL     1       1.208  -0.680  -0.013  0.00  0.00    -0.035 A 
ATOM     16  C   UNL     1       0.002  -0.004   0.002  0.00  0.00    +0.008 A 
ATOM     17  C   UNL     1      -0.017   1.377   0.010  0.00  0.00    +0.046 A 
ATOM     18  C   UNL     1       1.176   2.086   0.002  0.00  0.00    +0.117 A 
ATOM     19  C   UNL     1       2.385   1.405  -0.013  0.00  0.00    +0.046 A 
ATOM     20  C   UNL     1       2.398   0.024  -0.021  0.00  0.00    +0.008 A 
BRANCH  18  21
ATOM     21  O   UNL     1       1.160   3.445   0.010  0.00  0.00    -0.507 OA
ATOM     22  H   UNL     1       2.106   4.006   0.004  0.00  0.00    +0.292 HD
ENDBRANCH  18  21
ENDBRANCH   6  15
BRANCH   7  23
ATOM     23  C   UNL     1       1.214  -2.638  -2.497  0.00  0.00    +0.338 C 
ATOM     24  O   UNL     1       1.760  -3.023  -3.514  0.00  0.00    -0.245 OA
BRANCH  23  25
ATOM     25  O   UNL     1      -0.056  -2.184  -2.542  0.00  0.00    -0.459 OA
BRANCH  25  26
ATOM     26  C   UNL     1      -0.700  -2.185  -3.818  0.00  0.00    +0.260 C 
BRANCH  26  27
ATOM     27  C   UNL     1      -2.122  -1.641  -3.672  0.00  0.00    +0.201 C 
BRANCH  27  28
ATOM     28  O   UNL     1      -2.069  -0.269  -3.276  0.00  0.00    -0.374 OA
BRANCH  28  29
ATOM     29  C   UNL     1      -3.352   0.338  -3.110  0.00  0.00    +0.112 C 
ATOM     30  C   UNL     1      -3.265   1.432  -2.043  0.00  0.00    +0.037 C 
ATOM     31  C   UNL     1      -3.800   0.955  -4.437  0.00  0.00    +0.037 C 
ENDBRANCH  28  29
ENDBRANCH  27  28
ENDBRANCH  26  27
ENDBRANCH  25  26
ENDBRANCH  23  25
ENDBRANCH   7  23
BRANCH  13  32
ATOM     32  C   UNL     1       1.366  -2.306   4.871  0.00  0.00    +0.318 C 
ATOM     33  O   UNL     1       2.114  -1.633   5.541  0.00  0.00    -0.250 OA
BRANCH  32  34
ATOM     34  O   UNL     1       0.056  -2.342   5.160  0.00  0.00    -0.467 OA
ATOM     35  C   UNL     1      -0.393  -1.548   6.290  0.00  0.00    +0.280 C 
ENDBRANCH  32  34
ENDBRANCH  13  32
TORSDOF 10
