REMARK  Name = ZINC08946526
REMARK  11 active torsions:
REMARK  status: ('A' for Active; 'I' for Inactive)
REMARK    1  A    between atoms: C_1  and  C_2
REMARK    2  A    between atoms: C_2  and  C_4
REMARK    3  A    between atoms: C_2  and  N_11
REMARK    4  A    between atoms: C_12  and  C_14
REMARK    5  A    between atoms: C_14  and  N_15
REMARK    6  A    between atoms: C_18  and  C_22
REMARK    7  A    between atoms: C_18  and  C_23
REMARK    8  A    between atoms: C_26  and  C_29
REMARK    9  A    between atoms: C_29  and  C_30
REMARK   10  A    between atoms: C_29  and  C_31
REMARK   11  A    between atoms: C_29  and  C_32
REMARK                            x       y       z     vdW  Elec       q    Type
REMARK                         _______ _______ _______ _____ _____    ______ ____
ROOT
ATOM      1  N   UNL     1       1.274   1.894   0.000  0.00  0.00    -0.215 N 
ATOM      2  C   UNL     1      -0.018   1.512   0.010  0.00  0.00    +0.251 C 
ATOM      3  O   UNL     1      -0.995   2.231   0.019  0.00  0.00    -0.272 OA
ATOM      4  C   UNL     1       0.002  -0.004   0.002  0.00  0.00    +0.135 C 
ATOM      5  N   UNL     1       1.438  -0.331  -0.013  0.00  0.00    -0.281 N 
ATOM      6  C   UNL     1       2.099   0.841  -0.013  0.00  0.00    +0.310 C 
ATOM      7  O   UNL     1       3.311   0.933  -0.025  0.00  0.00    -0.252 OA
ATOM      8  C   UNL     1      -0.686  -0.545  -1.253  0.00  0.00    +0.047 C 
ATOM      9  H   UNL     1       1.831  -1.218  -0.022  0.00  0.00    +0.152 HD
ENDROOT
BRANCH   4  10
ATOM     10  C   UNL     1      -0.652  -0.550   1.245  0.00  0.00    -0.015 A 
ATOM     11  C   UNL     1      -1.662   0.163   1.865  0.00  0.00    +0.006 A 
ATOM     12  C   UNL     1      -2.265  -0.340   3.002  0.00  0.00    +0.004 A 
ATOM     13  C   UNL     1      -1.853  -1.551   3.525  0.00  0.00    -0.042 A 
ATOM     14  C   UNL     1      -0.840  -2.262   2.908  0.00  0.00    +0.004 A 
ATOM     15  C   UNL     1      -0.240  -1.761   1.768  0.00  0.00    +0.006 A 
BRANCH  13  16
ATOM     16  C   UNL     1      -2.507  -2.097   4.769  0.00  0.00    -0.013 C 
ATOM     17  C   UNL     1      -1.454  -2.268   5.865  0.00  0.00    +0.015 C 
ATOM     18  C   UNL     1      -3.587  -1.124   5.245  0.00  0.00    +0.015 C 
ATOM     19  C   UNL     1      -3.143  -3.453   4.457  0.00  0.00    +0.015 C 
ENDBRANCH  13  16
ENDBRANCH   4  10
BRANCH   1  20
ATOM     20  C   UNL     1       1.720   3.289   0.002  0.00  0.00    +0.213 C 
BRANCH  20  22
ATOM     21  N   UNL     1       2.291   5.022   1.672  0.00  0.00    -0.307 N 
ATOM     22  C   UNL     1       1.886   3.761   1.424  0.00  0.00    +0.231 C 
ATOM     23  O   UNL     1       1.655   3.006   2.344  0.00  0.00    -0.274 OA
ATOM     24  H   UNL     1       2.476   5.626   0.936  0.00  0.00    +0.149 HD
BRANCH  21  26
ATOM     25  C   UNL     1       3.842   5.090   3.562  0.00  0.00    +0.033 C 
ATOM     26  C   UNL     1       2.453   5.481   3.054  0.00  0.00    +0.100 C 
BRANCH  26  27
ATOM     27  C   UNL     1       2.301   6.979   3.107  0.00  0.00    -0.027 A 
ATOM     28  C   UNL     1       2.854   7.765   2.112  0.00  0.00    +0.006 A 
ATOM     29  C   UNL     1       2.712   9.139   2.158  0.00  0.00    +0.015 A 
ATOM     30  C   UNL     1       2.025   9.729   3.204  0.00  0.00    +0.018 A 
ATOM     31  C   UNL     1       1.477   8.943   4.201  0.00  0.00    +0.015 A 
ATOM     32  C   UNL     1       1.615   7.568   4.152  0.00  0.00    +0.006 A 
ATOM     33 BR   UNL     1       1.835  11.609   3.270  0.00  0.00    -0.050 Br
ENDBRANCH  26  27
ENDBRANCH  21  26
ENDBRANCH  20  22
ENDBRANCH   1  20
TORSDOF 6
