REMARK  Name = ZINC61558614
REMARK  3 active torsions:
REMARK  status: ('A' for Active; 'I' for Inactive)
REMARK    1  A    between atoms: C_1  and  C_2
REMARK    2  A    between atoms: C_5  and  S_7
REMARK    3  A    between atoms: S_7  and  C_8
REMARK                            x       y       z     vdW  Elec       q    Type
REMARK                         _______ _______ _______ _____ _____    ______ ____
ROOT
ATOM      1  C   UNL     1       0.072  -4.837   0.397  0.00  0.00    +0.203 A 
ATOM      2  N   UNL     1       0.086  -6.105   0.794  0.00  0.00    -0.188 NA
ATOM      3  C   UNL     1       0.095  -7.080  -0.108  0.00  0.00    +0.223 A 
ATOM      4  N   UNL     1       0.091  -6.785  -1.406  0.00  0.00    -0.184 NA
ATOM      5  C   UNL     1       0.077  -5.521  -1.798  0.00  0.00    +0.228 A 
ATOM      6  N   UNL     1       0.062  -4.548  -0.902  0.00  0.00    -0.191 NA
ATOM      7 CL   UNL     1       0.072  -5.139  -3.491  0.00  0.00    -0.041 Cl
ATOM      8  N   UNL     1       0.110  -8.399   0.300  0.00  0.00    -0.300 N 
ATOM      9  C   UNL     1       0.109  -8.740   1.729  0.00  0.00    +0.108 C 
ATOM     10  C   UNL     1      -1.047  -9.706   2.004  0.00  0.00    +0.019 C 
ATOM     11  C   UNL     1      -0.932 -10.912   1.070  0.00  0.00    +0.003 C 
ATOM     12  C   UNL     1      -1.030 -10.445  -0.384  0.00  0.00    +0.019 C 
ATOM     13  C   UNL     1       0.121  -9.487  -0.687  0.00  0.00    +0.108 C 
ENDROOT
BRANCH   1  14
ATOM     14  S   UNL     1       0.058  -3.539   1.589  0.00  0.00    +0.010 S 
BRANCH  14  19
ATOM     15  C   UNL     1      -0.018   1.503   0.010  0.00  0.00    +0.111 C 
ATOM     16  C   UNL     1       0.002  -0.004   0.002  0.00  0.00    +0.215 A 
ATOM     17  N   UNL     1       0.008  -0.767  -1.052  0.00  0.00    -0.112 NA
ATOM     18  N   UNL     1       0.027  -2.001  -0.690  0.00  0.00    -0.101 NA
ATOM     19  C   UNL     1       0.033  -2.069   0.619  0.00  0.00    +0.285 A 
ATOM     20  O   UNL     1       0.023  -0.806   1.084  0.00  0.00    -0.416 OA
ENDBRANCH  14  19
ENDBRANCH   1  14
TORSDOF 2
