REMARK  Name = ZINC32985951
REMARK  7 active torsions:
REMARK  status: ('A' for Active; 'I' for Inactive)
REMARK    1  A    between atoms: C_1  and  C_2
REMARK    2  A    between atoms: C_2  and  C_4
REMARK    3  A    between atoms: C_2  and  N_20
REMARK    4  A    between atoms: N_6  and  N_7
REMARK    5  A    between atoms: C_8  and  C_10
REMARK    6  A    between atoms: N_20  and  S_21
REMARK    7  A    between atoms: S_21  and  C_24
REMARK                            x       y       z     vdW  Elec       q    Type
REMARK                         _______ _______ _______ _____ _____    ______ ____
ROOT
ATOM      1  C   UNL     1      -1.658   5.108   2.846  0.00  0.00    +0.247 C 
ATOM      2  O   UNL     1      -1.215   5.906   2.048  0.00  0.00    -0.273 OA
ATOM      3  N   UNL     1      -1.519   3.786   2.625  0.00  0.00    -0.233 N 
ATOM      4  H   UNL     1      -1.920   3.061   3.349  0.00  0.00    +0.173 HD
ENDROOT
BRANCH   3   5
ATOM      5  N   UNL     1      -0.863   3.334   1.472  0.00  0.00    -0.234 N 
ATOM      6  C   UNL     1      -0.724   2.012   1.250  0.00  0.00    +0.235 C 
ATOM      7  O   UNL     1      -1.167   1.213   2.049  0.00  0.00    -0.274 OA
ATOM      8  H   UNL     1      -0.462   4.058   0.748  0.00  0.00    +0.173 HD
BRANCH   6   9
ATOM      9  C   UNL     1      -0.019   1.526   0.010  0.00  0.00    +0.049 C 
ATOM     10  C   UNL     1       1.417   2.055  -0.000  0.00  0.00    +0.019 C 
ATOM     11  C   UNL     1       2.133   1.562  -1.259  0.00  0.00    -0.009 C 
ATOM     12  C   UNL     1       2.154   0.032  -1.268  0.00  0.00    +0.007 C 
ATOM     13  C   UNL     1       0.718  -0.497  -1.257  0.00  0.00    -0.009 C 
ATOM     14  C   UNL     1       0.002  -0.004   0.002  0.00  0.00    +0.019 C 
ATOM     15  C   UNL     1      -0.022   0.009  -2.496  0.00  0.00    +0.007 C 
ATOM     16  C   UNL     1      -0.043   1.539  -2.488  0.00  0.00    -0.009 C 
ATOM     17  C   UNL     1       1.393   2.069  -2.499  0.00  0.00    +0.007 C 
ATOM     18  C   UNL     1      -0.759   2.033  -1.229  0.00  0.00    +0.019 C 
ENDBRANCH   6   9
ENDBRANCH   3   5
BRANCH   1  20
ATOM     19  C   UNL     1      -1.623   5.087   5.326  0.00  0.00    +0.035 C 
ATOM     20  C   UNL     1      -2.363   5.594   4.086  0.00  0.00    +0.160 C 
BRANCH  20  21
ATOM     21  N   UNL     1      -2.383   7.059   4.094  0.00  0.00    -0.178 NA
ATOM     22  H   UNL     1      -1.473   7.622   3.842  0.00  0.00    +0.149 HD
BRANCH  21  23
ATOM     23  S   UNL     1      -3.688   7.866   4.717  0.00  0.00    +0.062 S 
ATOM     24  O   UNL     1      -3.398   9.252   4.607  0.00  0.00    -0.153 OA
ATOM     25  O   UNL     1      -4.844   7.280   4.134  0.00  0.00    -0.153 OA
BRANCH  23  26
ATOM     26  C   UNL     1      -3.753   7.500   6.440  0.00  0.00    +0.142 A 
ATOM     27  C   UNL     1      -4.479   6.411   6.889  0.00  0.00    +0.069 A 
ATOM     28  C   UNL     1      -4.526   6.121   8.241  0.00  0.00    +0.022 A 
ATOM     29  C   UNL     1      -3.857   6.926   9.144  0.00  0.00    +0.003 A 
ATOM     30  C   UNL     1      -3.136   8.017   8.696  0.00  0.00    +0.022 A 
ATOM     31  C   UNL     1      -3.084   8.304   7.344  0.00  0.00    +0.069 A 
ATOM     32 CL   UNL     1      -2.179   9.675   6.782  0.00  0.00    -0.081 Cl
ATOM     33 CL   UNL     1      -5.325   5.405   5.755  0.00  0.00    -0.081 Cl
ENDBRANCH  23  26
ENDBRANCH  21  23
ENDBRANCH  20  21
ENDBRANCH   1  20
TORSDOF 6
