REMARK  Name = ZINC09245822
REMARK  8 active torsions:
REMARK  status: ('A' for Active; 'I' for Inactive)
REMARK    1  A    between atoms: C_4  and  C_7
REMARK    2  A    between atoms: C_7  and  N_8
REMARK    3  A    between atoms: C_9  and  C_30
REMARK    4  A    between atoms: C_12  and  S_13
REMARK    5  A    between atoms: S_13  and  C_14
REMARK    6  A    between atoms: C_14  and  C_15
REMARK    7  A    between atoms: N_17  and  N_18
REMARK    8  A    between atoms: C_30  and  N_66
REMARK                            x       y       z     vdW  Elec       q    Type
REMARK                         _______ _______ _______ _____ _____    ______ ____
ROOT
ATOM      1  N   UNL     1       2.077   0.679  -0.037  0.00  0.00    -0.303 N 
ATOM      2  C   UNL     1       1.206   1.733   0.013  0.00  0.00    +0.118 A 
ATOM      3  N   UNL     1       0.002   1.239   0.076  0.00  0.00    -0.135 NA
ATOM      4  N   UNL     1       0.052  -0.045   0.071  0.00  0.00    -0.123 NA
ATOM      5  C   UNL     1       1.301  -0.444   0.002  0.00  0.00    +0.192 A 
ENDROOT
BRANCH   1   6
ATOM      6  C   UNL     1       3.538   0.742  -0.117  0.00  0.00    +0.160 C 
BRANCH   6  10
ATOM      7  C   UNL     1       4.755   0.476  -4.202  0.00  0.00    +0.000 A 
ATOM      8  C   UNL     1       4.502   1.711  -3.636  0.00  0.00    +0.000 A 
ATOM      9  C   UNL     1       4.108   1.797  -2.314  0.00  0.00    +0.005 A 
ATOM     10  C   UNL     1       3.967   0.648  -1.558  0.00  0.00    -0.028 A 
ATOM     11  C   UNL     1       4.226  -0.587  -2.123  0.00  0.00    +0.005 A 
ATOM     12  C   UNL     1       4.615  -0.673  -3.447  0.00  0.00    +0.000 A 
ENDBRANCH   6  10
ENDBRANCH   1   6
BRANCH   5  13
ATOM     13  S   UNL     1       1.869  -2.111  -0.033  0.00  0.00    -0.077 S 
BRANCH  13  14
ATOM     14  C   UNL     1       0.285  -2.984   0.051  0.00  0.00    +0.174 C 
BRANCH  14  15
ATOM     15  C   UNL     1       0.530  -4.471   0.034  0.00  0.00    +0.240 C 
ATOM     16  O   UNL     1       1.663  -4.899  -0.028  0.00  0.00    -0.273 OA
ATOM     17  N   UNL     1      -0.511  -5.326   0.089  0.00  0.00    -0.223 N 
ATOM     18  H   UNL     1      -1.417  -4.984   0.139  0.00  0.00    +0.174 HD
BRANCH  17  19
ATOM     19  N   UNL     1      -0.283  -6.708   0.073  0.00  0.00    -0.137 N 
ATOM     20  C   UNL     1      -0.386  -7.506   1.156  0.00  0.00    +0.263 C 
ATOM     21  O   UNL     1      -0.682  -7.177   2.285  0.00  0.00    -0.271 OA
ATOM     22  C   UNL     1      -0.056  -8.897   0.666  0.00  0.00    +0.114 C 
ATOM     23  C   UNL     1      -1.247  -9.828   0.865  0.00  0.00    +0.035 C 
ATOM     24  C   UNL     1      -0.902 -11.223   0.337  0.00  0.00    +0.003 C 
ATOM     25  C   UNL     1       0.319 -11.762   1.085  0.00  0.00    +0.000 C 
ATOM     26  C   UNL     1       1.511 -10.832   0.855  0.00  0.00    +0.003 C 
ATOM     27  C   UNL     1       1.177  -9.435   1.385  0.00  0.00    +0.035 C 
ATOM     28  N   UNL     1       0.222  -8.714  -0.765  0.00  0.00    -0.284 N 
ATOM     29  C   UNL     1       0.058  -7.402  -1.020  0.00  0.00    +0.326 C 
ATOM     30  O   UNL     1       0.206  -6.904  -2.118  0.00  0.00    -0.251 OA
ATOM     31  H   UNL     1       0.470  -9.403  -1.401  0.00  0.00    +0.151 HD
ENDBRANCH  17  19
ENDBRANCH  14  15
ENDBRANCH  13  14
ENDBRANCH   5  13
BRANCH   2  32
ATOM     32  C   UNL     1       1.572   3.195  -0.004  0.00  0.00    -0.001 C 
BRANCH  32  37
ATOM     33  C   UNL     1       0.143   3.510  -1.950  0.00  0.00    -0.078 C 
ATOM     34  C   UNL     1       0.101   4.527  -3.119  0.00  0.00    -0.020 C 
ATOM     35  C   UNL     1       0.882   5.736  -2.553  0.00  0.00    -0.020 C 
ATOM     36  C   UNL     1       1.756   5.158  -1.424  0.00  0.00    -0.078 C 
ATOM     37  N   UNL     1       1.492   3.718  -1.401  0.00  0.00    +0.384 N 
ATOM     38  H   UNL     1       2.183   3.230  -1.984  0.00  0.00    -0.081 HD
ENDBRANCH  32  37
ENDBRANCH   2  32
TORSDOF 8
