REMARK  Name = ZINC36681357
REMARK  4 active torsions:
REMARK  status: ('A' for Active; 'I' for Inactive)
REMARK    1  A    between atoms: C_3  and  C_8
REMARK    2  A    between atoms: C_14  and  C_16
REMARK    3  A    between atoms: N_21  and  S_22
REMARK    4  A    between atoms: S_22  and  C_25
REMARK                            x       y       z     vdW  Elec       q    Type
REMARK                         _______ _______ _______ _____ _____    ______ ____
ROOT
ATOM      1  C   UNL     1       3.286   3.279   0.097  0.00  0.00    +0.250 A 
ATOM      2  N   UNL     1       3.656   4.454   0.546  0.00  0.00    -0.106 NA
ATOM      3  N   UNL     1       4.940   4.536   0.520  0.00  0.00    -0.092 NA
ATOM      4  C   UNL     1       5.439   3.418   0.053  0.00  0.00    +0.314 A 
ATOM      5  O   UNL     1       4.408   2.597  -0.220  0.00  0.00    -0.405 OA
ATOM      6  N   UNL     1       6.784   3.131  -0.123  0.00  0.00    -0.237 N 
ATOM      7  C   UNL     1       7.716   4.049   0.199  0.00  0.00    +0.239 C 
ATOM      8  O   UNL     1       7.379   5.126   0.643  0.00  0.00    -0.274 OA
ATOM      9  H   UNL     1       7.053   2.269  -0.478  0.00  0.00    +0.159 HD
ENDROOT
BRANCH   1  12
ATOM     10  C   UNL     1      -0.465   3.146   0.208  0.00  0.00    +0.002 A 
ATOM     11  C   UNL     1       0.829   3.608   0.333  0.00  0.00    +0.013 A 
ATOM     12  C   UNL     1       1.898   2.790  -0.034  0.00  0.00    +0.040 A 
ATOM     13  C   UNL     1       1.650   1.507  -0.526  0.00  0.00    +0.028 A 
ATOM     14  C   UNL     1       0.351   1.056  -0.646  0.00  0.00    +0.019 A 
ATOM     15  C   UNL     1      -0.705   1.874  -0.280  0.00  0.00    +0.015 A 
ATOM     16 BR   UNL     1       0.013  -0.681  -1.312  0.00  0.00    -0.050 Br
ENDBRANCH   1  12
BRANCH   7  17
ATOM     17  C   UNL     1       9.178   3.737   0.008  0.00  0.00    +0.166 C 
ATOM     18  C   UNL     1       9.741   3.060   1.275  0.00  0.00    +0.031 C 
ATOM     19  C   UNL     1      11.159   3.676   1.398  0.00  0.00    +0.019 C 
ATOM     20  C   UNL     1      10.915   5.122   0.898  0.00  0.00    +0.110 C 
ATOM     21  N   UNL     1       9.933   4.982  -0.197  0.00  0.00    -0.165 NA
BRANCH  21  22
ATOM     22  S   UNL     1       9.716   6.048  -1.446  0.00  0.00    +0.062 S 
ATOM     23  O   UNL     1       8.439   5.767  -2.002  0.00  0.00    -0.153 OA
ATOM     24  O   UNL     1      10.065   7.332  -0.949  0.00  0.00    -0.153 OA
BRANCH  22  25
ATOM     25  C   UNL     1      10.904   5.647  -2.684  0.00  0.00    +0.106 A 
ATOM     26  C   UNL     1      12.181   6.173  -2.612  0.00  0.00    +0.030 A 
ATOM     27  C   UNL     1      13.113   5.859  -3.583  0.00  0.00    +0.022 A 
ATOM     28  C   UNL     1      12.768   5.019  -4.627  0.00  0.00    +0.041 A 
ATOM     29  C   UNL     1      11.490   4.493  -4.699  0.00  0.00    +0.022 A 
ATOM     30  C   UNL     1      10.560   4.803  -3.724  0.00  0.00    +0.030 A 
ATOM     31 CL   UNL     1      13.938   4.625  -5.848  0.00  0.00    -0.084 Cl
ENDBRANCH  22  25
ENDBRANCH  21  22
ENDBRANCH   7  17
TORSDOF 4
