REMARK  Name = ZINC04288042
REMARK  9 active torsions:
REMARK  status: ('A' for Active; 'I' for Inactive)
REMARK    1  A    between atoms: C_1  and  C_2
REMARK    2  A    between atoms: C_2  and  O_4
REMARK    3  A    between atoms: O_4  and  C_5
REMARK    4  A    between atoms: C_9  and  C_40
REMARK    5  A    between atoms: C_14  and  C_39
REMARK    6  A    between atoms: C_22  and  O_24
REMARK    7  A    between atoms: C_28  and  O_30
REMARK    8  A    between atoms: O_30  and  C_31
REMARK    9  A    between atoms: C_31  and  C_33
REMARK                            x       y       z     vdW  Elec       q    Type
REMARK                         _______ _______ _______ _____ _____    ______ ____
ROOT
ATOM      1  C   UNL     1      -0.198   1.249  -0.388  0.00  0.00    +0.179 C 
ATOM      2  C   UNL     1       0.433   1.421  -1.765  0.00  0.00    +0.045 C 
ATOM      3  C   UNL     1      -0.116   2.658  -2.465  0.00  0.00    +0.013 C 
ATOM      4  C   UNL     1       0.131   3.918  -1.624  0.00  0.00    +0.001 C 
ATOM      5  C   UNL     1      -0.397   5.120  -2.399  0.00  0.00    +0.001 C 
ATOM      6  C   UNL     1       0.091   6.458  -1.873  0.00  0.00    +0.005 C 
ATOM      7  C   UNL     1      -0.376   7.605  -2.792  0.00  0.00    +0.011 C 
ATOM      8  C   UNL     1      -1.884   7.606  -2.842  0.00  0.00    +0.008 C 
ATOM      9  C   UNL     1      -2.394   6.235  -3.324  0.00  0.00    +0.002 C 
ATOM     10  C   UNL     1      -1.930   5.081  -2.492  0.00  0.00    -0.002 C 
ATOM     11  C   UNL     1      -2.542   5.001  -1.102  0.00  0.00    +0.021 C 
ATOM     12  C   UNL     1      -2.072   3.692  -0.446  0.00  0.00    +0.089 C 
ATOM     13  C   UNL     1      -0.553   3.759  -0.271  0.00  0.00    +0.087 C 
ATOM     14  C   UNL     1      -0.060   2.509   0.453  0.00  0.00    +0.081 C 
ATOM     15 BR   UNL     1      -2.934   3.504   1.309  0.00  0.00    -0.085 Br
ATOM     16  C   UNL     1      -3.899   6.494  -3.460  0.00  0.00    +0.008 C 
ATOM     17  C   UNL     1      -3.935   7.908  -4.110  0.00  0.00    +0.045 C 
ATOM     18  C   UNL     1      -2.525   8.523  -3.904  0.00  0.00    +0.183 C 
ATOM     19  C   UNL     1      -2.463   8.031  -1.494  0.00  0.00    +0.015 C 
ATOM     20  C   UNL     1       1.643   4.072  -1.417  0.00  0.00    +0.014 C 
ENDROOT
BRANCH  13  21
ATOM     21  O   UNL     1      -0.238   4.894   0.551  0.00  0.00    -0.387 OA
ATOM     22  H   UNL     1      -0.648   4.872   1.426  0.00  0.00    +0.210 HD
ENDBRANCH  13  21
BRANCH   1  23
ATOM     23  O   UNL     1      -1.591   0.866  -0.519  0.00  0.00    -0.461 OA
BRANCH  23  25
ATOM     24  C   UNL     1      -3.277  -0.915  -0.799  0.00  0.00    +0.136 C 
ATOM     25  C   UNL     1      -1.853  -0.443  -0.657  0.00  0.00    +0.304 C 
ATOM     26  O   UNL     1      -0.947  -1.242  -0.668  0.00  0.00    -0.251 OA
ENDBRANCH  23  25
ENDBRANCH   1  23
BRANCH  18  27
ATOM     27  O   UNL     1      -1.761   8.474  -5.132  0.00  0.00    -0.457 OA
BRANCH  27  28
ATOM     28  C   UNL     1      -1.763   9.582  -5.898  0.00  0.00    +0.339 C 
ATOM     29  O   UNL     1      -2.388  10.563  -5.545  0.00  0.00    -0.245 OA
BRANCH  28  30
ATOM     30  C   UNL     1      -1.006   9.605  -7.166  0.00  0.00    +0.059 A 
ATOM     31  C   UNL     1      -0.282   8.482  -7.571  0.00  0.00    +0.015 A 
ATOM     32  C   UNL     1       0.418   8.508  -8.759  0.00  0.00    +0.001 A 
ATOM     33  C   UNL     1       0.414   9.648  -9.543  0.00  0.00    +0.000 A 
ATOM     34  C   UNL     1      -0.296  10.767  -9.145  0.00  0.00    +0.001 A 
ATOM     35  C   UNL     1      -1.006  10.752  -7.962  0.00  0.00    +0.015 A 
ENDBRANCH  28  30
ENDBRANCH  27  28
ENDBRANCH  18  27
TORSDOF 6
