REMARK  Name = ZINC09148682
REMARK  4 active torsions:
REMARK  status: ('A' for Active; 'I' for Inactive)
REMARK    1  A    between atoms: N_11  and  N_20
REMARK    2  A    between atoms: C_12  and  C_14
REMARK    3  A    between atoms: C_21  and  C_22
REMARK    4  A    between atoms: C_25  and  N_27
REMARK                            x       y       z     vdW  Elec       q    Type
REMARK                         _______ _______ _______ _____ _____    ______ ____
ROOT
ATOM      1  C   UNL     1       1.896   3.641   3.619  0.00  0.00    +0.017 A 
ATOM      2  C   UNL     1       2.617   2.859   2.776  0.00  0.00    +0.030 A 
ATOM      3  C   UNL     1       2.167   1.557   2.429  0.00  0.00    +0.080 A 
ATOM      4  C   UNL     1       0.938   1.144   3.013  0.00  0.00    +0.042 A 
ATOM      5  C   UNL     1       0.222   1.943   3.867  0.00  0.00    +0.032 A 
ATOM      6  C   UNL     1       0.696   3.207   4.175  0.00  0.00    +0.019 A 
ATOM      7 BR   UNL     1      -0.275   4.331   5.345  0.00  0.00    -0.050 Br
ATOM      8  S   UNL     1       0.736  -0.490   2.346  0.00  0.00    -0.050 S 
ATOM      9  C   UNL     1       2.236  -0.518   1.374  0.00  0.00    +0.189 A 
ATOM     10  N   UNL     1       2.753   0.669   1.622  0.00  0.00    -0.223 NA
ATOM     11  N   UNL     1       2.726  -1.521   0.573  0.00  0.00    -0.129 N 
ATOM     12  C   UNL     1       3.645  -1.240  -0.372  0.00  0.00    +0.310 C 
ATOM     13  O   UNL     1       3.991  -2.101  -1.160  0.00  0.00    -0.264 OA
ENDROOT
BRANCH  12  14
ATOM     14  C   UNL     1       4.209   0.056  -0.449  0.00  0.00    +0.219 C 
ATOM     15  C   UNL     1       3.403   1.131  -0.326  0.00  0.00    +0.238 C 
ATOM     16  O   UNL     1       3.884   2.387  -0.403  0.00  0.00    -0.492 OA
ATOM     17  C   UNL     1       5.323   2.544  -0.245  0.00  0.00    +0.269 C 
ATOM     18  C   UNL     1       6.014   1.465  -1.090  0.00  0.00    +0.270 C 
ATOM     19  O   UNL     1       5.549   0.186  -0.639  0.00  0.00    -0.481 OA
ENDBRANCH  12  14
BRANCH  11  20
ATOM     20  N   UNL     1       2.307  -2.731   0.725  0.00  0.00    -0.177 NA
ATOM     21  C   UNL     1       2.909  -3.732   0.081  0.00  0.00    +0.146 C 
BRANCH  21  22
ATOM     22  C   UNL     1       2.331  -4.992   0.062  0.00  0.00    +0.034 A 
ATOM     23  C   UNL     1       2.860  -6.250  -0.492  0.00  0.00    +0.019 A 
ATOM     24  C   UNL     1       2.068  -7.321  -0.362  0.00  0.00    +0.041 A 
ATOM     25  C   UNL     1       0.830  -7.192   0.269  0.00  0.00    +0.164 A 
ATOM     26  S   UNL     1       0.754  -5.518   0.711  0.00  0.00    -0.064 S 
BRANCH  25  27
ATOM     27  N   UNL     1      -0.183  -8.245   0.511  0.00  0.00    +0.063 N 
ATOM     28  O   UNL     1       0.041  -9.479   0.111  0.00  0.00    -0.126 OA
ATOM     29  O   UNL     1      -1.308  -7.946   1.127  0.00  0.00    -0.126 OA
ENDBRANCH  25  27
ENDBRANCH  21  22
ENDBRANCH  11  20
TORSDOF 4
