REMARK  Name = ZINC27975393
REMARK  8 active torsions:
REMARK  status: ('A' for Active; 'I' for Inactive)
REMARK    1  A    between atoms: C_1  and  C_2
REMARK    2  A    between atoms: C_2  and  N_3
REMARK    3  A    between atoms: N_3  and  C_4
REMARK    4  A    between atoms: N_3  and  S_16
REMARK    5  A    between atoms: C_4  and  C_5
REMARK    6  A    between atoms: S_16  and  C_19
REMARK    7  A    between atoms: C_23  and  N_26
REMARK    8  A    between atoms: C_24  and  C_25
REMARK                            x       y       z     vdW  Elec       q    Type
REMARK                         _______ _______ _______ _____ _____    ______ ____
ROOT
ATOM      1  N   UNL     1      -1.056  -0.439   0.177  0.00  0.00    -0.173 NA
ENDROOT
BRANCH   1   2
ATOM      2  S   UNL     1      -1.884  -0.761   1.575  0.00  0.00    +0.061 S 
ATOM      3  O   UNL     1      -3.190  -1.167   1.190  0.00  0.00    -0.153 OA
ATOM      4  O   UNL     1      -1.035  -1.578   2.370  0.00  0.00    -0.153 OA
BRANCH   2   5
ATOM      5  C   UNL     1      -2.065   0.765   2.436  0.00  0.00    +0.111 A 
ATOM      6  C   UNL     1      -1.407   0.964   3.636  0.00  0.00    +0.029 A 
ATOM      7  C   UNL     1      -1.549   2.162   4.312  0.00  0.00    +0.004 A 
ATOM      8  C   UNL     1      -2.348   3.160   3.788  0.00  0.00    +0.033 A 
ATOM      9  C   UNL     1      -3.005   2.962   2.588  0.00  0.00    +0.131 A 
ATOM     10  C   UNL     1      -2.860   1.766   1.910  0.00  0.00    +0.006 A 
ATOM     11  C   UNL     1      -3.571   1.552   0.599  0.00  0.00    +0.048 C 
BRANCH   9  12
ATOM     12  N   UNL     1      -3.861   4.031   2.027  0.00  0.00    +0.057 N 
ATOM     13  O   UNL     1      -3.896   5.118   2.556  0.00  0.00    -0.126 OA
ATOM     14  O   UNL     1      -4.526   3.818   1.040  0.00  0.00    -0.126 OA
ENDBRANCH   9  12
ENDBRANCH   2   5
ENDBRANCH   1   2
BRANCH   1  16
ATOM     15  C   UNL     1       0.453   1.486   0.183  0.00  0.00    +0.022 C 
ATOM     16  C   UNL     1       0.352  -0.040   0.234  0.00  0.00    +0.106 C 
ENDBRANCH   1  16
BRANCH   1  17
ATOM     17  C   UNL     1      -1.733  -0.553  -1.117  0.00  0.00    +0.157 C 
BRANCH  17  18
ATOM     18  C   UNL     1      -1.469  -1.938  -1.711  0.00  0.00    +0.226 C 
ATOM     19  C   UNL     1      -2.083  -2.025  -3.115  0.00  0.00    +0.275 C 
ATOM     20  O   UNL     1      -1.830  -3.335  -3.634  0.00  0.00    -0.485 OA
ATOM     21  C   UNL     1      -2.074  -4.381  -2.799  0.00  0.00    +0.162 A 
ATOM     22  C   UNL     1      -2.204  -5.657  -3.327  0.00  0.00    +0.049 A 
ATOM     23  C   UNL     1      -2.449  -6.731  -2.491  0.00  0.00    +0.004 A 
ATOM     24  C   UNL     1      -2.565  -6.535  -1.128  0.00  0.00    +0.004 A 
ATOM     25  C   UNL     1      -2.439  -5.266  -0.596  0.00  0.00    +0.049 A 
ATOM     26  C   UNL     1      -2.195  -4.184  -1.429  0.00  0.00    +0.163 A 
ATOM     27  O   UNL     1      -2.080  -2.939  -0.891  0.00  0.00    -0.480 OA
ENDBRANCH  17  18
ENDBRANCH   1  17
TORSDOF 6
