REMARK  Name = ZINC00685664
REMARK  5 active torsions:
REMARK  status: ('A' for Active; 'I' for Inactive)
REMARK    1  A    between atoms: C_1  and  O_2
REMARK    2  A    between atoms: O_2  and  C_3
REMARK    3  A    between atoms: C_6  and  C_9
REMARK    4  A    between atoms: C_14  and  C_24
REMARK    5  A    between atoms: C_28  and  N_30
REMARK                            x       y       z     vdW  Elec       q    Type
REMARK                         _______ _______ _______ _____ _____    ______ ____
ROOT
ATOM      1  C   UNL     1      -2.970   0.601  -4.237  0.00  0.00    +0.032 C 
ATOM      2  C   UNL     1      -3.310  -0.667  -3.454  0.00  0.00    +0.059 C 
ATOM      3  C   UNL     1      -2.880  -0.514  -2.006  0.00  0.00    +0.017 C 
ATOM      4  C   UNL     1      -2.898   0.687  -1.411  0.00  0.00    +0.036 C 
ATOM      5  C   UNL     1      -2.514   0.979   0.019  0.00  0.00    +0.136 C 
ATOM      6  N   UNL     1      -2.345  -0.197   0.847  0.00  0.00    -0.331 N 
ATOM      7  C   UNL     1      -1.333  -1.118   0.586  0.00  0.00    +0.049 A 
ATOM      8  C   UNL     1      -0.296  -1.328   1.480  0.00  0.00    +0.025 A 
ATOM      9  C   UNL     1       0.713  -2.219   1.155  0.00  0.00    +0.002 A 
ATOM     10  C   UNL     1       0.690  -2.892  -0.053  0.00  0.00    +0.002 A 
ATOM     11  C   UNL     1      -0.355  -2.698  -0.941  0.00  0.00    +0.025 A 
ATOM     12  C   UNL     1      -1.375  -1.824  -0.607  0.00  0.00    +0.052 A 
ATOM     13  N   UNL     1      -2.508  -1.669  -1.397  0.00  0.00    -0.316 N 
ATOM     14  C   UNL     1      -3.309   1.836  -2.135  0.00  0.00    +0.163 C 
ATOM     15  O   UNL     1      -3.336   2.910  -1.567  0.00  0.00    -0.292 OA
ATOM     16  C   UNL     1      -3.711   1.770  -3.577  0.00  0.00    +0.088 C 
ATOM     17  H   UNL     1      -2.946  -0.345   1.593  0.00  0.00    +0.147 HD
ATOM     18  H   UNL     1      -3.076  -2.445  -1.523  0.00  0.00    +0.152 HD
ENDROOT
BRANCH   5  19
ATOM     19  C   UNL     1      -1.219   1.751   0.017  0.00  0.00    -0.021 A 
ATOM     20  C   UNL     1      -0.060   1.155  -0.446  0.00  0.00    +0.007 A 
ATOM     21  C   UNL     1       1.126   1.864  -0.453  0.00  0.00    +0.022 A 
ATOM     22  C   UNL     1       1.155   3.168   0.008  0.00  0.00    +0.071 A 
ATOM     23  C   UNL     1      -0.004   3.762   0.476  0.00  0.00    +0.145 A 
ATOM     24  C   UNL     1      -1.190   3.052   0.483  0.00  0.00    +0.040 A 
ATOM     25 CL   UNL     1       2.644   4.060  -0.001  0.00  0.00    -0.081 Cl
BRANCH  23  26
ATOM     26  N   UNL     1       0.026   5.157   0.969  0.00  0.00    +0.058 N 
ATOM     27  O   UNL     1      -0.994   5.679   1.381  0.00  0.00    -0.126 OA
ATOM     28  O   UNL     1       1.071   5.782   0.964  0.00  0.00    -0.126 OA
ENDBRANCH  23  26
ENDBRANCH   5  19
BRANCH   1  32
ATOM     29  C   UNL     1      -4.242   0.183  -8.295  0.00  0.00    +0.120 A 
ATOM     30  C   UNL     1      -2.902   0.399  -8.005  0.00  0.00    +0.046 A 
ATOM     31  C   UNL     1      -2.494   0.533  -6.693  0.00  0.00    +0.007 A 
ATOM     32  C   UNL     1      -3.418   0.453  -5.668  0.00  0.00    -0.043 A 
ATOM     33  C   UNL     1      -4.753   0.233  -5.954  0.00  0.00    +0.007 A 
ATOM     34  C   UNL     1      -5.168   0.103  -7.265  0.00  0.00    +0.046 A 
BRANCH  29  36
ATOM     35  C   UNL     1      -6.041  -0.170  -9.809  0.00  0.00    +0.277 C 
ATOM     36  O   UNL     1      -4.647   0.051  -9.586  0.00  0.00    -0.495 OA
ENDBRANCH  29  36
ENDBRANCH   1  32
TORSDOF 4
