REMARK  Name = ZINC09260591
REMARK  7 active torsions:
REMARK  status: ('A' for Active; 'I' for Inactive)
REMARK    1  A    between atoms: C_1  and  C_2
REMARK    2  A    between atoms: C_2  and  O_3
REMARK    3  A    between atoms: O_3  and  C_4
REMARK    4  A    between atoms: C_6  and  C_21
REMARK    5  A    between atoms: C_9  and  O_10
REMARK    6  A    between atoms: O_10  and  C_11
REMARK    7  A    between atoms: C_11  and  C_12
REMARK                            x       y       z     vdW  Elec       q    Type
REMARK                         _______ _______ _______ _____ _____    ______ ____
ROOT
ATOM      1  C   UNL     1       3.542   2.249  -0.232  0.00  0.00    +0.164 A 
ATOM      2  C   UNL     1       2.448   1.426  -0.050  0.00  0.00    +0.057 A 
ATOM      3  C   UNL     1       1.155   1.946  -0.184  0.00  0.00    -0.018 A 
ATOM      4  C   UNL     1       0.978   3.297  -0.508  0.00  0.00    +0.027 A 
ATOM      5  C   UNL     1       2.076   4.112  -0.682  0.00  0.00    +0.064 A 
ATOM      6  C   UNL     1       3.358   3.594  -0.549  0.00  0.00    +0.176 A 
ATOM      7 BR   UNL     1       1.835   5.938  -1.111  0.00  0.00    -0.046 Br
ENDROOT
BRANCH   3   8
ATOM      8  C   UNL     1      -0.013   1.076   0.008  0.00  0.00    +0.036 C 
ATOM      9  C   UNL     1      -1.113   1.548   0.646  0.00  0.00    +0.098 C 
ATOM     10  C   UNL     1      -1.255   2.831   1.351  0.00  0.00    +0.266 C 
ATOM     11  O   UNL     1      -0.404   3.692   1.482  0.00  0.00    -0.268 OA
ATOM     12  N   UNL     1      -2.519   2.864   1.820  0.00  0.00    -0.235 N 
ATOM     13  C   UNL     1      -3.159   1.733   1.485  0.00  0.00    +0.311 C 
ATOM     14  O   UNL     1      -4.312   1.482   1.778  0.00  0.00    -0.252 OA
ATOM     15  N   UNL     1      -2.356   0.915   0.781  0.00  0.00    -0.265 N 
ATOM     16  H   UNL     1      -2.906   3.594   2.328  0.00  0.00    +0.159 HD
ATOM     17  H   UNL     1      -2.595   0.043   0.429  0.00  0.00    +0.157 HD
ENDBRANCH   3   8
BRANCH   1  18
ATOM     18  O   UNL     1       4.799   1.747  -0.102  0.00  0.00    -0.489 OA
BRANCH  18  20
ATOM     19  C   UNL     1       6.392  -0.018   0.327  0.00  0.00    +0.048 C 
ATOM     20  C   UNL     1       4.914   0.361   0.224  0.00  0.00    +0.226 C 
ENDBRANCH  18  20
ENDBRANCH   1  18
BRANCH   6  21
ATOM     21  O   UNL     1       4.436   4.402  -0.727  0.00  0.00    -0.483 OA
BRANCH  21  22
ATOM     22  C   UNL     1       4.963   4.497  -2.052  0.00  0.00    +0.266 C 
BRANCH  22  23
ATOM     23  C   UNL     1       6.147   5.429  -2.056  0.00  0.00    +0.008 A 
ATOM     24  C   UNL     1       6.554   6.034  -0.882  0.00  0.00    +0.010 A 
ATOM     25  C   UNL     1       7.639   6.889  -0.885  0.00  0.00    +0.020 A 
ATOM     26  C   UNL     1       8.320   7.141  -2.063  0.00  0.00    +0.042 A 
ATOM     27  C   UNL     1       7.913   6.536  -3.239  0.00  0.00    +0.040 A 
ATOM     28  C   UNL     1       6.829   5.676  -3.234  0.00  0.00    +0.049 A 
ATOM     29 CL   UNL     1       6.322   4.911  -4.708  0.00  0.00    -0.083 Cl
ATOM     30 CL   UNL     1       9.683   8.215  -2.067  0.00  0.00    -0.083 Cl
ENDBRANCH  22  23
ENDBRANCH  21  22
ENDBRANCH   6  21
TORSDOF 6
