REMARK  Name = ZINC51097464
REMARK  8 active torsions:
REMARK  status: ('A' for Active; 'I' for Inactive)
REMARK    1  A    between atoms: C_1  and  C_2
REMARK    2  A    between atoms: C_5  and  C_8
REMARK    3  A    between atoms: C_11  and  C_13
REMARK    4  A    between atoms: C_13  and  C_15
REMARK    5  A    between atoms: C_13  and  N_16
REMARK    6  A    between atoms: C_19  and  N_22
REMARK    7  A    between atoms: C_23  and  C_25
REMARK    8  A    between atoms: C_28  and  C_30
REMARK                            x       y       z     vdW  Elec       q    Type
REMARK                         _______ _______ _______ _____ _____    ______ ____
ROOT
ATOM      1  N   UNL     1       1.097  -8.509   0.877  0.00  0.00    +0.387 N 
ATOM      2  C   UNL     1       2.424  -7.880   0.899  0.00  0.00    -0.076 C 
ATOM      3  C   UNL     1       3.448  -8.818   0.257  0.00  0.00    +0.004 C 
ATOM      4  C   UNL     1       3.491 -10.132   1.042  0.00  0.00    +0.070 C 
ATOM      5  C   UNL     1       2.087 -10.742   1.076  0.00  0.00    +0.004 C 
ATOM      6  C   UNL     1       1.113  -9.732   1.688  0.00  0.00    -0.076 C 
ATOM      7  H   UNL     1       0.853  -8.740  -0.074  0.00  0.00    -0.081 HD
ENDROOT
BRANCH   4   8
ATOM      8  N   UNL     1       4.414 -11.063   0.389  0.00  0.00    -0.306 N 
ATOM      9  C   UNL     1       5.005 -12.040   1.104  0.00  0.00    +0.280 C 
ATOM     10  O   UNL     1       4.772 -12.149   2.294  0.00  0.00    -0.267 OA
ATOM     11  H   UNL     1       4.600 -10.976  -0.560  0.00  0.00    +0.149 HD
BRANCH   9  12
ATOM     12  C   UNL     1       5.929 -12.972   0.450  0.00  0.00    +0.189 A 
ATOM     13  C   UNL     1       6.588 -14.005   1.053  0.00  0.00    +0.055 A 
ATOM     14  C   UNL     1       7.357 -14.628   0.058  0.00  0.00    +0.045 A 
ATOM     15  C   UNL     1       7.138 -13.957  -1.094  0.00  0.00    +0.103 A 
ATOM     16  O   UNL     1       6.272 -12.963  -0.855  0.00  0.00    -0.455 OA
ATOM     17  C   UNL     1       7.760 -14.277  -2.429  0.00  0.00    +0.086 C 
ENDBRANCH   9  12
ENDBRANCH   4   8
BRANCH   1  18
ATOM     18  C   UNL     1       0.105  -7.574   1.424  0.00  0.00    +0.018 C 
ATOM     19  C   UNL     1      -1.280  -8.225   1.393  0.00  0.00    -0.004 C 
BRANCH  18  23
ATOM     20  C   UNL     1       0.059  -4.251  -0.021  0.00  0.00    +0.248 A 
ATOM     21  N   UNL     1       0.070  -5.024  -1.082  0.00  0.00    -0.107 NA
ATOM     22  N   UNL     1       0.087  -6.255  -0.710  0.00  0.00    -0.114 NA
ATOM     23  C   UNL     1       0.087  -6.317   0.592  0.00  0.00    +0.204 A 
ATOM     24  O   UNL     1       0.075  -5.057   1.060  0.00  0.00    -0.422 OA
BRANCH  20  29
ATOM     25  C   UNL     1      -0.018   1.503   0.010  0.00  0.00    +0.044 C 
ATOM     26  C   UNL     1       0.002  -0.004   0.002  0.00  0.00    -0.050 A 
ATOM     27  C   UNL     1       0.006  -0.686  -1.202  0.00  0.00    +0.004 A 
ATOM     28  C   UNL     1       0.024  -2.066  -1.216  0.00  0.00    +0.013 A 
ATOM     29  C   UNL     1       0.040  -2.773  -0.013  0.00  0.00    +0.038 A 
ATOM     30  C   UNL     1       0.036  -2.079   1.198  0.00  0.00    +0.013 A 
ATOM     31  C   UNL     1       0.023  -0.699   1.198  0.00  0.00    +0.004 A 
ENDBRANCH  20  29
ENDBRANCH  18  23
ENDBRANCH   1  18
TORSDOF 5
