REMARK  Name = ZINC13499581
REMARK  12 active torsions:
REMARK  status: ('A' for Active; 'I' for Inactive)
REMARK    1  A    between atoms: C_1  and  C_2
REMARK    2  A    between atoms: C_2  and  C_3
REMARK    3  A    between atoms: C_3  and  C_4
REMARK    4  A    between atoms: C_4  and  C_6
REMARK    5  A    between atoms: C_4  and  N_76
REMARK    6  A    between atoms: N_10  and  C_11
REMARK    7  A    between atoms: C_11  and  C_12
REMARK    8  A    between atoms: C_18  and  C_19
REMARK    9  A    between atoms: C_18  and  N_76
REMARK   10  A    between atoms: C_22  and  C_32
REMARK   11  A    between atoms: C_24  and  C_31
REMARK   12  A    between atoms: C_33  and  N_76
REMARK                            x       y       z     vdW  Elec       q    Type
REMARK                         _______ _______ _______ _____ _____    ______ ____
ROOT
ATOM      1  N   UNL     1      -2.671   1.933   2.269  0.00  0.00    +0.391 N 
ATOM      2  H   UNL     1      -3.640   1.701   2.023  0.00  0.00    -0.080 HD
ENDROOT
BRANCH   1   3
ATOM      3  C   UNL     1      -1.769   1.391   1.230  0.00  0.00    -0.067 C 
ATOM      4  C   UNL     1      -2.045  -0.105   1.068  0.00  0.00    -0.015 C 
ATOM      5  C   UNL     1      -1.134  -0.676  -0.021  0.00  0.00    -0.002 C 
ATOM      6  C   UNL     1       0.329  -0.467   0.376  0.00  0.00    -0.000 C 
ATOM      7  C   UNL     1       0.604   1.029   0.539  0.00  0.00    -0.002 C 
ATOM      8  C   UNL     1      -0.306   1.600   1.627  0.00  0.00    -0.015 C 
ENDBRANCH   1   3
BRANCH   1   9
ATOM      9  C   UNL     1      -2.351   1.329   3.580  0.00  0.00    +0.003 C 
BRANCH   9  10
ATOM     10  C   UNL     1      -1.090   1.931   4.144  0.00  0.00    +0.138 A 
ATOM     11  N   UNL     1      -0.722   3.187   4.072  0.00  0.00    -0.115 NA
ATOM     12  N   UNL     1       0.412   3.304   4.673  0.00  0.00    -0.023 NA
ATOM     13  N   UNL     1       0.777   2.156   5.125  0.00  0.00    -0.044 NA
ATOM     14  N   UNL     1      -0.125   1.284   4.824  0.00  0.00    -0.228 N 
BRANCH  14  15
ATOM     15  C   UNL     1      -0.102  -0.142   5.157  0.00  0.00    +0.178 C 
BRANCH  15  16
ATOM     16  C   UNL     1       0.709  -0.899   4.103  0.00  0.00    +0.140 C 
ATOM     17  C   UNL     1       0.664  -2.414   4.396  0.00  0.00    +0.035 C 
ATOM     18  C   UNL     1       2.115  -2.857   4.061  0.00  0.00    +0.031 C 
ATOM     19  C   UNL     1       2.914  -1.605   4.501  0.00  0.00    +0.160 C 
ATOM     20  O   UNL     1       2.080  -0.487   4.158  0.00  0.00    -0.375 OA
ENDBRANCH  15  16
ENDBRANCH  14  15
ENDBRANCH   9  10
BRANCH   9  21
ATOM     21  C   UNL     1      -3.514   1.592   4.538  0.00  0.00    -0.008 C 
BRANCH  21  23
ATOM     22  C   UNL     1      -5.956   1.229   4.922  0.00  0.00    +0.004 C 
ATOM     23  C   UNL     1      -4.764   0.867   4.034  0.00  0.00    -0.005 C 
ENDBRANCH  21  23
ENDBRANCH   9  21
ENDBRANCH   1   9
BRANCH   1  24
ATOM     24  C   UNL     1      -2.532   3.402   2.342  0.00  0.00    -0.036 C 
BRANCH  24  25
ATOM     25  C   UNL     1      -3.300   4.017   1.200  0.00  0.00    +0.001 A 
ATOM     26  C   UNL     1      -4.584   4.411   1.384  0.00  0.00    +0.017 A 
ATOM     27  C   UNL     1      -5.303   5.004   0.255  0.00  0.00    +0.002 A 
ATOM     28  C   UNL     1      -6.629   5.431   0.385  0.00  0.00    -0.041 A 
ATOM     29  C   UNL     1      -7.271   5.980  -0.689  0.00  0.00    +0.007 A 
ATOM     30  C   UNL     1      -6.620   6.120  -1.907  0.00  0.00    -0.048 A 
ATOM     31  C   UNL     1      -5.314   5.707  -2.057  0.00  0.00    +0.029 A 
ATOM     32  C   UNL     1      -4.639   5.144  -0.978  0.00  0.00    +0.050 A 
ATOM     33  N   UNL     1      -3.332   4.724  -1.100  0.00  0.00    -0.322 N 
ATOM     34  H   UNL     1      -2.876   4.821  -1.951  0.00  0.00    +0.169 HD
ATOM     35  C   UNL     1      -2.678   4.185  -0.056  0.00  0.00    +0.251 A 
ATOM     36  O   UNL     1      -1.522   3.828  -0.199  0.00  0.00    -0.268 OA
ATOM     37  C   UNL     1      -7.349   6.729  -3.076  0.00  0.00    +0.044 C 
ATOM     38  C   UNL     1      -7.346   5.283   1.702  0.00  0.00    +0.044 C 
ENDBRANCH  24  25
ENDBRANCH   1  24
TORSDOF 9
