REMARK  Name = ZINC07214376
REMARK  6 active torsions:
REMARK  status: ('A' for Active; 'I' for Inactive)
REMARK    1  A    between atoms: C_1  and  C_2
REMARK    2  A    between atoms: C_15  and  C_17
REMARK    3  A    between atoms: C_17  and  S_18
REMARK    4  A    between atoms: S_18  and  C_19
REMARK    5  A    between atoms: C_22  and  C_25
REMARK    6  A    between atoms: N_23  and  C_24
REMARK                            x       y       z     vdW  Elec       q    Type
REMARK                         _______ _______ _______ _____ _____    ______ ____
ROOT
ATOM      1  C   UNL     1      -9.773   8.935  -2.734  0.00  0.00    +0.029 C 
ATOM      2  C   UNL     1      -9.833   8.192  -1.398  0.00  0.00    +0.087 C 
ATOM      3  C   UNL     1     -10.530   9.070  -0.353  0.00  0.00    +0.118 C 
ATOM      4  C   UNL     1     -10.251   8.551   1.033  0.00  0.00    +0.219 C 
ATOM      5  O   UNL     1     -11.113   7.946   1.635  0.00  0.00    -0.275 OA
ATOM      6  N   UNL     1      -9.047   8.756   1.611  0.00  0.00    -0.284 N 
ATOM      7  C   UNL     1      -8.011   9.367   0.895  0.00  0.00    +0.055 A 
ATOM      8  C   UNL     1      -7.274  10.398   1.454  0.00  0.00    +0.025 A 
ATOM      9  C   UNL     1      -6.220  10.950   0.750  0.00  0.00    +0.002 A 
ATOM     10  C   UNL     1      -5.899  10.476  -0.509  0.00  0.00    +0.002 A 
ATOM     11  C   UNL     1      -6.636   9.454  -1.078  0.00  0.00    +0.025 A 
ATOM     12  C   UNL     1      -7.700   8.902  -0.383  0.00  0.00    +0.058 A 
ATOM     13  N   UNL     1      -8.473   7.881  -0.953  0.00  0.00    -0.266 N 
ATOM     14  C   UNL     1      -7.973   6.638  -1.092  0.00  0.00    +0.230 C 
ATOM     15  O   UNL     1      -8.652   5.763  -1.587  0.00  0.00    -0.274 OA
ATOM     16  H   UNL     1      -8.900   8.476   2.528  0.00  0.00    +0.155 HD
ENDROOT
BRANCH  14  17
ATOM     17  C   UNL     1      -6.569   6.334  -0.635  0.00  0.00    +0.173 C 
BRANCH  17  18
ATOM     18  S   UNL     1      -6.193   4.593  -0.955  0.00  0.00    -0.077 S 
BRANCH  18  19
ATOM     19  C   UNL     1      -4.543   4.519  -0.341  0.00  0.00    +0.192 A 
ATOM     20  N   UNL     1      -3.862   5.512   0.186  0.00  0.00    -0.122 NA
ATOM     21  N   UNL     1      -2.692   5.109   0.534  0.00  0.00    -0.128 NA
ATOM     22  C   UNL     1      -2.552   3.837   0.242  0.00  0.00    +0.165 A 
ATOM     23  N   UNL     1      -3.735   3.419  -0.325  0.00  0.00    -0.305 N 
ATOM     24  C   UNL     1      -4.059   2.075  -0.809  0.00  0.00    +0.153 C 
BRANCH  22  25
ATOM     25  C   UNL     1      -1.353   3.007   0.481  0.00  0.00    +0.022 A 
ATOM     26  C   UNL     1      -0.108   3.598   0.735  0.00  0.00    +0.031 A 
ATOM     27  C   UNL     1       0.986   2.786   0.948  0.00  0.00    +0.111 A 
ATOM     28  N   UNL     1       0.869   1.471   0.926  0.00  0.00    -0.263 NA
ATOM     29  C   UNL     1      -0.285   0.874   0.696  0.00  0.00    +0.111 A 
ATOM     30  C   UNL     1      -1.429   1.609   0.467  0.00  0.00    +0.031 A 
ENDBRANCH  22  25
ENDBRANCH  18  19
ENDBRANCH  17  18
ENDBRANCH  14  17
TORSDOF 4
