REMARK  Name = ZINC34863414
REMARK  9 active torsions:
REMARK  status: ('A' for Active; 'I' for Inactive)
REMARK    1  A    between atoms: C_1  and  N_2
REMARK    2  A    between atoms: N_5  and  C_15
REMARK    3  A    between atoms: C_6  and  C_9
REMARK    4  A    between atoms: C_15  and  C_16
REMARK    5  A    between atoms: C_16  and  N_17
REMARK    6  A    between atoms: N_17  and  C_18
REMARK    7  A    between atoms: C_21  and  S_27
REMARK    8  A    between atoms: C_23  and  N_24
REMARK    9  A    between atoms: S_27  and  N_30
REMARK                            x       y       z     vdW  Elec       q    Type
REMARK                         _______ _______ _______ _____ _____    ______ ____
ROOT
ATOM      1  N   UNL     1      -2.000  -6.045   1.972  0.00  0.00    -0.341 N 
ATOM      2  H   UNL     1      -1.179  -6.553   1.879  0.00  0.00    +0.146 HD
ENDROOT
BRANCH   1   3
ATOM      3  C   UNL     1      -3.234  -6.695   1.911  0.00  0.00    +0.058 A 
ATOM      4  C   UNL     1      -4.405  -5.991   2.164  0.00  0.00    +0.027 A 
ATOM      5  C   UNL     1      -5.624  -6.637   2.102  0.00  0.00    +0.030 A 
ATOM      6  C   UNL     1      -5.680  -7.983   1.788  0.00  0.00    +0.108 A 
ATOM      7  C   UNL     1      -4.517  -8.686   1.536  0.00  0.00    +0.063 A 
ATOM      8  C   UNL     1      -3.295  -8.045   1.591  0.00  0.00    +0.149 A 
BRANCH   8   9
ATOM      9  N   UNL     1      -2.050  -8.797   1.314  0.00  0.00    +0.058 N 
ATOM     10  O   UNL     1      -1.145  -8.268   0.712  0.00  0.00    -0.126 OA
ATOM     11  O   UNL     1      -1.939  -9.941   1.690  0.00  0.00    -0.126 OA
ENDBRANCH   8   9
BRANCH   6  12
ATOM     12  S   UNL     1      -7.238  -8.803   1.710  0.00  0.00    +0.061 S 
ATOM     13  O   UNL     1      -6.982 -10.183   1.932  0.00  0.00    -0.153 OA
ATOM     14  O   UNL     1      -8.132  -8.054   2.522  0.00  0.00    -0.153 OA
BRANCH  12  15
ATOM     15  N   UNL     1      -7.785  -8.668   0.153  0.00  0.00    -0.177 NA
ATOM     16  C   UNL     1      -8.614  -7.573  -0.371  0.00  0.00    +0.109 C 
ATOM     17  C   UNL     1      -8.898  -7.884  -1.856  0.00  0.00    +0.018 C 
ATOM     18  C   UNL     1      -8.685  -9.419  -1.937  0.00  0.00    +0.018 C 
ATOM     19  C   UNL     1      -7.515  -9.621  -0.938  0.00  0.00    +0.109 C 
ENDBRANCH  12  15
ENDBRANCH   6  12
ENDBRANCH   1   3
BRANCH   1  20
ATOM     20  C   UNL     1      -1.944  -4.595   2.177  0.00  0.00    +0.117 C 
BRANCH  20  21
ATOM     21  C   UNL     1      -0.484  -4.139   2.205  0.00  0.00    +0.103 C 
BRANCH  21  26
ATOM     22  C   UNL     1       0.430   1.417   2.022  0.00  0.00    -0.096 C 
ATOM     23  N   UNL     1       0.408  -0.030   1.773  0.00  0.00    +0.380 N 
ATOM     24  C   UNL     1      -0.975  -0.465   1.538  0.00  0.00    -0.064 C 
ATOM     25  C   UNL     1      -0.997  -1.969   1.259  0.00  0.00    +0.066 C 
ATOM     26  N   UNL     1      -0.429  -2.686   2.410  0.00  0.00    -0.297 NA
ATOM     27  C   UNL     1       0.948  -2.243   2.673  0.00  0.00    +0.070 C 
ATOM     28  C   UNL     1       0.953  -0.736   2.940  0.00  0.00    -0.055 C 
ATOM     29  H   UNL     1       0.969  -0.240   0.961  0.00  0.00    -0.082 HD
BRANCH  27  30
ATOM     30  C   UNL     1       1.488  -2.969   3.878  0.00  0.00    -0.032 A 
ATOM     31  C   UNL     1       0.672  -3.198   4.970  0.00  0.00    +0.005 A 
ATOM     32  C   UNL     1       1.168  -3.864   6.075  0.00  0.00    +0.000 A 
ATOM     33  C   UNL     1       2.479  -4.302   6.088  0.00  0.00    +0.000 A 
ATOM     34  C   UNL     1       3.294  -4.074   4.995  0.00  0.00    +0.000 A 
ATOM     35  C   UNL     1       2.797  -3.412   3.889  0.00  0.00    +0.005 A 
ENDBRANCH  27  30
ENDBRANCH  21  26
ENDBRANCH  20  21
ENDBRANCH   1  20
TORSDOF 8
