REMARK  Name = ZINC42734804
REMARK  5 active torsions:
REMARK  status: ('A' for Active; 'I' for Inactive)
REMARK    1  A    between atoms: C_1  and  C_2
REMARK    2  A    between atoms: C_3  and  C_11
REMARK    3  A    between atoms: C_7  and  N_8
REMARK    4  A    between atoms: C_15  and  C_22
REMARK    5  A    between atoms: C_19  and  C_21
REMARK                            x       y       z     vdW  Elec       q    Type
REMARK                         _______ _______ _______ _____ _____    ______ ____
ROOT
ATOM      1  C   UNL     1      -0.243   0.240  -2.506  0.00  0.00    +0.247 C 
ATOM      2  O   UNL     1      -0.259   1.456  -2.499  0.00  0.00    -0.270 OA
ATOM      3  N   UNL     1      -0.353  -0.429  -3.671  0.00  0.00    -0.294 N 
ATOM      4  C   UNL     1      -0.226  -1.892  -3.708  0.00  0.00    +0.121 C 
ATOM      5  C   UNL     1       0.841  -2.268  -4.741  0.00  0.00    +0.092 C 
ATOM      6  C   UNL     1       0.489  -1.633  -6.088  0.00  0.00    +0.016 C 
ATOM      7  C   UNL     1       0.470  -0.109  -5.946  0.00  0.00    +0.023 C 
ATOM      8  C   UNL     1      -0.607   0.291  -4.926  0.00  0.00    +0.073 C 
ATOM      9  C   UNL     1      -1.990  -0.085  -5.462  0.00  0.00    +0.028 C 
ENDROOT
BRANCH   1  12
ATOM     10  C   UNL     1       1.978   0.820  -0.744  0.00  0.00    +0.047 C 
ATOM     11  C   UNL     1       0.964  -0.233  -0.378  0.00  0.00    -0.008 A 
ATOM     12  C   UNL     1      -0.103  -0.504  -1.236  0.00  0.00    +0.042 A 
ATOM     13  C   UNL     1      -1.038  -1.481  -0.890  0.00  0.00    +0.013 A 
ATOM     14  C   UNL     1      -0.902  -2.172   0.297  0.00  0.00    +0.003 A 
ATOM     15  C   UNL     1       0.158  -1.899   1.142  0.00  0.00    +0.033 A 
ATOM     16  C   UNL     1       1.092  -0.935   0.802  0.00  0.00    +0.130 A 
BRANCH  16  17
ATOM     17  N   UNL     1       2.227  -0.653   1.710  0.00  0.00    +0.057 N 
ATOM     18  O   UNL     1       2.382  -1.318   2.708  0.00  0.00    -0.126 OA
ATOM     19  O   UNL     1       2.998   0.241   1.453  0.00  0.00    -0.126 OA
ENDBRANCH  16  17
ENDBRANCH   1  12
BRANCH   5  20
ATOM     20  C   UNL     1       0.892  -3.767  -4.889  0.00  0.00    +0.215 C 
ATOM     21  O   UNL     1       0.670  -4.278  -5.966  0.00  0.00    -0.276 OA
ATOM     22  N   UNL     1       1.182  -4.540  -3.824  0.00  0.00    -0.329 N 
ATOM     23  H   UNL     1       1.359  -4.132  -2.962  0.00  0.00    +0.145 HD
ATOM     24  H   UNL     1       1.215  -5.505  -3.919  0.00  0.00    +0.145 HD
ENDBRANCH   5  20
TORSDOF 3
