REMARK  Name = ZINC37601895
REMARK  10 active torsions:
REMARK  status: ('A' for Active; 'I' for Inactive)
REMARK    1  A    between atoms: C_1  and  C_2
REMARK    2  A    between atoms: C_2  and  C_3
REMARK    3  A    between atoms: C_2  and  C_4
REMARK    4  A    between atoms: C_12  and  O_23
REMARK    5  A    between atoms: C_15  and  C_17
REMARK    6  A    between atoms: O_23  and  C_24
REMARK    7  A    between atoms: C_24  and  C_25
REMARK    8  A    between atoms: C_27  and  C_30
REMARK    9  A    between atoms: N_32  and  C_33
REMARK   10  A    between atoms: C_33  and  C_34
REMARK                            x       y       z     vdW  Elec       q    Type
REMARK                         _______ _______ _______ _____ _____    ______ ____
ROOT
ATOM      1  C   UNL     1      -1.735  -0.295  -0.059  0.00  0.00    +0.219 C 
ATOM      2  O   UNL     1      -2.780   0.321  -0.057  0.00  0.00    -0.275 OA
ATOM      3  N   UNL     1      -1.745  -1.641   0.015  0.00  0.00    -0.290 N 
ATOM      4  C   UNL     1      -0.495  -2.411   0.126  0.00  0.00    +0.113 C 
ATOM      5  C   UNL     1      -0.500  -3.121   1.479  0.00  0.00    +0.054 C 
ATOM      6  C   UNL     1      -1.818  -3.811   1.718  0.00  0.00    -0.040 A 
ATOM      7  C   UNL     1      -1.849  -4.830   2.663  0.00  0.00    +0.007 A 
ATOM      8  C   UNL     1      -3.022  -5.498   2.938  0.00  0.00    +0.046 A 
ATOM      9  C   UNL     1      -4.186  -5.150   2.268  0.00  0.00    +0.121 A 
ATOM     10  C   UNL     1      -4.156  -4.137   1.325  0.00  0.00    +0.051 A 
ATOM     11  C   UNL     1      -2.971  -3.471   1.046  0.00  0.00    -0.016 A 
ATOM     12  C   UNL     1      -3.002  -2.396  -0.006  0.00  0.00    +0.137 C 
ENDROOT
BRANCH  12  13
ATOM     13  C   UNL     1      -3.183  -3.031  -1.360  0.00  0.00    -0.023 A 
ATOM     14  C   UNL     1      -4.225  -2.632  -2.177  0.00  0.00    +0.006 A 
ATOM     15  C   UNL     1      -4.391  -3.215  -3.420  0.00  0.00    +0.000 A 
ATOM     16  C   UNL     1      -3.515  -4.197  -3.845  0.00  0.00    +0.000 A 
ATOM     17  C   UNL     1      -2.473  -4.595  -3.029  0.00  0.00    +0.000 A 
ATOM     18  C   UNL     1      -2.305  -4.009  -1.788  0.00  0.00    +0.006 A 
ENDBRANCH  12  13
BRANCH   1  20
ATOM     19  C   UNL     1       0.057   0.460  -1.598  0.00  0.00    +0.017 C 
ATOM     20  C   UNL     1      -0.425   0.445  -0.146  0.00  0.00    +0.069 C 
ATOM     21  C   UNL     1      -0.618   1.882   0.342  0.00  0.00    +0.017 C 
ENDBRANCH   1  20
BRANCH   9  22
ATOM     22  O   UNL     1      -5.349  -5.800   2.536  0.00  0.00    -0.485 OA
BRANCH  22  23
ATOM     23  C   UNL     1      -5.303  -6.834   3.521  0.00  0.00    +0.291 C 
BRANCH  23  24
ATOM     24  C   UNL     1      -6.675  -7.436   3.683  0.00  0.00    +0.116 A 
ATOM     25  N   UNL     1      -7.190  -8.449   3.041  0.00  0.00    -0.236 NA
ATOM     26  C   UNL     1      -8.437  -8.824   3.343  0.00  0.00    +0.133 A 
ATOM     27  C   UNL     1      -9.066  -8.095   4.316  0.00  0.00    +0.080 A 
ATOM     28  S   UNL     1      -7.894  -6.966   4.736  0.00  0.00    -0.076 S 
BRANCH  26  29
ATOM     29  C   UNL     1      -9.096  -9.955   2.668  0.00  0.00    +0.263 C 
ATOM     30  O   UNL     1     -10.233 -10.265   2.970  0.00  0.00    -0.269 OA
ATOM     31  N   UNL     1      -8.440 -10.646   1.715  0.00  0.00    -0.308 N 
ATOM     32  H   UNL     1      -7.534 -10.399   1.474  0.00  0.00    +0.149 HD
BRANCH  31  33
ATOM     33  C   UNL     1      -9.095 -11.771   1.043  0.00  0.00    +0.136 C 
BRANCH  33  34
ATOM     34  C   UNL     1      -8.140 -12.377   0.014  0.00  0.00    +0.135 C 
ATOM     35  C   UNL     1      -8.827 -13.548  -0.733  0.00  0.00    +0.035 C 
ATOM     36  C   UNL     1      -8.022 -13.563  -2.062  0.00  0.00    +0.031 C 
ATOM     37  C   UNL     1      -7.717 -12.065  -2.276  0.00  0.00    +0.160 C 
ATOM     38  O   UNL     1      -7.826 -11.413  -1.004  0.00  0.00    -0.375 OA
ENDBRANCH  33  34
ENDBRANCH  31  33
ENDBRANCH  26  29
ENDBRANCH  23  24
ENDBRANCH  22  23
ENDBRANCH   9  22
TORSDOF 8
