REMARK  Name = ZINC59165110
REMARK  6 active torsions:
REMARK  status: ('A' for Active; 'I' for Inactive)
REMARK    1  A    between atoms: C_1  and  C_2
REMARK    2  A    between atoms: C_5  and  C_9
REMARK    3  A    between atoms: N_11  and  N_12
REMARK    4  A    between atoms: N_20  and  C_23
REMARK    5  A    between atoms: C_23  and  C_24
REMARK    6  A    between atoms: C_24  and  N_25
REMARK                            x       y       z     vdW  Elec       q    Type
REMARK                         _______ _______ _______ _____ _____    ______ ____
ROOT
ATOM      1  N   UNL     1       0.095  -6.333   1.131  0.00  0.00    -0.174 NA
ATOM      2  C   UNL     1       0.208  -6.994   2.258  0.00  0.00    +0.153 C 
ATOM      3  C   UNL     1       0.219  -6.440   3.632  0.00  0.00    +0.028 A 
ATOM      4  C   UNL     1       0.121  -5.149   4.139  0.00  0.00    +0.012 A 
ATOM      5  C   UNL     1       0.164  -4.945   5.504  0.00  0.00    +0.001 A 
ATOM      6  C   UNL     1       0.303  -6.022   6.363  0.00  0.00    +0.002 A 
ATOM      7  C   UNL     1       0.402  -7.307   5.869  0.00  0.00    +0.024 A 
ATOM      8  C   UNL     1       0.360  -7.533   4.497  0.00  0.00    +0.046 A 
ATOM      9  N   UNL     1       0.436  -8.704   3.752  0.00  0.00    -0.264 N 
ATOM     10  C   UNL     1       0.347  -8.454   2.434  0.00  0.00    +0.271 C 
ATOM     11  O   UNL     1       0.379  -9.283   1.544  0.00  0.00    -0.268 OA
ENDROOT
BRANCH   1  14
ATOM     12  C   UNL     1      -0.073  -4.249  -0.007  0.00  0.00    +0.263 C 
ATOM     13  O   UNL     1      -0.329  -4.846  -1.034  0.00  0.00    -0.268 OA
ATOM     14  N   UNL     1       0.154  -4.933   1.132  0.00  0.00    -0.202 N 
ATOM     15  H   UNL     1       0.359  -4.457   1.951  0.00  0.00    +0.178 HD
BRANCH  12  20
ATOM     16  C   UNL     1       0.169   1.500  -0.009  0.00  0.00    +0.045 C 
ATOM     17  C   UNL     1       0.106  -0.005  -0.008  0.00  0.00    -0.032 A 
ATOM     18  C   UNL     1      -0.186  -0.683  -1.179  0.00  0.00    +0.005 A 
ATOM     19  C   UNL     1      -0.245  -2.061  -1.185  0.00  0.00    +0.013 A 
ATOM     20  C   UNL     1      -0.011  -2.773  -0.007  0.00  0.00    +0.040 A 
ATOM     21  C   UNL     1       0.283  -2.084   1.171  0.00  0.00    +0.033 A 
ATOM     22  C   UNL     1       0.345  -0.705   1.163  0.00  0.00    +0.045 A 
ATOM     23 CL   UNL     1       0.716   0.155   2.625  0.00  0.00    -0.083 Cl
ENDBRANCH  12  20
ENDBRANCH   1  14
BRANCH   9  24
ATOM     24  C   UNL     1       0.588 -10.041   4.329  0.00  0.00    +0.133 C 
BRANCH  24  25
ATOM     25  C   UNL     1      -0.793 -10.642   4.596  0.00  0.00    +0.136 C 
BRANCH  25  26
ATOM     26  N   UNL     1      -0.641 -11.980   5.174  0.00  0.00    -0.233 N 
ATOM     27  C   UNL     1      -0.562 -13.114   4.455  0.00  0.00    +0.254 C 
ATOM     28  O   UNL     1      -0.605 -13.191   3.244  0.00  0.00    -0.270 OA
ATOM     29  C   UNL     1      -0.413 -14.252   5.387  0.00  0.00    +0.049 A 
ATOM     30  C   UNL     1      -0.288 -15.623   5.228  0.00  0.00    +0.014 A 
ATOM     31  C   UNL     1      -0.163 -16.435   6.345  0.00  0.00    +0.001 A 
ATOM     32  C   UNL     1      -0.163 -15.887   7.614  0.00  0.00    +0.001 A 
ATOM     33  C   UNL     1      -0.288 -14.518   7.788  0.00  0.00    +0.014 A 
ATOM     34  C   UNL     1      -0.413 -13.694   6.681  0.00  0.00    +0.049 A 
ATOM     35  C   UNL     1      -0.557 -12.235   6.492  0.00  0.00    +0.254 C 
ATOM     36  O   UNL     1      -0.594 -11.405   7.378  0.00  0.00    -0.270 OA
ENDBRANCH  25  26
ENDBRANCH  24  25
ENDBRANCH   9  24
TORSDOF 5
