REMARK  Name = ZINC39445831
REMARK  6 active torsions:
REMARK  status: ('A' for Active; 'I' for Inactive)
REMARK    1  A    between atoms: C_1  and  C_2
REMARK    2  A    between atoms: C_2  and  C_3
REMARK    3  A    between atoms: C_2  and  C_4
REMARK    4  A    between atoms: C_4  and  C_5
REMARK    5  A    between atoms: C_5  and  C_6
REMARK    6  A    between atoms: C_14  and  C_16
REMARK                            x       y       z     vdW  Elec       q    Type
REMARK                         _______ _______ _______ _____ _____    ______ ____
ROOT
ATOM      1  C   UNL     1      -2.851  -2.587  -0.110  0.00  0.00    +0.157 C 
ATOM      2  C   UNL     1      -2.871  -4.081  -0.299  0.00  0.00    -0.004 C 
ATOM      3  C   UNL     1      -3.422  -4.565   0.819  0.00  0.00    +0.067 C 
ATOM      4  C   UNL     1      -3.639  -6.042   1.067  0.00  0.00    +0.076 C 
ATOM      5  C   UNL     1      -3.579  -6.786  -0.271  0.00  0.00    +0.114 C 
ATOM      6  N   UNL     1      -2.417  -6.314  -1.040  0.00  0.00    -0.297 N 
ATOM      7  C   UNL     1      -2.397  -4.901  -1.465  0.00  0.00    +0.142 C 
ATOM      8  C   UNL     1      -1.402  -7.147  -1.346  0.00  0.00    +0.217 C 
ATOM      9  O   UNL     1      -0.453  -6.738  -1.981  0.00  0.00    -0.276 OA
ATOM     10  N   UNL     1      -3.738  -3.549   1.653  0.00  0.00    -0.158 NA
ATOM     11  N   UNL     1      -3.461  -2.419   1.223  0.00  0.00    -0.180 NA
ENDROOT
BRANCH   8  12
ATOM     12  C   UNL     1      -1.447  -8.586  -0.900  0.00  0.00    +0.105 C 
ATOM     13  N   UNL     1      -2.334  -9.386  -1.791  0.00  0.00    -0.263 NA
ATOM     14  N   UNL     1      -1.693 -10.700  -1.956  0.00  0.00    -0.271 NA
ATOM     15  C   UNL     1      -0.505 -10.669  -1.098  0.00  0.00    +0.018 C 
ATOM     16  N   UNL     1      -0.133  -9.226  -1.073  0.00  0.00    +0.408 N 
ATOM     17  C   UNL     1       0.811  -9.029   0.018  0.00  0.00    -0.074 C 
ATOM     18  C   UNL     1       2.106  -9.771  -0.346  0.00  0.00    -0.018 C 
ATOM     19  C   UNL     1       1.835 -11.256  -0.586  0.00  0.00    -0.002 C 
ATOM     20  C   UNL     1       0.691 -11.455  -1.608  0.00  0.00    +0.001 C 
ATOM     21  H   UNL     1      -2.458  -8.930  -2.683  0.00  0.00    +0.139 HD
ATOM     22  H   UNL     1      -2.317 -11.444  -1.682  0.00  0.00    +0.139 HD
ATOM     23  H   UNL     1       0.276  -8.954  -1.955  0.00  0.00    -0.076 HD
ENDBRANCH   8  12
BRANCH   1  24
ATOM     24  C   UNL     1      -1.416  -2.058  -0.121  0.00  0.00    +0.033 C 
BRANCH  24  25
ATOM     25  C   UNL     1      -1.433  -0.534   0.013  0.00  0.00    +0.005 C 
BRANCH  25  27
ATOM     26  C   UNL     1      -0.019   1.526   0.010  0.00  0.00    +0.007 C 
ATOM     27  C   UNL     1       0.002  -0.004   0.002  0.00  0.00    -0.017 C 
ATOM     28  C   UNL     1       0.742  -0.511   1.242  0.00  0.00    +0.007 C 
ENDBRANCH  25  27
ENDBRANCH  24  25
ENDBRANCH   1  24
TORSDOF 4
