REMARK  Name = ZINC36313452
REMARK  14 active torsions:
REMARK  status: ('A' for Active; 'I' for Inactive)
REMARK    1  A    between atoms: C_1  and  C_2
REMARK    2  A    between atoms: C_2  and  C_3
REMARK    3  A    between atoms: C_2  and  C_4
REMARK    4  A    between atoms: C_4  and  C_5
REMARK    5  A    between atoms: C_5  and  N_6
REMARK    6  A    between atoms: N_6  and  C_7
REMARK    7  A    between atoms: N_6  and  C_26
REMARK    8  A    between atoms: C_7  and  C_8
REMARK    9  A    between atoms: C_9  and  C_19
REMARK   10  A    between atoms: C_12  and  N_13
REMARK   11  A    between atoms: C_26  and  C_27
REMARK   12  A    between atoms: C_27  and  C_29
REMARK   13  A    between atoms: C_27  and  O_36
REMARK   14  A    between atoms: C_29  and  N_30
REMARK                            x       y       z     vdW  Elec       q    Type
REMARK                         _______ _______ _______ _____ _____    ______ ____
ROOT
ATOM      1  C   UNL     1       5.910  -0.622  -1.308  0.00  0.00    -0.035 C 
ENDROOT
BRANCH   1   2
ATOM      2  C   UNL     1       5.399  -1.822  -0.553  0.00  0.00    +0.025 A 
ATOM      3  C   UNL     1       4.865  -1.815   0.753  0.00  0.00    +0.119 A 
ATOM      4  N   UNL     1       4.532  -3.047   1.060  0.00  0.00    -0.076 NA
ATOM      5  O   UNL     1       4.846  -3.874  -0.045  0.00  0.00    -0.339 OA
ATOM      6  C   UNL     1       5.366  -3.098  -1.012  0.00  0.00    +0.222 A 
BRANCH   3   7
ATOM      7  C   UNL     1       4.709  -0.625   1.626  0.00  0.00    +0.039 A 
ATOM      8  C   UNL     1       4.333   0.600   1.077  0.00  0.00    +0.013 A 
ATOM      9  C   UNL     1       4.188   1.703   1.893  0.00  0.00    +0.001 A 
ATOM     10  C   UNL     1       4.415   1.597   3.254  0.00  0.00    +0.003 A 
ATOM     11  C   UNL     1       4.788   0.386   3.805  0.00  0.00    +0.039 A 
ATOM     12  C   UNL     1       4.931  -0.729   2.999  0.00  0.00    +0.133 A 
ATOM     13  F   UNL     1       5.290  -1.914   3.539  0.00  0.00    -0.205 F 
ENDBRANCH   3   7
BRANCH   6  14
ATOM     14  N   UNL     1       5.795  -3.527  -2.255  0.00  0.00    -0.295 N 
ATOM     15  C   UNL     1       7.180  -3.979  -2.463  0.00  0.00    +0.136 C 
ATOM     16  C   UNL     1       7.143  -5.342  -3.165  0.00  0.00    +0.179 C 
ATOM     17  O   UNL     1       6.323  -5.247  -4.333  0.00  0.00    -0.377 OA
ATOM     18  C   UNL     1       4.956  -4.927  -4.064  0.00  0.00    +0.179 C 
ATOM     19  C   UNL     1       4.880  -3.549  -3.406  0.00  0.00    +0.136 C 
ENDBRANCH   6  14
ENDBRANCH   1   2
BRANCH   1  20
ATOM     20  N   UNL     1       5.089  -0.412  -2.508  0.00  0.00    +0.384 N 
ATOM     21  H   UNL     1       5.050  -1.267  -3.042  0.00  0.00    -0.081 HD
BRANCH  20  22
ATOM     22  C   UNL     1       3.730  -0.021  -2.109  0.00  0.00    -0.078 C 
BRANCH  22  23
ATOM     23  C   UNL     1       2.799  -0.106  -3.320  0.00  0.00    -0.016 C 
BRANCH  23  25
ATOM     24  C   UNL     1       1.229   1.587  -2.364  0.00  0.00    +0.007 C 
ATOM     25  C   UNL     1       1.358   0.150  -2.874  0.00  0.00    -0.019 C 
ATOM     26  C   UNL     1       0.413  -0.058  -4.059  0.00  0.00    +0.007 C 
ENDBRANCH  23  25
ENDBRANCH  22  23
ENDBRANCH  20  22
BRANCH  20  27
ATOM     27  C   UNL     1       5.684   0.651  -3.328  0.00  0.00    -0.045 C 
BRANCH  27  28
ATOM     28  C   UNL     1       7.062   0.206  -3.820  0.00  0.00    +0.112 C 
BRANCH  28  29
ATOM     29  O   UNL     1       6.917  -0.912  -4.699  0.00  0.00    -0.392 OA
ATOM     30  H   UNL     1       6.443  -0.709  -5.517  0.00  0.00    +0.210 HD
ENDBRANCH  28  29
BRANCH  28  31
ATOM     31  C   UNL     1       7.734   1.359  -4.568  0.00  0.00    +0.114 C 
BRANCH  31  32
ATOM     32  N   UNL     1       9.058   0.931  -5.040  0.00  0.00    -0.296 NA
ATOM     33  C   UNL     1       9.964   0.680  -3.909  0.00  0.00    +0.112 C 
ATOM     34  C   UNL     1      11.310   0.181  -4.442  0.00  0.00    +0.175 C 
ATOM     35  O   UNL     1      11.840   1.142  -5.359  0.00  0.00    -0.377 OA
ATOM     36  C   UNL     1      10.983   1.409  -6.473  0.00  0.00    +0.175 C 
ATOM     37  C   UNL     1       9.635   1.921  -5.960  0.00  0.00    +0.112 C 
ENDBRANCH  31  32
ENDBRANCH  28  31
ENDBRANCH  27  28
ENDBRANCH  20  27
ENDBRANCH   1  20
TORSDOF 12
