REMARK  Name = ZINC08904569
REMARK  11 active torsions:
REMARK  status: ('A' for Active; 'I' for Inactive)
REMARK    1  A    between atoms: C_1  and  C_2
REMARK    2  A    between atoms: C_2  and  C_3
REMARK    3  A    between atoms: C_2  and  C_4
REMARK    4  A    between atoms: C_2  and  C_5
REMARK    5  A    between atoms: C_8  and  C_11
REMARK    6  A    between atoms: C_14  and  C_15
REMARK    7  A    between atoms: C_14  and  O_24
REMARK    8  A    between atoms: N_29  and  C_30
REMARK    9  A    between atoms: C_30  and  C_31
REMARK   10  A    between atoms: C_31  and  C_32
REMARK   11  A    between atoms: C_32  and  N_71
REMARK                            x       y       z     vdW  Elec       q    Type
REMARK                         _______ _______ _______ _____ _____    ______ ____
ROOT
ATOM      1  C   UNL     1       3.805  -3.377  -0.277  0.00  0.00    +0.145 C 
ATOM      2  C   UNL     1       3.149  -2.022  -0.143  0.00  0.00    +0.074 C 
ATOM      3  C   UNL     1       1.793  -1.762  -0.024  0.00  0.00    +0.168 C 
ATOM      4  C   UNL     1       4.186  -1.081  -0.169  0.00  0.00    +0.249 C 
ATOM      5  O   UNL     1       4.057   0.128  -0.091  0.00  0.00    -0.282 OA
ATOM      6  C   UNL     1       5.474  -1.813  -0.306  0.00  0.00    +0.288 C 
ATOM      7  O   UNL     1       6.569  -1.291  -0.357  0.00  0.00    -0.266 OA
ATOM      8  N   UNL     1       5.248  -3.136  -0.371  0.00  0.00    -0.284 N 
ENDROOT
BRANCH   3   9
ATOM      9  C   UNL     1       1.310  -0.382  -0.028  0.00  0.00    +0.171 A 
ATOM     10  C   UNL     1       0.280   0.090  -0.786  0.00  0.00    +0.061 A 
ATOM     11  C   UNL     1       0.146   1.468  -0.485  0.00  0.00    +0.021 A 
ATOM     12  C   UNL     1      -0.718   2.476  -0.928  0.00  0.00    +0.011 A 
ATOM     13  C   UNL     1      -0.589   3.744  -0.436  0.00  0.00    +0.001 A 
ATOM     14  C   UNL     1       0.387   4.038   0.507  0.00  0.00    +0.004 A 
ATOM     15  C   UNL     1       1.245   3.059   0.960  0.00  0.00    +0.047 A 
ATOM     16  C   UNL     1       1.136   1.763   0.471  0.00  0.00    +0.136 A 
ATOM     17  O   UNL     1       1.815   0.624   0.719  0.00  0.00    -0.452 OA
ENDBRANCH   3   9
BRANCH   1  21
ATOM     18  C   UNL     1       2.413  -5.333  -3.809  0.00  0.00    -0.042 A 
ATOM     19  C   UNL     1       1.901  -5.689  -2.575  0.00  0.00    +0.004 A 
ATOM     20  C   UNL     1       2.352  -5.055  -1.432  0.00  0.00    +0.006 A 
ATOM     21  C   UNL     1       3.314  -4.067  -1.523  0.00  0.00    -0.022 A 
ATOM     22  C   UNL     1       3.822  -3.708  -2.757  0.00  0.00    +0.006 A 
ATOM     23  C   UNL     1       3.375  -4.345  -3.900  0.00  0.00    +0.004 A 
BRANCH  18  25
ATOM     24  C   UNL     1       0.416  -5.803  -5.203  0.00  0.00    +0.015 C 
ATOM     25  C   UNL     1       1.923  -6.025  -5.056  0.00  0.00    -0.013 C 
ATOM     26  C   UNL     1       2.645  -5.449  -6.276  0.00  0.00    +0.015 C 
ATOM     27  C   UNL     1       2.211  -7.524  -4.954  0.00  0.00    +0.015 C 
ENDBRANCH  18  25
ENDBRANCH   1  21
BRANCH   3  28
ATOM     28  O   UNL     1       0.917  -2.784   0.096  0.00  0.00    -0.503 OA
ATOM     29  H   UNL     1      -0.011  -2.420   0.171  0.00  0.00    +0.292 HD
ENDBRANCH   3  28
BRANCH   8  30
ATOM     30  C   UNL     1       6.276  -4.170  -0.512  0.00  0.00    +0.107 C 
BRANCH  30  31
ATOM     31  C   UNL     1       6.525  -4.441  -1.997  0.00  0.00    +0.000 C 
BRANCH  31  32
ATOM     32  C   UNL     1       7.599  -5.521  -2.145  0.00  0.00    -0.077 C 
BRANCH  32  38
ATOM     33  C   UNL     1       6.656  -6.386  -4.202  0.00  0.00    -0.050 C 
ATOM     34  C   UNL     1       6.927  -6.585  -5.695  0.00  0.00    +0.141 C 
ATOM     35  O   UNL     1       8.098  -7.389  -5.859  0.00  0.00    -0.383 OA
ATOM     36  C   UNL     1       9.269  -6.831  -5.257  0.00  0.00    +0.141 C 
ATOM     37  C   UNL     1       9.022  -6.634  -3.759  0.00  0.00    -0.050 C 
ATOM     38  N   UNL     1       7.843  -5.759  -3.584  0.00  0.00    +0.383 N 
ATOM     39  H   UNL     1       8.024  -4.859  -4.045  0.00  0.00    -0.082 HD
ENDBRANCH  32  38
ENDBRANCH  31  32
ENDBRANCH  30  31
ENDBRANCH   8  30
TORSDOF 8
