REMARK  Name = ZINC13388322
REMARK  10 active torsions:
REMARK  status: ('A' for Active; 'I' for Inactive)
REMARK    1  A    between atoms: C_1  and  C_2
REMARK    2  A    between atoms: C_5  and  N_9
REMARK    3  A    between atoms: C_6  and  C_8
REMARK    4  A    between atoms: C_10  and  C_12
REMARK    5  A    between atoms: C_13  and  C_34
REMARK    6  A    between atoms: C_14  and  C_30
REMARK    7  A    between atoms: C_15  and  N_17
REMARK    8  A    between atoms: C_18  and  C_20
REMARK    9  A    between atoms: C_30  and  O_32
REMARK   10  A    between atoms: O_32  and  C_33
REMARK                            x       y       z     vdW  Elec       q    Type
REMARK                         _______ _______ _______ _____ _____    ______ ____
ROOT
ATOM      1  C   UNL     1      -1.912   9.806  -0.533  0.00  0.00    +0.080 A 
ATOM      2  C   UNL     1      -2.568   9.407  -1.665  0.00  0.00    -0.015 A 
ATOM      3  C   UNL     1      -2.672   8.044  -1.902  0.00  0.00    +0.091 A 
ATOM      4  C   UNL     1      -2.099   7.175  -0.968  0.00  0.00    +0.087 A 
ATOM      5  S   UNL     1      -1.441   8.258   0.215  0.00  0.00    -0.068 S 
ATOM      6  C   UNL     1      -3.158  10.412  -2.621  0.00  0.00    +0.046 C 
ENDROOT
BRANCH   1   8
ATOM      7  N   UNL     1      -0.992  11.362   1.100  0.00  0.00    -0.281 N 
ATOM      8  C   UNL     1      -1.665  11.167  -0.051  0.00  0.00    +0.255 C 
ATOM      9  O   UNL     1      -2.067  12.121  -0.691  0.00  0.00    -0.269 OA
ATOM     10  H   UNL     1      -0.742  10.604   1.650  0.00  0.00    +0.155 HD
BRANCH   7  15
ATOM     11  C   UNL     1       0.375  16.621   2.728  0.00  0.00    +0.044 C 
ATOM     12  C   UNL     1       0.012  15.224   2.295  0.00  0.00    -0.050 A 
ATOM     13  C   UNL     1      -0.193  14.948   0.956  0.00  0.00    +0.005 A 
ATOM     14  C   UNL     1      -0.526  13.668   0.556  0.00  0.00    +0.024 A 
ATOM     15  C   UNL     1      -0.655  12.659   1.501  0.00  0.00    +0.037 A 
ATOM     16  C   UNL     1      -0.454  12.941   2.846  0.00  0.00    -0.029 A 
ATOM     17  C   UNL     1      -0.115  14.221   3.239  0.00  0.00    +0.008 A 
ATOM     18  C   UNL     1      -0.599  11.850   3.876  0.00  0.00    +0.045 C 
ENDBRANCH   7  15
ENDBRANCH   1   8
BRANCH   4  19
ATOM     19  N   UNL     1      -2.071   5.794  -0.981  0.00  0.00    -0.279 N 
ATOM     20  C   UNL     1      -1.465   5.123   0.019  0.00  0.00    +0.224 C 
ATOM     21  O   UNL     1      -0.945   5.732   0.930  0.00  0.00    -0.275 OA
ATOM     22  H   UNL     1      -2.487   5.308  -1.709  0.00  0.00    +0.155 HD
BRANCH  20  23
ATOM     23  C   UNL     1      -1.434   3.617   0.005  0.00  0.00    +0.048 C 
ATOM     24  C   UNL     1      -0.713   3.134  -1.255  0.00  0.00    +0.019 C 
ATOM     25  C   UNL     1      -0.681   1.604  -1.270  0.00  0.00    -0.009 C 
ATOM     26  C   UNL     1       0.061   1.097  -0.031  0.00  0.00    +0.007 C 
ATOM     27  C   UNL     1      -0.660   1.581   1.229  0.00  0.00    -0.009 C 
ATOM     28  C   UNL     1      -0.692   3.110   1.243  0.00  0.00    +0.019 C 
ATOM     29  C   UNL     1      -2.092   1.041   1.236  0.00  0.00    +0.007 C 
ATOM     30  C   UNL     1      -2.834   1.548  -0.002  0.00  0.00    -0.009 C 
ATOM     31  C   UNL     1      -2.113   1.064  -1.262  0.00  0.00    +0.007 C 
ATOM     32  C   UNL     1      -2.866   3.077   0.012  0.00  0.00    +0.019 C 
ENDBRANCH  20  23
ENDBRANCH   4  19
BRANCH   3  33
ATOM     33  C   UNL     1      -3.360   7.532  -3.093  0.00  0.00    +0.342 C 
ATOM     34  O   UNL     1      -4.552   7.296  -3.053  0.00  0.00    -0.245 OA
BRANCH  33  35
ATOM     35  O   UNL     1      -2.669   7.322  -4.232  0.00  0.00    -0.464 OA
ATOM     36  C   UNL     1      -3.414   6.814  -5.370  0.00  0.00    +0.280 C 
ENDBRANCH  33  35
ENDBRANCH   3  33
TORSDOF 6
