REMARK  Name = ZINC01205960
REMARK  3 active torsions:
REMARK  status: ('A' for Active; 'I' for Inactive)
REMARK    1  A    between atoms: C_1  and  O_2
REMARK    2  A    between atoms: O_2  and  C_3
REMARK    3  A    between atoms: C_5  and  C_17
REMARK                            x       y       z     vdW  Elec       q    Type
REMARK                         _______ _______ _______ _____ _____    ______ ____
ROOT
ATOM      1  C   UNL     1      -3.582   2.190   0.231  0.00  0.00    +0.319 A 
ATOM      2  N   UNL     1      -3.624   3.481  -0.054  0.00  0.00    -0.195 NA
ATOM      3  C   UNL     1      -2.503   4.182  -0.228  0.00  0.00    +0.082 A 
ATOM      4  C   UNL     1      -1.280   3.529  -0.102  0.00  0.00    +0.005 A 
ATOM      5  C   UNL     1      -1.280   2.172   0.213  0.00  0.00    +0.082 A 
ATOM      6  N   UNL     1      -2.438   1.538   0.365  0.00  0.00    -0.195 NA
ATOM      7  C   UNL     1       0.013   1.469   0.377  0.00  0.00    +0.004 A 
ATOM      8  C   UNL     1       0.080   0.080   0.368  0.00  0.00    +0.010 A 
ATOM      9  C   UNL     1       1.301  -0.548   0.513  0.00  0.00    +0.001 A 
ATOM     10  C   UNL     1       2.453   0.203   0.666  0.00  0.00    +0.000 A 
ATOM     11  C   UNL     1       2.389   1.584   0.687  0.00  0.00    +0.004 A 
ATOM     12  C   UNL     1       1.173   2.224   0.555  0.00  0.00    -0.038 A 
ATOM     13  C   UNL     1       1.092   3.724   0.635  0.00  0.00    +0.040 C 
ATOM     14  C   UNL     1       0.016   4.261  -0.305  0.00  0.00    +0.044 C 
ENDROOT
BRANCH   3  15
ATOM     15  C   UNL     1      -2.558   5.629  -0.550  0.00  0.00    +0.001 A 
ATOM     16  C   UNL     1      -3.442   6.464   0.133  0.00  0.00    +0.011 A 
ATOM     17  C   UNL     1      -3.486   7.810  -0.167  0.00  0.00    +0.016 A 
ATOM     18  C   UNL     1      -2.662   8.330  -1.151  0.00  0.00    +0.018 A 
ATOM     19  C   UNL     1      -1.786   7.504  -1.835  0.00  0.00    +0.016 A 
ATOM     20  C   UNL     1      -1.731   6.157  -1.539  0.00  0.00    +0.011 A 
ATOM     21 BR   UNL     1      -2.732  10.175  -1.561  0.00  0.00    -0.050 Br
ENDBRANCH   3  15
BRANCH   1  23
ATOM     22  C   UNL     1      -5.955   2.261   0.237  0.00  0.00    +0.280 C 
ATOM     23  O   UNL     1      -4.746   1.515   0.391  0.00  0.00    -0.466 OA
ENDBRANCH   1  23
TORSDOF 2
