REMARK  Name = ZINC50454792
REMARK  4 active torsions:
REMARK  status: ('A' for Active; 'I' for Inactive)
REMARK    1  A    between atoms: C_4  and  N_8
REMARK    2  A    between atoms: C_16  and  C_18
REMARK    3  A    between atoms: C_18  and  C_19
REMARK    4  A    between atoms: C_19  and  O_20
REMARK                            x       y       z     vdW  Elec       q    Type
REMARK                         _______ _______ _______ _____ _____    ______ ____
ROOT
ATOM      1  C   UNL     1       0.595   0.514   1.459  0.00  0.00    +0.225 A 
ATOM      2  N   UNL     1       1.710   1.213   1.386  0.00  0.00    -0.218 NA
ATOM      3  C   UNL     1       2.304   1.423   0.215  0.00  0.00    +0.157 A 
ATOM      4  C   UNL     1       1.730   0.890  -0.940  0.00  0.00    +0.202 A 
ATOM      5  C   UNL     1       0.560   0.164  -0.815  0.00  0.00    +0.164 A 
ATOM      6  N   UNL     1       0.027  -0.002   0.389  0.00  0.00    -0.222 NA
ATOM      7 CL   UNL     1      -0.202  -0.523  -2.216  0.00  0.00    -0.059 Cl
ATOM      8  N   UNL     1       3.476   2.159   0.143  0.00  0.00    -0.310 N 
ATOM      9  C   UNL     1       4.784   1.496   0.235  0.00  0.00    +0.107 C 
ATOM     10  C   UNL     1       5.601   2.170   1.342  0.00  0.00    +0.019 C 
ATOM     11  C   UNL     1       5.677   3.674   1.070  0.00  0.00    +0.003 C 
ATOM     12  C   UNL     1       4.267   4.268   1.081  0.00  0.00    +0.022 C 
ATOM     13  C   UNL     1       3.434   3.617  -0.034  0.00  0.00    +0.077 C 
ENDROOT
BRANCH   4  14
ATOM     14  N   UNL     1       2.356   1.099  -2.264  0.00  0.00    +0.063 N 
ATOM     15  O   UNL     1       3.120   0.274  -2.708  0.00  0.00    -0.126 OA
ATOM     16  O   UNL     1       2.103   2.094  -2.903  0.00  0.00    -0.126 OA
ENDBRANCH   4  14
BRANCH  13  17
ATOM     17  C   UNL     1       1.986   4.103   0.055  0.00  0.00    +0.050 C 
BRANCH  17  18
ATOM     18  C   UNL     1       1.930   5.599  -0.263  0.00  0.00    +0.157 C 
BRANCH  18  19
ATOM     19  O   UNL     1       0.567   6.025  -0.311  0.00  0.00    -0.395 OA
ATOM     20  H   UNL     1       0.455   6.965  -0.509  0.00  0.00    +0.209 HD
ENDBRANCH  18  19
ENDBRANCH  17  18
ENDBRANCH  13  17
TORSDOF 4
