REMARK  Name = ZINC48836064
REMARK  5 active torsions:
REMARK  status: ('A' for Active; 'I' for Inactive)
REMARK    1  A    between atoms: C_1  and  N_2
REMARK    2  A    between atoms: N_2  and  C_3
REMARK    3  A    between atoms: N_2  and  C_13
REMARK    4  A    between atoms: C_3  and  C_4
REMARK    5  A    between atoms: C_8  and  N_10
REMARK                            x       y       z     vdW  Elec       q    Type
REMARK                         _______ _______ _______ _____ _____    ______ ____
ROOT
ATOM      1  C   UNL     1       0.024  -0.743   1.267  0.00  0.00    +0.141 C 
ENDROOT
BRANCH   1   2
ATOM      2  C   UNL     1      -1.389  -1.016   1.714  0.00  0.00    -0.028 A 
ATOM      3  C   UNL     1      -2.047  -0.105   2.518  0.00  0.00    +0.005 A 
ATOM      4  C   UNL     1      -3.343  -0.355   2.929  0.00  0.00    +0.003 A 
ATOM      5  C   UNL     1      -3.982  -1.516   2.534  0.00  0.00    +0.033 A 
ATOM      6  C   UNL     1      -3.324  -2.427   1.728  0.00  0.00    +0.127 A 
ATOM      7  C   UNL     1      -2.029  -2.175   1.315  0.00  0.00    +0.038 A 
BRANCH   6   8
ATOM      8  N   UNL     1      -4.006  -3.670   1.306  0.00  0.00    +0.056 N 
ATOM      9  O   UNL     1      -5.140  -3.889   1.665  0.00  0.00    -0.126 OA
ATOM     10  O   UNL     1      -3.431  -4.467   0.602  0.00  0.00    -0.126 OA
ENDBRANCH   6   8
ENDBRANCH   1   2
BRANCH   1  12
ATOM     11  C   UNL     1      -0.018   1.461   0.010  0.00  0.00    +0.131 C 
ATOM     12  N   UNL     1       0.002  -0.004   0.002  0.00  0.00    -0.313 N 
BRANCH  12  13
ATOM     13  C   UNL     1       0.000  -0.700  -1.218  0.00  0.00    +0.130 A 
ATOM     14  C   UNL     1       0.086  -0.048  -2.411  0.00  0.00    +0.091 A 
ATOM     15  S   UNL     1       0.036  -1.427  -3.545  0.00  0.00    -0.062 S 
ATOM     16  C   UNL     1      -0.087  -2.660  -2.407  0.00  0.00    +0.169 A 
ATOM     17  N   UNL     1      -0.080  -2.018  -1.263  0.00  0.00    -0.213 NA
ATOM     18 CL   UNL     1      -0.191  -4.372  -2.680  0.00  0.00    -0.054 Cl
ENDBRANCH  12  13
ENDBRANCH   1  12
TORSDOF 4
