REMARK  Name = ZINC40342048
REMARK  5 active torsions:
REMARK  status: ('A' for Active; 'I' for Inactive)
REMARK    1  A    between atoms: C_3  and  C_10
REMARK    2  A    between atoms: C_5  and  N_7
REMARK    3  A    between atoms: C_13  and  C_28
REMARK    4  A    between atoms: N_20  and  C_21
REMARK    5  A    between atoms: C_21  and  C_22
REMARK                            x       y       z     vdW  Elec       q    Type
REMARK                         _______ _______ _______ _____ _____    ______ ____
ROOT
ATOM      1  C   UNL     1       3.672   2.182  -0.022  0.00  0.00    +0.142 C 
ATOM      2  C   UNL     1       3.966   2.684  -1.409  0.00  0.00    +0.035 A 
ATOM      3  C   UNL     1       4.216   2.368  -2.749  0.00  0.00    +0.099 A 
ATOM      4  N   UNL     1       4.391   3.504  -3.396  0.00  0.00    -0.173 NA
ATOM      5  N   UNL     1       4.276   4.505  -2.597  0.00  0.00    -0.272 N 
ATOM      6  H   UNL     1       4.366   5.436  -2.855  0.00  0.00    +0.189 HD
ATOM      7  C   UNL     1       4.009   4.062  -1.333  0.00  0.00    +0.126 A 
ATOM      8  C   UNL     1       3.753   4.461   0.056  0.00  0.00    +0.266 C 
ATOM      9  O   UNL     1       3.723   5.609   0.454  0.00  0.00    -0.268 OA
ATOM     10  N   UNL     1       3.556   3.374   0.827  0.00  0.00    -0.281 N 
ENDROOT
BRANCH   3  11
ATOM     11  C   UNL     1       4.274   1.006  -3.335  0.00  0.00    +0.003 A 
ATOM     12  C   UNL     1       4.783  -0.055  -2.589  0.00  0.00    +0.011 A 
ATOM     13  C   UNL     1       4.835  -1.320  -3.138  0.00  0.00    +0.020 A 
ATOM     14  C   UNL     1       4.382  -1.536  -4.428  0.00  0.00    +0.041 A 
ATOM     15  C   UNL     1       3.876  -0.485  -5.174  0.00  0.00    +0.020 A 
ATOM     16  C   UNL     1       3.814   0.782  -4.631  0.00  0.00    +0.011 A 
ATOM     17 CL   UNL     1       4.451  -3.130  -5.114  0.00  0.00    -0.084 Cl
ENDBRANCH   3  11
BRANCH   1  20
ATOM     18  C   UNL     1      -0.017   1.378   0.010  0.00  0.00    +0.003 A 
ATOM     19  C   UNL     1       1.171   2.085   0.002  0.00  0.00    +0.006 A 
ATOM     20  C   UNL     1       2.377   1.411  -0.013  0.00  0.00    -0.020 A 
ATOM     21  C   UNL     1       2.396   0.028  -0.020  0.00  0.00    +0.038 A 
ATOM     22  C   UNL     1       1.209  -0.679  -0.012  0.00  0.00    +0.127 A 
ATOM     23  C   UNL     1       0.002  -0.004   0.002  0.00  0.00    +0.033 A 
BRANCH  22  24
ATOM     24  N   UNL     1       1.229  -2.159  -0.020  0.00  0.00    +0.056 N 
ATOM     25  O   UNL     1       2.284  -2.749  -0.035  0.00  0.00    -0.126 OA
ATOM     26  O   UNL     1       0.190  -2.778  -0.013  0.00  0.00    -0.126 OA
ENDBRANCH  22  24
ENDBRANCH   1  20
BRANCH  10  27
ATOM     27  C   UNL     1       3.275   3.380   2.265  0.00  0.00    +0.145 C 
BRANCH  27  28
ATOM     28  C   UNL     1       4.571   3.324   3.030  0.00  0.00    -0.012 A 
ATOM     29  C   UNL     1       5.129   2.102   3.377  0.00  0.00    +0.008 A 
ATOM     30  C   UNL     1       6.323   2.098   4.082  0.00  0.00    +0.020 A 
ATOM     31  C   UNL     1       6.914   3.303   4.413  0.00  0.00    +0.111 A 
ATOM     32  N   UNL     1       6.354   4.446   4.067  0.00  0.00    -0.263 NA
ATOM     33  C   UNL     1       5.223   4.488   3.391  0.00  0.00    +0.115 A 
ENDBRANCH  27  28
ENDBRANCH  10  27
TORSDOF 5
