REMARK  Name = ZINC25143425
REMARK  15 active torsions:
REMARK  status: ('A' for Active; 'I' for Inactive)
REMARK    1  A    between atoms: C_1  and  C_2
REMARK    2  A    between atoms: C_2  and  N_3
REMARK    3  A    between atoms: N_3  and  C_4
REMARK    4  A    between atoms: N_3  and  S_6
REMARK    5  A    between atoms: C_4  and  C_5
REMARK    6  A    between atoms: S_6  and  C_9
REMARK    7  A    between atoms: C_16  and  S_25
REMARK    8  A    between atoms: N_17  and  C_18
REMARK    9  A    between atoms: C_18  and  C_19
REMARK   10  A    between atoms: S_25  and  C_26
REMARK   11  A    between atoms: C_26  and  C_27
REMARK   12  A    between atoms: C_30  and  C_33
REMARK   13  A    between atoms: C_33  and  O_35
REMARK   14  A    between atoms: O_35  and  C_36
REMARK   15  A    between atoms: C_36  and  C_37
REMARK                            x       y       z     vdW  Elec       q    Type
REMARK                         _______ _______ _______ _____ _____    ______ ____
ROOT
ATOM      1  C   UNL     1       0.025  -0.534   1.682  0.00  0.00    +0.108 A 
ATOM      2  C   UNL     1       1.238  -0.730   2.325  0.00  0.00    +0.030 A 
ATOM      3  C   UNL     1       1.273  -1.139   3.643  0.00  0.00    +0.030 A 
ATOM      4  C   UNL     1       0.088  -1.367   4.326  0.00  0.00    +0.070 A 
ATOM      5  C   UNL     1      -1.143  -1.176   3.678  0.00  0.00    +0.092 A 
ATOM      6  C   UNL     1      -1.161  -0.756   2.345  0.00  0.00    +0.058 A 
ATOM      7  N   UNL     1      -2.119  -1.470   4.577  0.00  0.00    -0.222 NA
ATOM      8  C   UNL     1      -1.576  -1.823   5.716  0.00  0.00    +0.170 A 
ATOM      9  N   UNL     1      -0.214  -1.777   5.614  0.00  0.00    -0.316 N 
ENDROOT
BRANCH   1  10
ATOM     10  S   UNL     1       0.002  -0.004   0.002  0.00  0.00    +0.061 S 
ATOM     11  O   UNL     1      -1.243  -0.424  -0.539  0.00  0.00    -0.153 OA
ATOM     12  O   UNL     1       1.248  -0.390  -0.563  0.00  0.00    -0.153 OA
BRANCH  10  13
ATOM     13  N   UNL     1      -0.020   1.652   0.011  0.00  0.00    -0.177 NA
BRANCH  13  15
ATOM     14  C   UNL     1       1.598   2.778  -1.435  0.00  0.00    +0.022 C 
ATOM     15  C   UNL     1       1.238   2.401   0.003  0.00  0.00    +0.106 C 
ENDBRANCH  13  15
BRANCH  13  16
ATOM     16  C   UNL     1      -1.299   2.367   0.021  0.00  0.00    +0.106 C 
ATOM     17  C   UNL     1      -1.676   2.718   1.462  0.00  0.00    +0.022 C 
ENDBRANCH  13  16
ENDBRANCH  10  13
ENDBRANCH   1  10
BRANCH   9  18
ATOM     18  C   UNL     1       0.747  -2.100   6.671  0.00  0.00    +0.156 C 
BRANCH  18  19
ATOM     19  C   UNL     1       1.067  -0.837   7.473  0.00  0.00    +0.138 C 
ATOM     20  C   UNL     1       2.165  -1.142   8.515  0.00  0.00    +0.035 C 
ATOM     21  C   UNL     1       1.687  -0.325   9.746  0.00  0.00    +0.031 C 
ATOM     22  C   UNL     1       0.149  -0.446   9.600  0.00  0.00    +0.160 C 
ATOM     23  O   UNL     1      -0.098  -0.405   8.186  0.00  0.00    -0.375 OA
ENDBRANCH  18  19
ENDBRANCH   9  18
BRANCH   8  24
ATOM     24  S   UNL     1      -2.469  -2.288   7.162  0.00  0.00    -0.083 S 
BRANCH  24  25
ATOM     25  C   UNL     1      -4.165  -2.114   6.554  0.00  0.00    +0.112 C 
BRANCH  25  26
ATOM     26  C   UNL     1      -5.132  -2.471   7.653  0.00  0.00    -0.037 A 
ATOM     27  C   UNL     1      -5.566  -3.777   7.791  0.00  0.00    +0.005 A 
ATOM     28  C   UNL     1      -6.447  -4.112   8.799  0.00  0.00    +0.015 A 
ATOM     29  C   UNL     1      -6.908  -3.127   9.674  0.00  0.00    +0.059 A 
ATOM     30  C   UNL     1      -6.470  -1.809   9.525  0.00  0.00    +0.015 A 
ATOM     31  C   UNL     1      -5.585  -1.489   8.517  0.00  0.00    +0.005 A 
BRANCH  29  32
ATOM     32  C   UNL     1      -7.856  -3.476  10.752  0.00  0.00    +0.339 C 
ATOM     33  O   UNL     1      -8.256  -2.617  11.511  0.00  0.00    -0.245 OA
BRANCH  32  34
ATOM     34  O   UNL     1      -8.277  -4.748  10.893  0.00  0.00    -0.461 OA
BRANCH  34  35
ATOM     35  C   UNL     1      -9.208  -5.019  11.973  0.00  0.00    +0.229 C 
ATOM     36  C   UNL     1      -9.569  -6.506  11.975  0.00  0.00    +0.048 C 
ENDBRANCH  34  35
ENDBRANCH  32  34
ENDBRANCH  29  32
ENDBRANCH  25  26
ENDBRANCH  24  25
ENDBRANCH   8  24
TORSDOF 12
