REMARK  Name = ZINC39955739
REMARK  6 active torsions:
REMARK  status: ('A' for Active; 'I' for Inactive)
REMARK    1  A    between atoms: C_1  and  C_2
REMARK    2  A    between atoms: C_2  and  C_3
REMARK    3  A    between atoms: C_2  and  C_4
REMARK    4  A    between atoms: C_2  and  O_5
REMARK    5  A    between atoms: O_5  and  C_6
REMARK    6  A    between atoms: C_10  and  C_12
REMARK                            x       y       z     vdW  Elec       q    Type
REMARK                         _______ _______ _______ _____ _____    ______ ____
ROOT
ATOM      1  C   UNL     1       1.948   0.541  -1.298  0.00  0.00    +0.122 A 
ATOM      2  C   UNL     1       2.377   1.308  -0.223  0.00  0.00    +0.046 A 
ATOM      3  C   UNL     1       3.599   1.952  -0.270  0.00  0.00    +0.004 A 
ATOM      4  C   UNL     1       4.402   1.837  -1.386  0.00  0.00    +0.010 A 
ATOM      5  C   UNL     1       3.979   1.068  -2.473  0.00  0.00    +0.002 A 
ATOM      6  C   UNL     1       2.747   0.415  -2.421  0.00  0.00    +0.055 A 
ENDROOT
BRANCH   5   7
ATOM      7  C   UNL     1       4.836   0.944  -3.670  0.00  0.00    +0.053 A 
ATOM      8  C   UNL     1       4.421   0.196  -4.737  0.00  0.00    +0.098 A 
ATOM      9  C   UNL     1       5.242   0.084  -5.871  0.00  0.00    +0.275 A 
ATOM     10  O   UNL     1       4.876  -0.581  -6.824  0.00  0.00    -0.266 OA
ATOM     11  N   UNL     1       6.433   0.711  -5.905  0.00  0.00    -0.180 N 
ATOM     12  C   UNL     1       6.849   1.458  -4.841  0.00  0.00    +0.138 A 
ATOM     13  N   UNL     1       6.049   1.581  -3.720  0.00  0.00    -0.339 N 
ATOM     14  H   UNL     1       6.347   2.116  -2.968  0.00  0.00    +0.167 HD
ATOM     15  C   UNL     1       8.074   1.967  -5.153  0.00  0.00    +0.068 A 
ATOM     16  C   UNL     1       8.410   1.521  -6.433  0.00  0.00    +0.137 A 
ATOM     17  N   UNL     1       7.434   0.772  -6.884  0.00  0.00    -0.170 NA
ENDBRANCH   5   7
BRANCH   1  18
ATOM     18  O   UNL     1       0.745  -0.089  -1.246  0.00  0.00    -0.486 OA
BRANCH  18  20
ATOM     19  C   UNL     1      -0.353   1.448   0.261  0.00  0.00    +0.055 C 
ATOM     20  C   UNL     1       0.023  -0.009  -0.015  0.00  0.00    +0.102 C 
ATOM     21  C   UNL     1       0.898  -0.535   1.124  0.00  0.00    +0.055 C 
ATOM     22  C   UNL     1      -1.248  -0.854  -0.114  0.00  0.00    +0.055 C 
ENDBRANCH  18  20
ENDBRANCH   1  18
TORSDOF 3
