REMARK  Name = ZINC63165597
REMARK  5 active torsions:
REMARK  status: ('A' for Active; 'I' for Inactive)
REMARK    1  A    between atoms: C_4  and  N_10
REMARK    2  A    between atoms: C_5  and  C_7
REMARK    3  A    between atoms: C_11  and  C_13
REMARK    4  A    between atoms: C_13  and  S_14
REMARK    5  A    between atoms: S_14  and  C_15
REMARK                            x       y       z     vdW  Elec       q    Type
REMARK                         _______ _______ _______ _____ _____    ______ ____
ROOT
ATOM      1  N   UNL     1       3.505  -0.531  -0.054  0.00  0.00    -0.284 N 
ATOM      2  C   UNL     1       4.617   0.215  -0.201  0.00  0.00    +0.227 C 
ATOM      3  O   UNL     1       4.537   1.425  -0.217  0.00  0.00    -0.275 OA
ATOM      4  H   UNL     1       3.576  -1.494   0.040  0.00  0.00    +0.155 HD
ENDROOT
BRANCH   1   8
ATOM      5  C   UNL     1      -0.243   1.298  -0.009  0.00  0.00    +0.001 A 
ATOM      6  C   UNL     1       0.825   1.905  -0.651  0.00  0.00    +0.002 A 
ATOM      7  C   UNL     1       2.066   1.302  -0.667  0.00  0.00    +0.024 A 
ATOM      8  C   UNL     1       2.254   0.079  -0.038  0.00  0.00    +0.048 A 
ATOM      9  C   UNL     1       1.175  -0.540   0.614  0.00  0.00    +0.084 A 
ATOM     10  C   UNL     1      -0.077   0.084   0.621  0.00  0.00    +0.017 A 
BRANCH   9  11
ATOM     11  C   UNL     1       1.360  -1.837   1.284  0.00  0.00    +0.388 C 
ATOM     12  O   UNL     1       0.398  -2.418   1.767  0.00  0.00    -0.241 OA
ATOM     13  O   UNL     1       2.475  -2.334   1.358  0.00  0.00    -0.241 OA
ENDBRANCH   9  11
ENDBRANCH   1   8
BRANCH   2  14
ATOM     14  C   UNL     1       5.960  -0.453  -0.344  0.00  0.00    +0.169 C 
BRANCH  14  15
ATOM     15  S   UNL     1       7.248   0.811  -0.523  0.00  0.00    -0.106 S 
BRANCH  15  16
ATOM     16  C   UNL     1       8.782  -0.145  -0.683  0.00  0.00    +0.236 C 
ATOM     17  N   UNL     1       8.681  -1.074  -1.815  0.00  0.00    -0.355 N 
ATOM     18  C   UNL     1       8.810  -2.280  -1.344  0.00  0.00    +0.061 A 
ATOM     19  C   UNL     1       8.798  -3.607  -1.976  0.00  0.00    +0.027 A 
ATOM     20  C   UNL     1       8.960  -4.708  -1.216  0.00  0.00    +0.002 A 
ATOM     21  C   UNL     1       9.144  -4.646   0.177  0.00  0.00    +0.002 A 
ATOM     22  C   UNL     1       9.172  -3.482   0.856  0.00  0.00    +0.027 A 
ATOM     23  C   UNL     1       9.004  -2.216   0.130  0.00  0.00    +0.061 A 
ATOM     24  N   UNL     1       8.988  -0.972   0.513  0.00  0.00    -0.355 N 
ATOM     25  H   UNL     1       8.542  -0.833  -2.745  0.00  0.00    +0.162 HD
ATOM     26  H   UNL     1       9.092  -0.650   1.422  0.00  0.00    +0.162 HD
ENDBRANCH  15  16
ENDBRANCH  14  15
ENDBRANCH   2  14
TORSDOF 5
