REMARK  Name = ZINC36493824
REMARK  13 active torsions:
REMARK  status: ('A' for Active; 'I' for Inactive)
REMARK    1  A    between atoms: C_1  and  C_2
REMARK    2  A    between atoms: C_7  and  C_8
REMARK    3  A    between atoms: C_8  and  C_10
REMARK    4  A    between atoms: C_8  and  N_17
REMARK    5  A    between atoms: N_12  and  C_13
REMARK    6  A    between atoms: C_13  and  C_14
REMARK    7  A    between atoms: C_13  and  C_15
REMARK    8  A    between atoms: C_13  and  C_16
REMARK    9  A    between atoms: N_17  and  C_18
REMARK   10  A    between atoms: C_18  and  C_19
REMARK   11  A    between atoms: C_24  and  C_26
REMARK   12  A    between atoms: C_26  and  C_34
REMARK   13  A    between atoms: C_27  and  C_28
REMARK                            x       y       z     vdW  Elec       q    Type
REMARK                         _______ _______ _______ _____ _____    ______ ____
ROOT
ATOM      1  N   UNL     1       1.587  -0.225   3.691  0.00  0.00    -0.275 N 
ATOM      2  C   UNL     1       2.869  -0.150   4.101  0.00  0.00    +0.248 C 
ATOM      3  O   UNL     1       3.443  -1.150   4.489  0.00  0.00    -0.270 OA
ENDROOT
BRANCH   2   4
ATOM      4  C   UNL     1       3.574   1.142   4.081  0.00  0.00    +0.045 C 
ATOM      5  C   UNL     1       4.048   1.639   2.907  0.00  0.00    +0.021 C 
BRANCH   5   6
ATOM      6  C   UNL     1       4.003   0.818   1.690  0.00  0.00    -0.024 A 
ATOM      7  C   UNL     1       4.220  -0.563   1.764  0.00  0.00    +0.008 A 
ATOM      8  C   UNL     1       4.176  -1.327   0.618  0.00  0.00    +0.001 A 
ATOM      9  C   UNL     1       3.918  -0.732  -0.605  0.00  0.00    +0.000 A 
ATOM     10  C   UNL     1       3.703   0.633  -0.688  0.00  0.00    +0.001 A 
ATOM     11  C   UNL     1       3.737   1.411   0.450  0.00  0.00    +0.008 A 
ENDBRANCH   5   6
BRANCH   4  12
ATOM     12  C   UNL     1       3.768   1.900   5.338  0.00  0.00    -0.013 A 
ATOM     13  C   UNL     1       4.592   1.393   6.342  0.00  0.00    +0.008 A 
ATOM     14  C   UNL     1       4.769   2.104   7.511  0.00  0.00    +0.001 A 
ATOM     15  C   UNL     1       4.130   3.318   7.689  0.00  0.00    +0.000 A 
ATOM     16  C   UNL     1       3.310   3.826   6.697  0.00  0.00    +0.001 A 
ATOM     17  C   UNL     1       3.130   3.128   5.521  0.00  0.00    +0.008 A 
ENDBRANCH   4  12
ENDBRANCH   2   4
BRANCH   1  18
ATOM     18  C   UNL     1       0.932   0.953   3.117  0.00  0.00    +0.193 C 
BRANCH  18  25
ATOM     19  C   UNL     1       0.893   3.175   1.272  0.00  0.00    +0.044 C 
ATOM     20  C   UNL     1       0.640   1.776   0.772  0.00  0.00    -0.045 A 
ATOM     21  C   UNL     1       0.396   1.555  -0.571  0.00  0.00    +0.004 A 
ATOM     22  C   UNL     1       0.164   0.272  -1.029  0.00  0.00    +0.000 A 
ATOM     23  C   UNL     1       0.177  -0.791  -0.145  0.00  0.00    +0.000 A 
ATOM     24  C   UNL     1       0.423  -0.570   1.197  0.00  0.00    +0.006 A 
ATOM     25  C   UNL     1       0.659   0.713   1.655  0.00  0.00    -0.015 A 
ENDBRANCH  18  25
BRANCH  18  26
ATOM     26  C   UNL     1      -0.368   1.204   3.837  0.00  0.00    +0.239 C 
ATOM     27  O   UNL     1      -0.641   0.573   4.836  0.00  0.00    -0.273 OA
ATOM     28  N   UNL     1      -1.229   2.131   3.369  0.00  0.00    -0.309 N 
ATOM     29  H   UNL     1      -1.044   2.586   2.533  0.00  0.00    +0.149 HD
BRANCH  28  30
ATOM     30  C   UNL     1      -2.442   2.450   4.125  0.00  0.00    +0.026 C 
ATOM     31  C   UNL     1      -2.058   2.969   5.512  0.00  0.00    +0.031 C 
ATOM     32  C   UNL     1      -3.238   3.525   3.381  0.00  0.00    +0.031 C 
ATOM     33  C   UNL     1      -3.299   1.191   4.271  0.00  0.00    +0.031 C 
ENDBRANCH  28  30
ENDBRANCH  18  26
ENDBRANCH   1  18
BRANCH   1  34
ATOM     34  C   UNL     1       0.850  -1.484   3.819  0.00  0.00    +0.183 C 
BRANCH  34  35
ATOM     35  C   UNL     1       0.680  -1.821   5.279  0.00  0.00    +0.122 A 
ATOM     36  C   UNL     1      -0.413  -1.570   6.022  0.00  0.00    +0.046 A 
ATOM     37  C   UNL     1      -0.141  -2.048   7.324  0.00  0.00    +0.041 A 
ATOM     38  C   UNL     1       1.102  -2.562   7.299  0.00  0.00    +0.195 A 
ATOM     39  O   UNL     1       1.592  -2.427   6.056  0.00  0.00    -0.466 OA
ENDBRANCH  34  35
ENDBRANCH   1  34
TORSDOF 9
