REMARK  Name = ZINC22756520
REMARK  8 active torsions:
REMARK  status: ('A' for Active; 'I' for Inactive)
REMARK    1  A    between atoms: C_1  and  C_2
REMARK    2  A    between atoms: N_11  and  C_15
REMARK    3  A    between atoms: C_15  and  N_16
REMARK    4  A    between atoms: N_19  and  C_22
REMARK    5  A    between atoms: C_22  and  C_23
REMARK    6  A    between atoms: C_26  and  C_28
REMARK    7  A    between atoms: C_31  and  O_34
REMARK    8  A    between atoms: O_34  and  C_35
REMARK                            x       y       z     vdW  Elec       q    Type
REMARK                         _______ _______ _______ _____ _____    ______ ____
ROOT
ATOM      1  N   UNL     1      -1.641   2.414   1.408  0.00  0.00    -0.290 NA
ATOM      2  C   UNL     1      -2.366   1.267   1.972  0.00  0.00    +0.067 C 
ATOM      3  C   UNL     1      -2.697   1.547   3.440  0.00  0.00    -0.063 C 
ATOM      4  N   UNL     1      -3.502   2.773   3.533  0.00  0.00    +0.385 N 
ATOM      5  C   UNL     1      -2.777   3.920   2.969  0.00  0.00    -0.063 C 
ATOM      6  C   UNL     1      -2.446   3.640   1.501  0.00  0.00    +0.067 C 
ATOM      7  H   UNL     1      -4.416   2.624   2.940  0.00  0.00    -0.081 HD
ENDROOT
BRANCH   1   8
ATOM      8  C   UNL     1      -1.239   2.152   0.020  0.00  0.00    +0.204 C 
BRANCH   8  18
ATOM      9  C   UNL     1       1.508  -0.359   2.479  0.00  0.00    +0.010 C 
ATOM     10  C   UNL     1       1.816  -1.192   1.233  0.00  0.00    +0.018 C 
ATOM     11  C   UNL     1       3.305  -1.546   1.212  0.00  0.00    +0.006 C 
ATOM     12  C   UNL     1       3.616  -2.361  -0.045  0.00  0.00    +0.000 C 
ATOM     13  C   UNL     1       3.281  -1.532  -1.287  0.00  0.00    +0.003 C 
ATOM     14  C   UNL     1       1.792  -1.178  -1.276  0.00  0.00    +0.035 C 
ATOM     15  C   UNL     1       1.464  -0.388  -0.014  0.00  0.00    +0.115 C 
ATOM     16  C   UNL     1       0.002  -0.004   0.002  0.00  0.00    +0.248 C 
ATOM     17  O   UNL     1      -0.953  -0.751   0.007  0.00  0.00    -0.273 OA
ATOM     18  N   UNL     1      -0.016   1.345   0.009  0.00  0.00    -0.211 N 
ATOM     19  C   UNL     1       1.222   1.855   0.000  0.00  0.00    +0.310 C 
ATOM     20  O   UNL     1       1.462   3.046   0.004  0.00  0.00    -0.252 OA
ATOM     21  N   UNL     1       2.171   0.899  -0.014  0.00  0.00    -0.285 N 
ATOM     22  H   UNL     1       3.270   0.923  -0.024  0.00  0.00    +0.151 HD
ENDBRANCH   8  18
ENDBRANCH   1   8
BRANCH   4  23
ATOM     23  C   UNL     1      -3.904   3.035   4.921  0.00  0.00    -0.022 C 
BRANCH  23  24
ATOM     24  C   UNL     1      -4.421   1.764   5.543  0.00  0.00    +0.033 A 
ATOM     25  C   UNL     1      -3.588   0.974   6.270  0.00  0.00    +0.068 A 
ATOM     26  S   UNL     1      -4.706  -0.339   6.743  0.00  0.00    -0.075 S 
ATOM     27  C   UNL     1      -6.156   0.301   5.915  0.00  0.00    +0.108 A 
ATOM     28  N   UNL     1      -5.676   1.414   5.378  0.00  0.00    -0.246 NA
BRANCH  27  29
ATOM     29  C   UNL     1      -7.522  -0.260   5.847  0.00  0.00    +0.007 A 
ATOM     30  C   UNL     1      -8.521   0.414   5.141  0.00  0.00    +0.014 A 
ATOM     31  C   UNL     1      -9.792  -0.115   5.077  0.00  0.00    +0.046 A 
ATOM     32  C   UNL     1     -10.082  -1.311   5.720  0.00  0.00    +0.120 A 
ATOM     33  C   UNL     1      -9.093  -1.981   6.427  0.00  0.00    +0.046 A 
ATOM     34  C   UNL     1      -7.818  -1.462   6.492  0.00  0.00    +0.014 A 
BRANCH  32  35
ATOM     35  O   UNL     1     -11.338  -1.826   5.658  0.00  0.00    -0.495 OA
ATOM     36  C   UNL     1     -12.307  -1.085   4.914  0.00  0.00    +0.277 C 
ENDBRANCH  32  35
ENDBRANCH  27  29
ENDBRANCH  23  24
ENDBRANCH   4  23
TORSDOF 6
