REMARK  Name = ZINC10047878
REMARK  9 active torsions:
REMARK  status: ('A' for Active; 'I' for Inactive)
REMARK    1  A    between atoms: C_1  and  C_2
REMARK    2  A    between atoms: N_4  and  C_25
REMARK    3  A    between atoms: N_13  and  C_18
REMARK    4  A    between atoms: N_16  and  C_17
REMARK    5  A    between atoms: C_18  and  C_19
REMARK    6  A    between atoms: C_19  and  N_60
REMARK    7  A    between atoms: C_25  and  C_26
REMARK    8  A    between atoms: C_26  and  C_27
REMARK    9  A    between atoms: C_26  and  C_28
REMARK                            x       y       z     vdW  Elec       q    Type
REMARK                         _______ _______ _______ _____ _____    ______ ____
ROOT
ATOM      1  C   UNL     1       1.661   7.096  -0.572  0.00  0.00    +0.064 C 
ATOM      2  C   UNL     1       0.926   5.818  -0.259  0.00  0.00    +0.054 C 
ATOM      3  N   UNL     1      -0.343   5.849  -0.243  0.00  0.00    -0.185 NA
ATOM      4  N   UNL     1      -1.130   4.718   0.028  0.00  0.00    -0.192 N 
ATOM      5  C   UNL     1      -0.493   3.492   0.024  0.00  0.00    +0.221 A 
ATOM      6  N   UNL     1      -1.000   2.287   0.019  0.00  0.00    -0.195 NA
ATOM      7  C   UNL     1      -0.017   1.381   0.010  0.00  0.00    +0.170 A 
ATOM      8  C   UNL     1       1.195   2.070   0.002  0.00  0.00    +0.153 A 
ATOM      9  N   UNL     1       0.873   3.410   0.013  0.00  0.00    -0.299 N 
ATOM     10  C   UNL     1       1.743   4.585   0.017  0.00  0.00    +0.177 C 
ATOM     11  C   UNL     1       2.396   1.337  -0.013  0.00  0.00    +0.282 A 
ATOM     12  O   UNL     1       3.469   1.915  -0.020  0.00  0.00    -0.265 OA
ATOM     13  N   UNL     1       2.350  -0.011  -0.020  0.00  0.00    -0.261 N 
ATOM     14  C   UNL     1       1.175  -0.664  -0.013  0.00  0.00    +0.333 A 
ATOM     15  O   UNL     1       1.172  -1.880  -0.020  0.00  0.00    -0.246 OA
ATOM     16  N   UNL     1       0.002  -0.004   0.002  0.00  0.00    -0.280 N 
ATOM     17  C   UNL     1      -1.258  -0.752   0.010  0.00  0.00    +0.155 C 
ENDROOT
BRANCH  13  18
ATOM     18  C   UNL     1       3.600  -0.775  -0.036  0.00  0.00    +0.111 C 
BRANCH  18  19
ATOM     19  C   UNL     1       4.022  -1.034  -1.484  0.00  0.00    -0.057 C 
BRANCH  19  25
ATOM     20  C   UNL     1       6.381  -1.011  -0.943  0.00  0.00    -0.079 C 
ATOM     21  C   UNL     1       7.633  -1.886  -0.840  0.00  0.00    -0.019 C 
ATOM     22  C   UNL     1       8.001  -2.406  -2.232  0.00  0.00    -0.004 C 
ATOM     23  C   UNL     1       6.815  -3.183  -2.809  0.00  0.00    -0.019 C 
ATOM     24  C   UNL     1       5.587  -2.271  -2.855  0.00  0.00    -0.079 C 
ATOM     25  N   UNL     1       5.270  -1.824  -1.482  0.00  0.00    +0.381 N 
ATOM     26  H   UNL     1       5.141  -2.649  -0.884  0.00  0.00    -0.082 HD
ENDBRANCH  19  25
ENDBRANCH  18  19
ENDBRANCH  13  18
BRANCH   4  27
ATOM     27  C   UNL     1      -2.564   4.833   0.304  0.00  0.00    +0.138 C 
BRANCH  27  28
ATOM     28  C   UNL     1      -2.782   5.015   1.807  0.00  0.00    +0.002 C 
ATOM     29  C   UNL     1      -2.176   6.347   2.253  0.00  0.00    +0.009 C 
ATOM     30  C   UNL     1      -4.281   5.010   2.110  0.00  0.00    +0.009 C 
ENDBRANCH  27  28
ENDBRANCH   4  27
TORSDOF 5
