REMARK  Name = ZINC59337010
REMARK  3 active torsions:
REMARK  status: ('A' for Active; 'I' for Inactive)
REMARK    1  A    between atoms: C_4  and  C_7
REMARK    2  A    between atoms: C_12  and  C_13
REMARK    3  A    between atoms: C_17  and  O_19
REMARK                            x       y       z     vdW  Elec       q    Type
REMARK                         _______ _______ _______ _____ _____    ______ ____
ROOT
ATOM      1  C   UNL     1       3.534  -0.812  -0.144  0.00  0.00    +0.402 C 
ATOM      2  O   UNL     1       4.123  -0.510  -1.414  0.00  0.00    -0.417 OA
ATOM      3  C   UNL     1       5.354  -1.051  -1.632  0.00  0.00    +0.349 C 
ATOM      4  O   UNL     1       6.277  -0.410  -2.096  0.00  0.00    -0.245 OA
ATOM      5  C   UNL     1       5.484  -2.487  -1.259  0.00  0.00    +0.143 C 
ATOM      6  C   UNL     1       6.286  -3.372  -1.948  0.00  0.00    +0.030 C 
ATOM      7  C   UNL     1       4.670  -2.883  -0.076  0.00  0.00    +0.349 C 
ATOM      8  O   UNL     1       5.039  -3.725   0.720  0.00  0.00    -0.245 OA
ATOM      9  O   UNL     1       3.481  -2.230   0.047  0.00  0.00    -0.417 OA
ENDROOT
BRANCH   1  13
ATOM     10  C   UNL     1      -0.423   0.789  -0.001  0.00  0.00    +0.000 A 
ATOM     11  C   UNL     1       0.655   1.629  -0.207  0.00  0.00    +0.001 A 
ATOM     12  C   UNL     1       1.936   1.111  -0.253  0.00  0.00    +0.011 A 
ATOM     13  C   UNL     1       2.138  -0.247  -0.093  0.00  0.00    +0.033 A 
ATOM     14  C   UNL     1       1.060  -1.087   0.114  0.00  0.00    +0.011 A 
ATOM     15  C   UNL     1      -0.221  -0.569   0.158  0.00  0.00    +0.001 A 
ENDBRANCH   1  13
BRANCH   6  16
ATOM     16  C   UNL     1       6.235  -4.804  -1.635  0.00  0.00    -0.021 A 
ATOM     17  C   UNL     1       5.037  -5.388  -1.201  0.00  0.00    +0.008 A 
ATOM     18  C   UNL     1       4.995  -6.734  -0.909  0.00  0.00    +0.004 A 
ATOM     19  C   UNL     1       6.131  -7.512  -1.043  0.00  0.00    +0.045 A 
ATOM     20  C   UNL     1       7.324  -6.944  -1.472  0.00  0.00    +0.117 A 
ATOM     21  C   UNL     1       7.381  -5.596  -1.775  0.00  0.00    +0.053 A 
BRANCH  20  22
ATOM     22  O   UNL     1       8.436  -7.716  -1.600  0.00  0.00    -0.507 OA
ATOM     23  H   UNL     1       8.539  -8.115  -2.475  0.00  0.00    +0.292 HD
ENDBRANCH  20  22
ENDBRANCH   6  16
TORSDOF 3
