REMARK  Name = ZINC40135027
REMARK  5 active torsions:
REMARK  status: ('A' for Active; 'I' for Inactive)
REMARK    1  A    between atoms: C_6  and  S_11
REMARK    2  A    between atoms: S_11  and  N_14
REMARK    3  A    between atoms: N_14  and  C_15
REMARK    4  A    between atoms: C_20  and  C_21
REMARK    5  A    between atoms: C_21  and  N_22
REMARK                            x       y       z     vdW  Elec       q    Type
REMARK                         _______ _______ _______ _____ _____    ______ ____
ROOT
ATOM      1  N   UNL     1       5.677  -3.066   1.513  0.00  0.00    -0.216 N 
ATOM      2  H   UNL     1       6.436  -2.582   1.874  0.00  0.00    +0.174 HD
ENDROOT
BRANCH   1   3
ATOM      3  C   UNL     1       4.856  -3.811   2.363  0.00  0.00    +0.053 A 
ATOM      4  C   UNL     1       4.226  -4.957   1.895  0.00  0.00    +0.025 A 
ATOM      5  C   UNL     1       3.415  -5.691   2.738  0.00  0.00    +0.002 A 
ATOM      6  C   UNL     1       3.230  -5.286   4.048  0.00  0.00    +0.000 A 
ATOM      7  C   UNL     1       3.855  -4.145   4.517  0.00  0.00    +0.007 A 
ATOM      8  C   UNL     1       4.672  -3.410   3.680  0.00  0.00    -0.007 A 
BRANCH   8   9
ATOM      9  C   UNL     1       5.358  -2.170   4.194  0.00  0.00    +0.155 C 
BRANCH   9  10
ATOM     10  N   UNL     1       4.609  -0.986   3.768  0.00  0.00    -0.220 N 
ATOM     11  C   UNL     1       4.828  -0.327   2.613  0.00  0.00    +0.240 C 
ATOM     12  O   UNL     1       5.651  -0.593   1.763  0.00  0.00    -0.273 OA
ATOM     13  C   UNL     1       3.832   0.815   2.597  0.00  0.00    +0.202 C 
ATOM     14  N   UNL     1       3.098   0.652   3.864  0.00  0.00    -0.290 N 
ATOM     15  C   UNL     1       3.620  -0.427   4.475  0.00  0.00    +0.309 C 
ATOM     16  O   UNL     1       3.237  -0.846   5.550  0.00  0.00    -0.252 OA
ATOM     17  H   UNL     1       2.378   1.212   4.193  0.00  0.00    +0.151 HD
ENDBRANCH   9  10
ENDBRANCH   8   9
ENDBRANCH   1   3
BRANCH   1  18
ATOM     18  S   UNL     1       5.354  -3.010  -0.110  0.00  0.00    +0.072 S 
ATOM     19  O   UNL     1       5.281  -4.357  -0.556  0.00  0.00    -0.150 OA
ATOM     20  O   UNL     1       6.258  -2.069  -0.672  0.00  0.00    -0.150 OA
BRANCH  18  26
ATOM     21  C   UNL     1      -0.257   0.590  -0.865  0.00  0.00    +0.001 A 
ATOM     22  C   UNL     1       0.848   1.440  -0.847  0.00  0.00    +0.001 A 
ATOM     23  C   UNL     1       2.108   0.948  -0.705  0.00  0.00    +0.008 A 
ATOM     24  C   UNL     1       2.303  -0.438  -0.572  0.00  0.00    -0.016 A 
ATOM     25  C   UNL     1       3.589  -0.984  -0.423  0.00  0.00    +0.037 A 
ATOM     26  C   UNL     1       3.739  -2.330  -0.297  0.00  0.00    +0.109 A 
ATOM     27  C   UNL     1       2.634  -3.180  -0.314  0.00  0.00    +0.029 A 
ATOM     28  C   UNL     1       1.374  -2.688  -0.457  0.00  0.00    +0.010 A 
ATOM     29  C   UNL     1       1.179  -1.302  -0.590  0.00  0.00    -0.018 A 
ATOM     30  C   UNL     1      -0.107  -0.756  -0.739  0.00  0.00    +0.008 A 
ENDBRANCH  18  26
ENDBRANCH   1  18
TORSDOF 5
