REMARK  Name = ZINC21231754
REMARK  11 active torsions:
REMARK  status: ('A' for Active; 'I' for Inactive)
REMARK    1  A    between atoms: C_1  and  C_2
REMARK    2  A    between atoms: C_2  and  C_3
REMARK    3  A    between atoms: C_2  and  C_4
REMARK    4  A    between atoms: C_4  and  C_5
REMARK    5  A    between atoms: C_5  and  N_6
REMARK    6  A    between atoms: C_15  and  S_16
REMARK    7  A    between atoms: S_16  and  C_17
REMARK    8  A    between atoms: C_17  and  C_19
REMARK    9  A    between atoms: C_17  and  C_22
REMARK   10  A    between atoms: C_19  and  C_20
REMARK   11  A    between atoms: C_19  and  C_21
REMARK                            x       y       z     vdW  Elec       q    Type
REMARK                         _______ _______ _______ _____ _____    ______ ____
ROOT
ATOM      1  N   UNL     1      -6.470   1.156  -0.815  0.00  0.00    -0.287 N 
ATOM      2  C   UNL     1      -7.522   0.324  -0.704  0.00  0.00    +0.263 A 
ATOM      3  O   UNL     1      -8.644   0.705  -0.988  0.00  0.00    -0.267 OA
ATOM      4  C   UNL     1      -7.305  -1.014  -0.244  0.00  0.00    +0.076 A 
ATOM      5  C   UNL     1      -8.293  -2.076  -0.045  0.00  0.00    -0.023 A 
ATOM      6  C   UNL     1      -7.834  -3.263   0.401  0.00  0.00    -0.004 A 
ATOM      7  S   UNL     1      -6.085  -3.042   0.582  0.00  0.00    -0.073 S 
ATOM      8  C   UNL     1      -5.974  -1.350   0.055  0.00  0.00    +0.117 A 
ATOM      9  N   UNL     1      -4.978  -0.482  -0.081  0.00  0.00    -0.216 NA
ATOM     10  C   UNL     1      -5.206   0.744  -0.507  0.00  0.00    +0.173 A 
ATOM     11  C   UNL     1      -8.635  -4.498   0.682  0.00  0.00    +0.043 C 
ATOM     12  C   UNL     1     -10.119  -4.110   0.740  0.00  0.00    +0.005 C 
ATOM     13  C   UNL     1     -10.447  -3.237  -0.475  0.00  0.00    +0.005 C 
ATOM     14  C   UNL     1      -9.779  -1.869  -0.326  0.00  0.00    +0.037 C 
ENDROOT
BRANCH   1  15
ATOM     15  C   UNL     1      -6.685   2.528  -1.281  0.00  0.00    +0.127 C 
BRANCH  15  16
ATOM     16  C   UNL     1      -6.568   2.573  -2.806  0.00  0.00    +0.025 C 
BRANCH  16  18
ATOM     17  C   UNL     1      -6.554   4.076  -4.802  0.00  0.00    +0.007 C 
ATOM     18  C   UNL     1      -6.793   4.007  -3.292  0.00  0.00    -0.016 C 
ATOM     19  C   UNL     1      -8.230   4.430  -2.983  0.00  0.00    +0.007 C 
ENDBRANCH  16  18
ENDBRANCH  15  16
ENDBRANCH   1  15
BRANCH  10  20
ATOM     20  S   UNL     1      -3.860   1.869  -0.675  0.00  0.00    -0.075 S 
BRANCH  20  21
ATOM     21  C   UNL     1      -2.521   0.863   0.012  0.00  0.00    +0.143 C 
BRANCH  21  22
ATOM     22  C   UNL     1      -1.203   1.554  -0.221  0.00  0.00    +0.234 C 
ATOM     23  O   UNL     1      -1.166   2.758  -0.361  0.00  0.00    -0.274 OA
ATOM     24  N   UNL     1      -0.065   0.834  -0.274  0.00  0.00    -0.239 N 
ATOM     25  C   UNL     1       1.114   1.452  -0.488  0.00  0.00    +0.303 C 
ATOM     26  O   UNL     1       1.151   2.659  -0.628  0.00  0.00    -0.253 OA
ATOM     27  N   UNL     1       2.252   0.732  -0.546  0.00  0.00    -0.313 N 
ATOM     28  H   UNL     1      -0.097  -0.257  -0.142  0.00  0.00    +0.159 HD
ATOM     29  H   UNL     1       3.214   1.236  -0.721  0.00  0.00    +0.146 HD
ATOM     30  H   UNL     1       2.218  -0.360  -0.419  0.00  0.00    +0.146 HD
ENDBRANCH  21  22
BRANCH  21  31
ATOM     31  C   UNL     1      -2.742   0.678   1.514  0.00  0.00    +0.005 C 
ATOM     32  C   UNL     1      -1.694  -0.290   2.068  0.00  0.00    +0.009 C 
ATOM     33  C   UNL     1      -2.610   2.029   2.219  0.00  0.00    +0.009 C 
ENDBRANCH  21  31
ENDBRANCH  20  21
ENDBRANCH  10  20
TORSDOF 7
