REMARK  Name = ZINC36121295
REMARK  9 active torsions:
REMARK  status: ('A' for Active; 'I' for Inactive)
REMARK    1  A    between atoms: C_6  and  O_7
REMARK    2  A    between atoms: O_7  and  C_8
REMARK    3  A    between atoms: C_8  and  C_9
REMARK    4  A    between atoms: C_19  and  C_21
REMARK    5  A    between atoms: C_21  and  N_22
REMARK    6  A    between atoms: N_22  and  C_23
REMARK    7  A    between atoms: C_23  and  C_24
REMARK    8  A    between atoms: C_24  and  N_25
REMARK    9  A    between atoms: C_30  and  C_32
REMARK                            x       y       z     vdW  Elec       q    Type
REMARK                         _______ _______ _______ _____ _____    ______ ____
ROOT
ATOM      1  C   UNL     1      -3.180  -6.273  -0.589  0.00  0.00    +0.144 C 
ATOM      2  C   UNL     1      -3.972  -5.878  -1.833  0.00  0.00    -0.014 A 
ATOM      3  C   UNL     1      -4.324  -6.783  -2.834  0.00  0.00    +0.013 A 
ATOM      4  C   UNL     1      -5.023  -6.361  -3.912  0.00  0.00    +0.046 A 
ATOM      5  S   UNL     1      -5.228  -4.621  -3.560  0.00  0.00    -0.101 S 
ATOM      6  C   UNL     1      -4.371  -4.589  -2.008  0.00  0.00    -0.004 A 
ATOM      7  C   UNL     1      -4.141  -3.425  -1.099  0.00  0.00    +0.061 C 
ATOM      8  C   UNL     1      -3.030  -3.791  -0.102  0.00  0.00    +0.114 C 
ATOM      9  N   UNL     1      -3.266  -5.164   0.371  0.00  0.00    -0.289 N 
ATOM     10  C   UNL     1      -3.560  -5.402   1.665  0.00  0.00    +0.234 C 
ATOM     11  O   UNL     1      -3.754  -6.537   2.045  0.00  0.00    -0.274 OA
ENDROOT
BRANCH   1  12
ATOM     12  C   UNL     1      -1.717  -6.522  -0.962  0.00  0.00    +0.256 C 
BRANCH  12  13
ATOM     13  O   UNL     1      -1.198  -5.377  -1.641  0.00  0.00    -0.490 OA
BRANCH  13  19
ATOM     14  C   UNL     1       0.667  -4.358  -2.710  0.00  0.00    +0.048 A 
ATOM     15  C   UNL     1       1.986  -4.417  -3.119  0.00  0.00    +0.042 A 
ATOM     16  C   UNL     1       2.739  -5.551  -2.866  0.00  0.00    +0.124 A 
ATOM     17  C   UNL     1       2.173  -6.626  -2.203  0.00  0.00    +0.042 A 
ATOM     18  C   UNL     1       0.855  -6.570  -1.793  0.00  0.00    +0.048 A 
ATOM     19  C   UNL     1       0.099  -5.434  -2.045  0.00  0.00    +0.121 A 
ATOM     20  F   UNL     1       4.028  -5.608  -3.267  0.00  0.00    -0.205 F 
ENDBRANCH  13  19
ENDBRANCH  12  13
ENDBRANCH   1  12
BRANCH  10  21
ATOM     21  C   UNL     1      -3.646  -4.256   2.640  0.00  0.00    +0.203 C 
BRANCH  21  22
ATOM     22  N   UNL     1      -3.975  -4.771   3.972  0.00  0.00    -0.294 N 
ATOM     23  C   UNL     1      -5.263  -4.883   4.351  0.00  0.00    +0.219 C 
ATOM     24  O   UNL     1      -5.535  -5.222   5.484  0.00  0.00    -0.275 OA
BRANCH  23  25
ATOM     25  C   UNL     1      -6.367  -4.587   3.369  0.00  0.00    +0.075 C 
ATOM     26  C   UNL     1      -6.868  -3.140   3.557  0.00  0.00    +0.013 C 
ATOM     27  C   UNL     1      -8.396  -3.233   3.319  0.00  0.00    +0.001 C 
ATOM     28  C   UNL     1      -8.762  -4.587   3.976  0.00  0.00    +0.001 C 
ATOM     29  C   UNL     1      -7.571  -5.507   3.635  0.00  0.00    +0.013 C 
ENDBRANCH  23  25
BRANCH  22  30
ATOM     30  C   UNL     1      -2.904  -5.166   4.890  0.00  0.00    +0.090 C 
BRANCH  30  31
ATOM     31  C   UNL     1      -2.491  -3.962   5.739  0.00  0.00    -0.060 C 
BRANCH  31  32
ATOM     32  N   UNL     1      -1.417  -4.357   6.660  0.00  0.00    +0.381 N 
ATOM     33  C   UNL     1      -0.172  -4.641   5.903  0.00  0.00    -0.079 C 
ATOM     34  C   UNL     1       0.938  -4.478   6.971  0.00  0.00    -0.020 C 
ATOM     35  C   UNL     1       0.430  -3.289   7.818  0.00  0.00    -0.020 C 
ATOM     36  C   UNL     1      -1.089  -3.239   7.571  0.00  0.00    -0.079 C 
ATOM     37  H   UNL     1      -1.696  -5.168   7.192  0.00  0.00    -0.082 HD
ENDBRANCH  31  32
ENDBRANCH  30  31
ENDBRANCH  22  30
ENDBRANCH  21  22
ENDBRANCH  10  21
TORSDOF 9
