REMARK  Name = ZINC08986671
REMARK  4 active torsions:
REMARK  status: ('A' for Active; 'I' for Inactive)
REMARK    1  A    between atoms: C_1  and  C_2
REMARK    2  A    between atoms: C_8  and  N_10
REMARK    3  A    between atoms: C_11  and  C_13
REMARK    4  A    between atoms: C_13  and  N_14
REMARK                            x       y       z     vdW  Elec       q    Type
REMARK                         _______ _______ _______ _____ _____    ______ ____
ROOT
ATOM      1  N   UNL     1       3.627   3.401  -0.270  0.00  0.00    -0.205 N 
ATOM      2  C   UNL     1       2.427   3.935  -0.027  0.00  0.00    +0.264 C 
ATOM      3  O   UNL     1       2.373   5.131   0.184  0.00  0.00    -0.269 OA
ATOM      4  C   UNL     1       1.165   3.179   0.004  0.00  0.00    +0.065 A 
ATOM      5  C   UNL     1      -0.059   3.853   0.027  0.00  0.00    +0.015 A 
ATOM      6  C   UNL     1      -1.238   3.138   0.035  0.00  0.00    +0.001 A 
ATOM      7  C   UNL     1      -1.220   1.754   0.017  0.00  0.00    +0.002 A 
ATOM      8  C   UNL     1      -0.013   1.076   0.008  0.00  0.00    +0.029 A 
ATOM      9  C   UNL     1       1.166   1.781   0.001  0.00  0.00    +0.119 A 
ATOM     10  S   UNL     1       2.725   0.947  -0.003  0.00  0.00    +0.074 S 
ATOM     11  O   UNL     1       3.096   0.753   1.355  0.00  0.00    -0.152 OA
ATOM     12  O   UNL     1       2.622  -0.123  -0.932  0.00  0.00    -0.152 OA
ATOM     13  N   UNL     1       3.789   2.057  -0.647  0.00  0.00    -0.105 NA
ATOM     14  H   UNL     1       4.493   1.785  -1.256  0.00  0.00    +0.172 HD
ENDROOT
BRANCH   1  15
ATOM     15  C   UNL     1       4.816   4.247  -0.140  0.00  0.00    +0.224 C 
BRANCH  15  17
ATOM     16  N   UNL     1       6.083   5.846  -1.539  0.00  0.00    -0.311 N 
ATOM     17  C   UNL     1       5.039   5.000  -1.426  0.00  0.00    +0.232 C 
ATOM     18  O   UNL     1       4.280   4.846  -2.359  0.00  0.00    -0.274 OA
ATOM     19  H   UNL     1       6.690   5.969  -0.793  0.00  0.00    +0.149 HD
BRANCH  16  26
ATOM     20  C   UNL     1       6.293   8.734  -1.527  0.00  0.00    +0.009 C 
ATOM     21  C   UNL     1       7.086   7.859  -2.499  0.00  0.00    +0.006 C 
ATOM     22  C   UNL     1       8.437   7.499  -1.877  0.00  0.00    +0.005 C 
ATOM     23  C   UNL     1       9.229   6.624  -2.850  0.00  0.00    +0.000 C 
ATOM     24  C   UNL     1       8.444   5.343  -3.140  0.00  0.00    +0.002 C 
ATOM     25  C   UNL     1       7.093   5.703  -3.762  0.00  0.00    +0.022 C 
ATOM     26  C   UNL     1       6.300   6.578  -2.789  0.00  0.00    +0.076 C 
ENDBRANCH  16  26
ENDBRANCH  15  17
ENDBRANCH   1  15
TORSDOF 3
