REMARK  Name = ZINC04866501
REMARK  4 active torsions:
REMARK  status: ('A' for Active; 'I' for Inactive)
REMARK    1  A    between atoms: N_13  and  C_16
REMARK    2  A    between atoms: C_16  and  C_17
REMARK    3  A    between atoms: N_19  and  C_20
REMARK    4  A    between atoms: C_21  and  C_29
REMARK                            x       y       z     vdW  Elec       q    Type
REMARK                         _______ _______ _______ _____ _____    ______ ____
ROOT
ATOM      1  C   UNL     1      -2.656   8.626  -3.320  0.00  0.00    +0.213 C 
ENDROOT
BRANCH   1  14
ATOM      2  C   UNL     1      -6.102   8.291  -8.423  0.00  0.00    +0.001 A 
ATOM      3  C   UNL     1      -5.120   8.547  -9.337  0.00  0.00    +0.008 A 
ATOM      4  C   UNL     1      -3.802   8.778  -8.907  0.00  0.00    -0.016 A 
ATOM      5  C   UNL     1      -2.757   9.046  -9.809  0.00  0.00    +0.008 A 
ATOM      6  C   UNL     1      -1.492   9.265  -9.343  0.00  0.00    +0.001 A 
ATOM      7  C   UNL     1      -1.200   9.231  -7.984  0.00  0.00    +0.014 A 
ATOM      8  C   UNL     1      -2.203   8.969  -7.062  0.00  0.00    +0.046 A 
ATOM      9  C   UNL     1      -3.518   8.740  -7.526  0.00  0.00    +0.006 A 
ATOM     10  C   UNL     1      -4.548   8.474  -6.595  0.00  0.00    +0.046 A 
ATOM     11  C   UNL     1      -5.836   8.252  -7.060  0.00  0.00    +0.014 A 
ATOM     12  C   UNL     1      -4.214   8.444  -5.163  0.00  0.00    +0.254 C 
ATOM     13  O   UNL     1      -5.083   8.217  -4.344  0.00  0.00    -0.270 OA
ATOM     14  N   UNL     1      -2.950   8.665  -4.755  0.00  0.00    -0.225 N 
ATOM     15  C   UNL     1      -1.948   8.926  -5.615  0.00  0.00    +0.254 C 
ATOM     16  O   UNL     1      -0.824   9.124  -5.193  0.00  0.00    -0.270 OA
ENDBRANCH   1  14
BRANCH   1  17
ATOM     17  C   UNL     1      -2.281   7.222  -2.922  0.00  0.00    +0.235 C 
ATOM     18  O   UNL     1      -2.261   6.340  -3.754  0.00  0.00    -0.274 OA
ATOM     19  N   UNL     1      -1.967   6.946  -1.640  0.00  0.00    -0.278 N 
ATOM     20  H   UNL     1      -1.983   7.651  -0.974  0.00  0.00    +0.155 HD
BRANCH  19  21
ATOM     21  C   UNL     1      -1.622   5.652  -1.274  0.00  0.00    +0.090 A 
ATOM     22  C   UNL     1      -1.271   5.177  -0.019  0.00  0.00    +0.084 A 
ATOM     23  C   UNL     1      -0.951   3.765   0.100  0.00  0.00    -0.018 A 
ATOM     24  C   UNL     1      -1.032   3.059  -1.049  0.00  0.00    -0.004 A 
ATOM     25  S   UNL     1      -1.524   4.240  -2.272  0.00  0.00    -0.077 S 
ATOM     26  C   UNL     1      -0.761   1.597  -1.232  0.00  0.00    +0.043 C 
ATOM     27  C   UNL     1      -0.013   1.086   0.008  0.00  0.00    +0.005 C 
ATOM     28  C   UNL     1      -0.735   1.583   1.264  0.00  0.00    +0.005 C 
ATOM     29  C   UNL     1      -0.551   3.094   1.407  0.00  0.00    +0.037 C 
BRANCH  22  30
ATOM     30  C   UNL     1      -1.227   6.046   1.118  0.00  0.00    +0.102 C 
ATOM     31  N   UNL     1      -1.192   6.736   2.021  0.00  0.00    -0.191 NA
ENDBRANCH  22  30
ENDBRANCH  19  21
ENDBRANCH   1  17
TORSDOF 4
