REMARK  Name = ZINC12940421
REMARK  5 active torsions:
REMARK  status: ('A' for Active; 'I' for Inactive)
REMARK    1  A    between atoms: C_4  and  N_22
REMARK    2  A    between atoms: C_6  and  C_7
REMARK    3  A    between atoms: N_9  and  C_10
REMARK    4  A    between atoms: C_10  and  C_11
REMARK    5  A    between atoms: C_11  and  N_61
REMARK                            x       y       z     vdW  Elec       q    Type
REMARK                         _______ _______ _______ _____ _____    ______ ____
ROOT
ATOM      1  C   UNL     1       4.223   2.127   0.515  0.00  0.00    +0.244 C 
ATOM      2  O   UNL     1       5.356   1.741   0.726  0.00  0.00    -0.270 OA
ATOM      3  N   UNL     1       4.000   3.416   0.189  0.00  0.00    -0.313 N 
ATOM      4  H   UNL     1       3.096   3.724   0.021  0.00  0.00    +0.149 HD
ENDROOT
BRANCH   1  10
ATOM      5  C   UNL     1       1.787   1.626   0.377  0.00  0.00    +0.014 A 
ATOM      6  C   UNL     1       0.730   0.744   0.474  0.00  0.00    +0.022 A 
ATOM      7  C   UNL     1       0.956  -0.579   0.808  0.00  0.00    +0.062 A 
ATOM      8  C   UNL     1       2.251  -1.028   1.050  0.00  0.00    +0.055 A 
ATOM      9  C   UNL     1       3.318  -0.150   0.956  0.00  0.00    +0.038 A 
ATOM     10  C   UNL     1       3.089   1.184   0.618  0.00  0.00    +0.039 A 
ATOM     11 CL   UNL     1      -0.379  -1.681   0.927  0.00  0.00    -0.082 Cl
BRANCH   8  12
ATOM     12  N   UNL     1       2.474  -2.368   1.389  0.00  0.00    -0.270 N 
ATOM     13  C   UNL     1       2.724  -3.438   0.416  0.00  0.00    +0.114 C 
ATOM     14  C   UNL     1       3.336  -4.600   1.233  0.00  0.00    +0.029 C 
ATOM     15  C   UNL     1       2.765  -4.327   2.643  0.00  0.00    +0.098 C 
ATOM     16  C   UNL     1       2.482  -2.841   2.648  0.00  0.00    +0.220 C 
ATOM     17  O   UNL     1       2.292  -2.173   3.642  0.00  0.00    -0.275 OA
ENDBRANCH   8  12
ENDBRANCH   1  10
BRANCH   3  18
ATOM     18  C   UNL     1       5.124   4.351   0.087  0.00  0.00    +0.092 C 
BRANCH  18  19
ATOM     19  C   UNL     1       4.590   5.767  -0.137  0.00  0.00    -0.050 C 
ATOM     20  C   UNL     1       3.633   5.769  -1.330  0.00  0.00    -0.010 C 
ATOM     21  C   UNL     1       4.377   5.300  -2.582  0.00  0.00    -0.001 C 
ATOM     22  C   UNL     1       5.546   6.246  -2.864  0.00  0.00    -0.000 C 
ATOM     23  C   UNL     1       6.503   6.245  -1.671  0.00  0.00    -0.001 C 
ATOM     24  C   UNL     1       5.759   6.713  -0.419  0.00  0.00    -0.010 C 
BRANCH  19  30
ATOM     25  C   UNL     1       4.756   6.195   2.240  0.00  0.00    -0.078 C 
ATOM     26  C   UNL     1       4.025   6.804   3.439  0.00  0.00    -0.019 C 
ATOM     27  C   UNL     1       2.752   6.000   3.717  0.00  0.00    -0.004 C 
ATOM     28  C   UNL     1       1.875   5.998   2.462  0.00  0.00    -0.019 C 
ATOM     29  C   UNL     1       2.668   5.412   1.292  0.00  0.00    -0.078 C 
ATOM     30  N   UNL     1       3.867   6.245   1.060  0.00  0.00    +0.384 N 
ATOM     31  H   UNL     1       3.573   7.216   0.905  0.00  0.00    -0.081 HD
ENDBRANCH  19  30
ENDBRANCH  18  19
ENDBRANCH   3  18
TORSDOF 5
