REMARK  Name = ZINC39663277
REMARK  6 active torsions:
REMARK  status: ('A' for Active; 'I' for Inactive)
REMARK    1  A    between atoms: C_1  and  C_2
REMARK    2  A    between atoms: C_12  and  O_13
REMARK    3  A    between atoms: O_13  and  C_14
REMARK    4  A    between atoms: C_14  and  C_15
REMARK    5  A    between atoms: C_19  and  C_28
REMARK    6  A    between atoms: N_30  and  C_31
REMARK                            x       y       z     vdW  Elec       q    Type
REMARK                         _______ _______ _______ _____ _____    ______ ____
ROOT
ATOM      1  C   UNL     1       0.136  -6.544   3.322  0.00  0.00    +0.253 C 
ATOM      2  O   UNL     1       0.094  -6.999   2.198  0.00  0.00    -0.272 OA
ATOM      3  N   UNL     1       0.125  -7.372   4.385  0.00  0.00    -0.297 N 
ATOM      4  C   UNL     1       0.163  -7.006   5.821  0.00  0.00    +0.121 C 
ATOM      5  C   UNL     1      -0.808  -7.996   6.502  0.00  0.00    +0.100 C 
ATOM      6  C   UNL     1      -0.862  -9.207   5.554  0.00  0.00    -0.004 C 
ATOM      7  C   UNL     1       0.066  -8.853   4.383  0.00  0.00    +0.115 C 
ATOM      8  C   UNL     1      -2.285  -9.418   5.047  0.00  0.00    -0.010 C 
ATOM      9  C   UNL     1      -2.325 -10.660   4.153  0.00  0.00    -0.082 C 
ATOM     10  N   UNL     1      -1.878 -11.830   4.918  0.00  0.00    +0.379 N 
ATOM     11  C   UNL     1      -0.478 -11.659   5.324  0.00  0.00    -0.082 C 
ATOM     12  C   UNL     1      -0.360 -10.459   6.267  0.00  0.00    -0.010 C 
ATOM     13  H   UNL     1      -2.455 -11.933   5.740  0.00  0.00    -0.086 HD
ATOM     14  H   UNL     1      -1.963 -12.657   4.346  0.00  0.00    -0.086 HD
ENDROOT
BRANCH   5  15
ATOM     15  C   UNL     1      -0.278  -8.407   7.851  0.00  0.00    +0.218 C 
ATOM     16  O   UNL     1       0.918  -8.472   8.039  0.00  0.00    -0.275 OA
ATOM     17  N   UNL     1      -1.134  -8.701   8.850  0.00  0.00    -0.314 N 
ATOM     18  H   UNL     1      -2.091  -8.649   8.700  0.00  0.00    +0.149 HD
BRANCH  17  19
ATOM     19  C   UNL     1      -0.619  -9.100  10.162  0.00  0.00    +0.059 C 
ATOM     20  C   UNL     1      -0.338 -10.604  10.167  0.00  0.00    -0.056 C 
ATOM     21  N   UNL     1      -1.149 -11.263  11.193  0.00  0.00    +0.381 N 
ATOM     22  C   UNL     1      -2.576 -11.085  10.914  0.00  0.00    -0.078 C 
ATOM     23  C   UNL     1      -2.933  -9.597  10.934  0.00  0.00    -0.014 C 
ATOM     24  C   UNL     1      -1.664  -8.786  11.242  0.00  0.00    +0.004 C 
ATOM     25  C   UNL     1      -1.113  -9.248  12.597  0.00  0.00    -0.014 C 
ATOM     26  C   UNL     1      -0.816 -10.750  12.524  0.00  0.00    -0.078 C 
ATOM     27  H   UNL     1      -0.949 -12.252  11.173  0.00  0.00    -0.082 HD
ENDBRANCH  17  19
ENDBRANCH   5  15
BRANCH   1  28
ATOM     28  C   UNL     1       0.200  -5.052   3.528  0.00  0.00    +0.324 C 
BRANCH  28  29
ATOM     29  O   UNL     1       0.200  -4.395   2.259  0.00  0.00    -0.479 OA
BRANCH  29  41
ATOM     30  C   UNL     1       0.377   1.312  -0.203  0.00  0.00    +0.045 C 
ATOM     31  C   UNL     1       0.317  -0.194  -0.179  0.00  0.00    -0.033 A 
ATOM     32  C   UNL     1       0.265  -0.907  -1.332  0.00  0.00    +0.096 A 
ATOM     33  C   UNL     1       0.209  -2.317  -1.283  0.00  0.00    +0.338 A 
ATOM     34  O   UNL     1       0.163  -2.946  -2.324  0.00  0.00    -0.245 OA
ATOM     35  O   UNL     1       0.207  -2.982  -0.117  0.00  0.00    -0.418 OA
ATOM     36  C   UNL     1       0.258  -2.331   1.066  0.00  0.00    +0.181 A 
ATOM     37  C   UNL     1       0.320  -0.928   1.090  0.00  0.00    +0.024 A 
ATOM     38  C   UNL     1       0.377  -0.252   2.313  0.00  0.00    +0.012 A 
ATOM     39  C   UNL     1       0.379  -0.968   3.489  0.00  0.00    +0.004 A 
ATOM     40  C   UNL     1       0.323  -2.353   3.468  0.00  0.00    +0.049 A 
ATOM     41  C   UNL     1       0.255  -3.037   2.267  0.00  0.00    +0.164 A 
ENDBRANCH  29  41
ENDBRANCH  28  29
ENDBRANCH   1  28
TORSDOF 5
