REMARK  Name = ZINC39674825
REMARK  7 active torsions:
REMARK  status: ('A' for Active; 'I' for Inactive)
REMARK    1  A    between atoms: C_1  and  C_2
REMARK    2  A    between atoms: C_4  and  C_14
REMARK    3  A    between atoms: C_7  and  C_12
REMARK    4  A    between atoms: C_14  and  C_15
REMARK    5  A    between atoms: C_15  and  N_16
REMARK    6  A    between atoms: C_17  and  C_19
REMARK    7  A    between atoms: C_30  and  C_32
REMARK                            x       y       z     vdW  Elec       q    Type
REMARK                         _______ _______ _______ _____ _____    ______ ____
ROOT
ATOM      1  C   UNL     1       1.241  -0.175  -7.854  0.00  0.00    +0.100 C 
ATOM      2  C   UNL     1       0.177  -1.294  -7.932  0.00  0.00    +0.121 C 
ATOM      3  N   UNL     1       0.323  -1.854  -9.296  0.00  0.00    -0.300 N 
ATOM      4  C   UNL     1       1.786  -1.872  -9.533  0.00  0.00    +0.115 C 
ATOM      5  C   UNL     1       2.295  -0.559  -8.906  0.00  0.00    -0.004 C 
ATOM      6  C   UNL     1       2.399   0.529  -9.971  0.00  0.00    -0.010 C 
ATOM      7  C   UNL     1       3.493   0.151 -10.974  0.00  0.00    -0.082 C 
ATOM      8  N   UNL     1       4.773   0.002 -10.271  0.00  0.00    +0.379 N 
ATOM      9  C   UNL     1       4.693  -1.107  -9.313  0.00  0.00    -0.082 C 
ATOM     10  C   UNL     1       3.649  -0.783  -8.240  0.00  0.00    -0.010 C 
ATOM     11  C   UNL     1      -0.654  -2.257 -10.132  0.00  0.00    +0.219 C 
ATOM     12  O   UNL     1      -1.817  -2.105  -9.823  0.00  0.00    -0.275 OA
ATOM     13  H   UNL     1       5.503  -0.186 -10.941  0.00  0.00    -0.086 HD
ATOM     14  H   UNL     1       4.986   0.856  -9.777  0.00  0.00    -0.086 HD
ENDROOT
BRANCH  11  15
ATOM     15  C   UNL     1      -0.302  -2.897 -11.450  0.00  0.00    +0.079 C 
ATOM     16  C   UNL     1      -1.454  -2.698 -12.444  0.00  0.00    +0.017 C 
ATOM     17  C   UNL     1      -0.999  -3.197 -13.817  0.00  0.00    +0.027 C 
ATOM     18  C   UNL     1      -0.400  -4.568 -13.697  0.00  0.00    -0.031 C 
ATOM     19  C   UNL     1       0.001  -5.089 -12.582  0.00  0.00    -0.030 C 
ATOM     20  C   UNL     1      -0.083  -4.399 -11.251  0.00  0.00    +0.039 C 
ENDBRANCH  11  15
BRANCH   1  22
ATOM     21  N   UNL     1       2.356   1.022  -5.999  0.00  0.00    -0.315 N 
ATOM     22  C   UNL     1       1.860  -0.135  -6.481  0.00  0.00    +0.218 C 
ATOM     23  O   UNL     1       1.912  -1.143  -5.809  0.00  0.00    -0.275 OA
ATOM     24  H   UNL     1       2.315   1.829  -6.537  0.00  0.00    +0.149 HD
BRANCH  21  25
ATOM     25  C   UNL     1       2.958   1.062  -4.664  0.00  0.00    +0.108 C 
BRANCH  25  26
ATOM     26  C   UNL     1       3.439   2.483  -4.363  0.00  0.00    +0.052 C 
BRANCH  26  29
ATOM     27  C   UNL     1       5.837   4.268  -3.111  0.00  0.00    +0.035 C 
ATOM     28  C   UNL     1       4.659   3.726  -2.299  0.00  0.00    +0.103 C 
ATOM     29  C   UNL     1       4.058   2.523  -2.990  0.00  0.00    -0.037 C 
ATOM     30  C   UNL     1       4.191   1.487  -2.123  0.00  0.00    +0.000 A 
ATOM     31  C   UNL     1       3.816   0.121  -2.216  0.00  0.00    +0.028 A 
ATOM     32  C   UNL     1       4.070  -0.737  -1.171  0.00  0.00    +0.052 A 
ATOM     33  C   UNL     1       4.725  -0.274   0.047  0.00  0.00    +0.021 A 
ATOM     34  C   UNL     1       5.104   1.013   0.191  0.00  0.00    +0.027 A 
ATOM     35  C   UNL     1       4.855   1.970  -0.893  0.00  0.00    +0.043 A 
ATOM     36  N   UNL     1       5.123   3.251  -0.991  0.00  0.00    -0.378 N 
ATOM     37  H   UNL     1       5.555   3.793  -0.313  0.00  0.00    +0.160 HD
BRANCH  32  38
ATOM     38  C   UNL     1       3.685  -2.112  -1.282  0.00  0.00    +0.099 C 
ATOM     39  N   UNL     1       3.379  -3.203  -1.370  0.00  0.00    -0.191 NA
ENDBRANCH  32  38
ENDBRANCH  26  29
ENDBRANCH  25  26
ENDBRANCH  21  25
ENDBRANCH   1  22
TORSDOF 6
