REMARK  Name = ZINC38994475
REMARK  10 active torsions:
REMARK  status: ('A' for Active; 'I' for Inactive)
REMARK    1  A    between atoms: C_1  and  C_2
REMARK    2  A    between atoms: C_2  and  O_3
REMARK    3  A    between atoms: O_3  and  C_4
REMARK    4  A    between atoms: C_7  and  N_10
REMARK    5  A    between atoms: N_10  and  C_11
REMARK    6  A    between atoms: N_10  and  S_26
REMARK    7  A    between atoms: C_11  and  C_12
REMARK    8  A    between atoms: C_17  and  O_24
REMARK    9  A    between atoms: O_24  and  C_25
REMARK   10  A    between atoms: S_26  and  C_29
REMARK                            x       y       z     vdW  Elec       q    Type
REMARK                         _______ _______ _______ _____ _____    ______ ____
ROOT
ATOM      1  C   UNL     1       2.000  -6.510   2.802  0.00  0.00    +0.148 C 
ENDROOT
BRANCH   1   2
ATOM      2  C   UNL     1       1.377  -6.162   4.155  0.00  0.00    +0.118 C 
ATOM      3  C   UNL     1       2.445  -6.336   5.217  0.00  0.00    -0.003 C 
ATOM      4  C   UNL     1       2.184  -7.212   6.229  0.00  0.00    -0.004 A 
ATOM      5  C   UNL     1       3.162  -7.439   7.294  0.00  0.00    +0.055 A 
ATOM      6  C   UNL     1       2.858  -8.323   8.285  0.00  0.00    +0.121 A 
ATOM      7  C   UNL     1       1.638  -9.010   8.298  0.00  0.00    +0.047 A 
ATOM      8  C   UNL     1       0.693  -8.840   7.338  0.00  0.00    +0.027 A 
ATOM      9  C   UNL     1       0.909  -7.949   6.270  0.00  0.00    +0.041 A 
ATOM     10  N   UNL     1      -0.027  -7.792   5.335  0.00  0.00    -0.284 N 
ATOM     11  C   UNL     1       0.110  -6.974   4.306  0.00  0.00    +0.226 C 
ATOM     12  O   UNL     1      -0.780  -6.874   3.483  0.00  0.00    -0.275 OA
ATOM     13  H   UNL     1      -0.848  -8.303   5.412  0.00  0.00    +0.155 HD
BRANCH   6  14
ATOM     14  O   UNL     1       3.758  -8.544   9.280  0.00  0.00    -0.495 OA
ATOM     15  C   UNL     1       3.388  -9.481  10.293  0.00  0.00    +0.277 C 
ENDBRANCH   6  14
ENDBRANCH   1   2
BRANCH   1  16
ATOM     16  N   UNL     1       1.116  -6.053   1.726  0.00  0.00    -0.207 N 
BRANCH  16  20
ATOM     17  C   UNL     1       1.083  -2.034   0.620  0.00  0.00    +0.121 A 
ATOM     18  C   UNL     1       0.702  -3.007  -0.292  0.00  0.00    +0.047 A 
ATOM     19  C   UNL     1       0.713  -4.339   0.074  0.00  0.00    +0.028 A 
ATOM     20  C   UNL     1       1.105  -4.704   1.355  0.00  0.00    +0.051 A 
ATOM     21  C   UNL     1       1.487  -3.729   2.267  0.00  0.00    +0.028 A 
ATOM     22  C   UNL     1       1.481  -2.398   1.898  0.00  0.00    +0.047 A 
BRANCH  17  23
ATOM     23  O   UNL     1       1.072  -0.723   0.260  0.00  0.00    -0.492 OA
BRANCH  23  25
ATOM     24  C   UNL     1       0.704   1.093  -1.292  0.00  0.00    +0.048 C 
ATOM     25  C   UNL     1       0.651  -0.420  -1.072  0.00  0.00    +0.225 C 
ENDBRANCH  23  25
ENDBRANCH  17  23
ENDBRANCH  16  20
BRANCH  16  26
ATOM     26  S   UNL     1       0.130  -7.133   0.950  0.00  0.00    +0.043 S 
ATOM     27  O   UNL     1       0.067  -8.256   1.819  0.00  0.00    -0.155 OA
ATOM     28  O   UNL     1      -1.042  -6.394   0.636  0.00  0.00    -0.155 OA
ATOM     29  C   UNL     1       1.020  -7.569  -0.570  0.00  0.00    +0.218 C 
ENDBRANCH  16  26
ENDBRANCH   1  16
TORSDOF 7
