REMARK  Name = ZINC39035044
REMARK  3 active torsions:
REMARK  status: ('A' for Active; 'I' for Inactive)
REMARK    1  A    between atoms: C_3  and  C_10
REMARK    2  A    between atoms: C_5  and  N_7
REMARK    3  A    between atoms: N_11  and  N_12
REMARK                            x       y       z     vdW  Elec       q    Type
REMARK                         _______ _______ _______ _____ _____    ______ ____
ROOT
ATOM      1  N   UNL     1       4.846   4.169  -0.023  0.00  0.00    -0.206 N 
ATOM      2  C   UNL     1       4.831   5.550  -0.016  0.00  0.00    +0.227 C 
ATOM      3  N   UNL     1       3.668   6.155   0.004  0.00  0.00    -0.220 NA
ATOM      4  C   UNL     1       3.660   7.615  -0.069  0.00  0.00    +0.253 C 
ATOM      5  C   UNL     1       4.971   8.081   0.547  0.00  0.00    +0.115 C 
ATOM      6  C   UNL     1       4.630   9.054   1.438  0.00  0.00    +0.026 A 
ATOM      7  C   UNL     1       5.409   9.931   2.232  0.00  0.00    +0.027 A 
ATOM      8  C   UNL     1       4.743  10.795   3.047  0.00  0.00    +0.019 A 
ATOM      9  C   UNL     1       3.349  10.867   3.145  0.00  0.00    +0.017 A 
ATOM     10  C   UNL     1       2.506  10.080   2.427  0.00  0.00    +0.027 A 
ATOM     11  C   UNL     1       3.138   9.116   1.510  0.00  0.00    +0.046 A 
ATOM     12  N   UNL     1       2.602   8.261   0.694  0.00  0.00    -0.358 N 
ATOM     13 BR   UNL     1       5.768  11.973   4.114  0.00  0.00    -0.050 Br
ATOM     14  N   UNL     1       6.122   7.458   0.280  0.00  0.00    -0.171 NA
ATOM     15  N   UNL     1       6.019   6.201  -0.024  0.00  0.00    -0.247 N 
ATOM     16  H   UNL     1       5.691   3.693  -0.034  0.00  0.00    +0.177 HD
ATOM     17  H   UNL     1       6.820   5.712  -0.270  0.00  0.00    +0.192 HD
ATOM     18  H   UNL     1       1.653   8.082   0.607  0.00  0.00    +0.162 HD
ENDROOT
BRANCH   1  20
ATOM     19  C   UNL     1       3.654   2.158  -0.022  0.00  0.00    +0.138 C 
ATOM     20  N   UNL     1       3.640   3.456  -0.015  0.00  0.00    -0.188 NA
BRANCH  19  23
ATOM     21  C   UNL     1      -0.017   1.379   0.010  0.00  0.00    +0.003 A 
ATOM     22  C   UNL     1       1.167   2.088   0.002  0.00  0.00    +0.009 A 
ATOM     23  C   UNL     1       2.385   1.407  -0.013  0.00  0.00    -0.003 A 
ATOM     24  C   UNL     1       2.397   0.009  -0.021  0.00  0.00    +0.042 A 
ATOM     25  C   UNL     1       1.206  -0.686  -0.013  0.00  0.00    +0.127 A 
ATOM     26  C   UNL     1       0.002  -0.004   0.002  0.00  0.00    +0.033 A 
BRANCH  25  27
ATOM     27  N   UNL     1       1.216  -2.167  -0.021  0.00  0.00    +0.056 N 
ATOM     28  O   UNL     1       2.267  -2.764  -0.035  0.00  0.00    -0.126 OA
ATOM     29  O   UNL     1       0.173  -2.778  -0.015  0.00  0.00    -0.126 OA
ENDBRANCH  25  27
ENDBRANCH  19  23
ENDBRANCH   1  20
TORSDOF 3
