REMARK  Name = ZINC12250140
REMARK  12 active torsions:
REMARK  status: ('A' for Active; 'I' for Inactive)
REMARK    1  A    between atoms: C_1  and  C_2
REMARK    2  A    between atoms: C_3  and  C_24
REMARK    3  A    between atoms: C_4  and  C_19
REMARK    4  A    between atoms: C_6  and  C_17
REMARK    5  A    between atoms: C_7  and  S_9
REMARK    6  A    between atoms: S_9  and  C_10
REMARK    7  A    between atoms: C_10  and  C_11
REMARK    8  A    between atoms: C_11  and  O_13
REMARK    9  A    between atoms: O_13  and  C_14
REMARK   10  A    between atoms: C_14  and  C_15
REMARK   11  A    between atoms: C_14  and  C_16
REMARK   12  A    between atoms: N_26  and  C_27
REMARK                            x       y       z     vdW  Elec       q    Type
REMARK                         _______ _______ _______ _____ _____    ______ ____
ROOT
ATOM      1  C   UNL     1       2.958   2.474   0.686  0.00  0.00    +0.061 C 
ATOM      2  C   UNL     1       3.139   1.083   0.134  0.00  0.00    +0.015 C 
ATOM      3  C   UNL     1       2.067   0.395  -0.289  0.00  0.00    +0.047 C 
ATOM      4  C   UNL     1       2.189  -0.995  -0.845  0.00  0.00    +0.134 C 
ATOM      5  C   UNL     1       3.615  -1.302  -1.206  0.00  0.00    +0.072 C 
ATOM      6  C   UNL     1       4.641  -0.542  -0.738  0.00  0.00    +0.080 C 
ATOM      7  N   UNL     1       4.394   0.539   0.077  0.00  0.00    -0.312 N 
ATOM      8  H   UNL     1       5.207   0.967   0.683  0.00  0.00    +0.152 HD
ENDROOT
BRANCH   4   9
ATOM      9  C   UNL     1       1.330  -1.113  -2.077  0.00  0.00    +0.118 A 
ATOM     10  C   UNL     1       0.347  -2.011  -2.268  0.00  0.00    +0.045 A 
ATOM     11  C   UNL     1      -0.191  -1.764  -3.552  0.00  0.00    +0.041 A 
ATOM     12  C   UNL     1       0.497  -0.730  -4.069  0.00  0.00    +0.195 A 
ATOM     13  O   UNL     1       1.413  -0.336  -3.170  0.00  0.00    -0.467 OA
ENDBRANCH   4   9
BRANCH   3  14
ATOM     14  C   UNL     1       0.788   0.997  -0.214  0.00  0.00    +0.247 C 
ATOM     15  O   UNL     1       0.026   0.697   0.687  0.00  0.00    -0.270 OA
ATOM     16  N   UNL     1       0.414   1.903  -1.139  0.00  0.00    -0.280 N 
ATOM     17  H   UNL     1       1.119   2.206  -1.928  0.00  0.00    +0.155 HD
BRANCH  16  18
ATOM     18  C   UNL     1      -0.870   2.456  -1.098  0.00  0.00    +0.052 A 
ATOM     19  C   UNL     1      -1.552   2.543   0.109  0.00  0.00    +0.026 A 
ATOM     20  C   UNL     1      -2.819   3.090   0.148  0.00  0.00    +0.022 A 
ATOM     21  C   UNL     1      -3.411   3.552  -1.015  0.00  0.00    +0.042 A 
ATOM     22  C   UNL     1      -2.735   3.467  -2.220  0.00  0.00    +0.041 A 
ATOM     23  C   UNL     1      -1.464   2.926  -2.263  0.00  0.00    +0.064 A 
ATOM     24 CL   UNL     1      -0.613   2.826  -3.773  0.00  0.00    -0.082 Cl
ATOM     25 CL   UNL     1      -5.005   4.238  -0.963  0.00  0.00    -0.083 Cl
ENDBRANCH  16  18
ENDBRANCH   3  14
BRANCH   5  26
ATOM     26  C   UNL     1       3.899  -2.417  -2.060  0.00  0.00    +0.098 C 
ATOM     27  N   UNL     1       4.124  -3.300  -2.737  0.00  0.00    -0.191 NA
ENDBRANCH   5  26
BRANCH   6  28
ATOM     28  S   UNL     1       6.299  -0.945  -1.178  0.00  0.00    -0.098 S 
BRANCH  28  29
ATOM     29  C   UNL     1       7.185   0.364  -0.296  0.00  0.00    +0.196 C 
BRANCH  29  30
ATOM     30  C   UNL     1       8.666   0.216  -0.533  0.00  0.00    +0.318 C 
ATOM     31  O   UNL     1       9.080  -0.682  -1.228  0.00  0.00    -0.250 OA
BRANCH  30  32
ATOM     32  O   UNL     1       9.525   1.082   0.027  0.00  0.00    -0.461 OA
BRANCH  32  33
ATOM     33  C   UNL     1      10.937   0.879  -0.245  0.00  0.00    +0.170 C 
ATOM     34  C   UNL     1      11.661   2.227  -0.216  0.00  0.00    +0.052 C 
ATOM     35  C   UNL     1      11.534  -0.043   0.820  0.00  0.00    +0.052 C 
ENDBRANCH  32  33
ENDBRANCH  30  32
ENDBRANCH  29  30
ENDBRANCH  28  29
ENDBRANCH   6  28
TORSDOF 9
