REMARK  Name = ZINC60377272
REMARK  12 active torsions:
REMARK  status: ('A' for Active; 'I' for Inactive)
REMARK    1  A    between atoms: C_1  and  C_2
REMARK    2  A    between atoms: C_2  and  O_3
REMARK    3  A    between atoms: O_3  and  C_4
REMARK    4  A    between atoms: C_7  and  C_10
REMARK    5  A    between atoms: C_12  and  C_15
REMARK    6  A    between atoms: C_15  and  N_16
REMARK    7  A    between atoms: N_16  and  C_17
REMARK    8  A    between atoms: N_16  and  C_18
REMARK    9  A    between atoms: C_18  and  C_20
REMARK   10  A    between atoms: C_18  and  C_21
REMARK   11  A    between atoms: C_25  and  S_27
REMARK   12  A    between atoms: S_27  and  N_30
REMARK                            x       y       z     vdW  Elec       q    Type
REMARK                         _______ _______ _______ _____ _____    ______ ____
ROOT
ATOM      1  N   UNL     1       3.567  -9.289  -3.288  0.00  0.00    +0.388 N 
ATOM      2  C   UNL     1       4.416  -8.103  -3.463  0.00  0.00    -0.095 C 
ATOM      3  H   UNL     1       3.588  -9.577  -2.321  0.00  0.00    -0.081 HD
ENDROOT
BRANCH   1   4
ATOM      4  C   UNL     1       4.068 -10.379  -4.135  0.00  0.00    -0.040 C 
ATOM      5  C   UNL     1       5.505 -10.717  -3.735  0.00  0.00    -0.008 C 
BRANCH   4   6
ATOM      6  C   UNL     1       3.197 -11.596  -3.954  0.00  0.00    -0.059 A 
ATOM      7  C   UNL     1       2.727 -11.929  -2.698  0.00  0.00    +0.002 A 
ATOM      8  C   UNL     1       1.928 -13.044  -2.532  0.00  0.00    +0.002 A 
ATOM      9  C   UNL     1       1.598 -13.827  -3.623  0.00  0.00    +0.028 A 
ATOM     10  C   UNL     1       2.068 -13.493  -4.880  0.00  0.00    +0.105 A 
ATOM     11  C   UNL     1       2.863 -12.375  -5.046  0.00  0.00    +0.030 A 
BRANCH  10  12
ATOM     12  S   UNL     1       1.649 -14.491  -6.271  0.00  0.00    +0.056 S 
ATOM     13  O   UNL     1       2.660 -14.275  -7.245  0.00  0.00    -0.153 OA
ATOM     14  O   UNL     1       1.341 -15.783  -5.765  0.00  0.00    -0.153 OA
BRANCH  12  15
ATOM     15  N   UNL     1       0.244 -13.884  -6.903  0.00  0.00    -0.204 NA
ATOM     16  H   UNL     1       0.065 -13.965  -7.853  0.00  0.00    +0.144 HD
ATOM     17  H   UNL     1      -0.400 -13.447  -6.324  0.00  0.00    +0.144 HD
ENDBRANCH  12  15
ENDBRANCH  10  12
ENDBRANCH   4   6
ENDBRANCH   1   4
BRANCH   1  18
ATOM     18  C   UNL     1       2.187  -8.964  -3.672  0.00  0.00    +0.022 C 
BRANCH  18  21
ATOM     19  C   UNL     1       1.107  -6.019  -1.845  0.00  0.00    +0.202 A 
ATOM     20  N   UNL     1       1.708  -6.640  -2.876  0.00  0.00    -0.193 NA
ATOM     21  C   UNL     1       1.632  -7.932  -2.724  0.00  0.00    +0.211 A 
ATOM     22  O   UNL     1       0.976  -8.188  -1.585  0.00  0.00    -0.340 OA
ATOM     23  N   UNL     1       0.646  -6.928  -1.020  0.00  0.00    -0.056 NA
BRANCH  19  27
ATOM     24  C   UNL     1       0.777  -1.809  -1.336  0.00  0.00    +0.121 A 
ATOM     25  C   UNL     1       0.241  -2.667  -0.384  0.00  0.00    +0.046 A 
ATOM     26  C   UNL     1       0.347  -4.032  -0.546  0.00  0.00    +0.015 A 
ATOM     27  C   UNL     1       0.992  -4.551  -1.668  0.00  0.00    +0.023 A 
ATOM     28  C   UNL     1       1.528  -3.688  -2.622  0.00  0.00    +0.015 A 
ATOM     29  C   UNL     1       1.415  -2.324  -2.457  0.00  0.00    +0.046 A 
BRANCH  24  30
ATOM     30  O   UNL     1       0.671  -0.465  -1.174  0.00  0.00    -0.492 OA
BRANCH  30  32
ATOM     31  C   UNL     1      -0.019   1.526   0.010  0.00  0.00    +0.048 C 
ATOM     32  C   UNL     1       0.002  -0.004   0.002  0.00  0.00    +0.225 C 
ENDBRANCH  30  32
ENDBRANCH  24  30
ENDBRANCH  19  27
ENDBRANCH  18  21
ENDBRANCH   1  18
TORSDOF 9
