REMARK  Name = ZINC01250416
REMARK  12 active torsions:
REMARK  status: ('A' for Active; 'I' for Inactive)
REMARK    1  A    between atoms: C_1  and  C_2
REMARK    2  A    between atoms: C_5  and  N_9
REMARK    3  A    between atoms: C_6  and  C_8
REMARK    4  A    between atoms: C_10  and  C_12
REMARK    5  A    between atoms: C_12  and  S_13
REMARK    6  A    between atoms: S_13  and  C_14
REMARK    7  A    between atoms: C_15  and  C_33
REMARK    8  A    between atoms: C_16  and  C_26
REMARK    9  A    between atoms: C_18  and  C_22
REMARK   10  A    between atoms: C_19  and  C_21
REMARK   11  A    between atoms: C_22  and  O_24
REMARK   12  A    between atoms: O_24  and  C_25
REMARK                            x       y       z     vdW  Elec       q    Type
REMARK                         _______ _______ _______ _____ _____    ______ ____
ROOT
ATOM      1  C   UNL     1       4.374   2.958   1.371  0.00  0.00    +0.080 C 
ATOM      2  C   UNL     1       3.320   2.102   1.450  0.00  0.00    +0.069 C 
ATOM      3  C   UNL     1       2.512   1.747   0.234  0.00  0.00    +0.102 C 
ATOM      4  C   UNL     1       3.245   2.120  -1.022  0.00  0.00    +0.066 C 
ATOM      5  C   UNL     1       4.289   2.966  -1.006  0.00  0.00    +0.016 C 
ATOM      6  N   UNL     1       4.732   3.516   0.164  0.00  0.00    -0.312 N 
ATOM      7  C   UNL     1       4.983   3.313  -2.299  0.00  0.00    +0.061 C 
ATOM      8  H   UNL     1       5.377   4.407   0.140  0.00  0.00    +0.152 HD
ENDROOT
BRANCH   3   9
ATOM      9  C   UNL     1       1.198   2.484   0.279  0.00  0.00    -0.016 A 
ATOM     10  C   UNL     1       1.180   3.866   0.275  0.00  0.00    +0.006 A 
ATOM     11  C   UNL     1      -0.025   4.542   0.316  0.00  0.00    +0.000 A 
ATOM     12  C   UNL     1      -1.213   3.836   0.360  0.00  0.00    +0.001 A 
ATOM     13  C   UNL     1      -1.196   2.454   0.358  0.00  0.00    +0.020 A 
ATOM     14  C   UNL     1       0.010   1.777   0.324  0.00  0.00    +0.045 A 
ATOM     15 CL   UNL     1       0.032   0.041   0.329  0.00  0.00    -0.083 Cl
ENDBRANCH   3   9
BRANCH   4  16
ATOM     16  C   UNL     1       2.826   1.567  -2.254  0.00  0.00    +0.337 C 
ATOM     17  O   UNL     1       3.158   0.436  -2.557  0.00  0.00    -0.245 OA
BRANCH  16  18
ATOM     18  O   UNL     1       2.058   2.293  -3.093  0.00  0.00    -0.465 OA
ATOM     19  C   UNL     1       1.672   1.672  -4.321  0.00  0.00    +0.280 C 
ENDBRANCH  16  18
ENDBRANCH   4  16
BRANCH   2  20
ATOM     20  C   UNL     1       2.973   1.529   2.716  0.00  0.00    +0.098 C 
ATOM     21  N   UNL     1       2.699   1.075   3.720  0.00  0.00    -0.191 NA
ENDBRANCH   2  20
BRANCH   1  22
ATOM     22  S   UNL     1       5.288   3.355   2.824  0.00  0.00    -0.100 S 
BRANCH  22  23
ATOM     23  C   UNL     1       6.514   4.488   2.124  0.00  0.00    +0.171 C 
BRANCH  23  25
ATOM     24  N   UNL     1       8.431   5.830   2.928  0.00  0.00    -0.285 N 
ATOM     25  C   UNL     1       7.433   4.971   3.217  0.00  0.00    +0.227 C 
ATOM     26  O   UNL     1       7.274   4.587   4.356  0.00  0.00    -0.275 OA
ATOM     27  H   UNL     1       8.530   6.235   1.910  0.00  0.00    +0.155 HD
BRANCH  24  32
ATOM     28  C   UNL     1      12.120   7.352   6.959  0.00  0.00    +0.044 C 
ATOM     29  C   UNL     1      11.140   6.948   5.888  0.00  0.00    -0.050 A 
ATOM     30  C   UNL     1       9.818   6.709   6.217  0.00  0.00    +0.005 A 
ATOM     31  C   UNL     1       8.916   6.344   5.237  0.00  0.00    +0.024 A 
ATOM     32  C   UNL     1       9.341   6.205   3.922  0.00  0.00    +0.036 A 
ATOM     33  C   UNL     1      10.668   6.446   3.595  0.00  0.00    -0.029 A 
ATOM     34  C   UNL     1      11.564   6.817   4.579  0.00  0.00    +0.008 A 
ATOM     35  C   UNL     1      11.132   6.302   2.168  0.00  0.00    +0.045 C 
ENDBRANCH  24  32
ENDBRANCH  23  25
ENDBRANCH  22  23
ENDBRANCH   1  22
TORSDOF 8
