REMARK  Name = ZINC09223055
REMARK  5 active torsions:
REMARK  status: ('A' for Active; 'I' for Inactive)
REMARK    1  A    between atoms: C_1  and  C_2
REMARK    2  A    between atoms: C_5  and  N_8
REMARK    3  A    between atoms: C_11  and  C_16
REMARK    4  A    between atoms: C_16  and  N_53
REMARK    5  A    between atoms: C_20  and  C_22
REMARK                            x       y       z     vdW  Elec       q    Type
REMARK                         _______ _______ _______ _____ _____    ______ ____
ROOT
ATOM      1  N   UNL     1       2.292   4.213   0.003  0.00  0.00    -0.284 N 
ATOM      2  C   UNL     1       1.110   3.520   0.179  0.00  0.00    +0.224 A 
ATOM      3  N   UNL     1       1.108   2.189   0.163  0.00  0.00    -0.201 NA
ATOM      4  C   UNL     1      -0.022   1.526   0.332  0.00  0.00    +0.120 A 
ATOM      5  N   UNL     1      -1.156   2.181   0.513  0.00  0.00    -0.202 NA
ATOM      6  C   UNL     1      -1.161   3.512   0.535  0.00  0.00    +0.217 A 
ATOM      7  N   UNL     1      -0.027   4.182   0.365  0.00  0.00    -0.181 NA
ATOM      8  N   UNL     1      -2.345   4.195   0.728  0.00  0.00    -0.327 N 
ATOM      9  H   UNL     1       3.132   3.731  -0.053  0.00  0.00    +0.155 HD
ATOM     10  H   UNL     1      -2.349   5.165   0.741  0.00  0.00    +0.145 HD
ATOM     11  H   UNL     1      -3.173   3.705   0.852  0.00  0.00    +0.145 HD
ENDROOT
BRANCH   1  16
ATOM     12  C   UNL     1       2.235   9.870  -0.397  0.00  0.00    +0.044 C 
ATOM     13  C   UNL     1       2.250   8.367  -0.291  0.00  0.00    -0.050 A 
ATOM     14  C   UNL     1       3.324   7.728   0.300  0.00  0.00    +0.005 A 
ATOM     15  C   UNL     1       3.341   6.351   0.400  0.00  0.00    +0.023 A 
ATOM     16  C   UNL     1       2.278   5.607  -0.096  0.00  0.00    +0.034 A 
ATOM     17  C   UNL     1       1.203   6.252  -0.694  0.00  0.00    +0.023 A 
ATOM     18  C   UNL     1       1.190   7.630  -0.785  0.00  0.00    +0.005 A 
ENDBRANCH   1  16
BRANCH   4  19
ATOM     19  C   UNL     1      -0.020   0.019   0.313  0.00  0.00    -0.000 C 
BRANCH  19  24
ATOM     20  C   UNL     1      -0.980  -0.230   2.527  0.00  0.00    -0.077 C 
ATOM     21  C   UNL     1      -1.447  -1.591   3.085  0.00  0.00    -0.020 C 
ATOM     22  C   UNL     1      -0.173  -2.469   2.976  0.00  0.00    -0.010 C 
ATOM     23  C   UNL     1       0.459  -1.942   1.663  0.00  0.00    -0.011 C 
ATOM     24  N   UNL     1       0.204  -0.488   1.692  0.00  0.00    +0.390 N 
ATOM     25  H   UNL     1       1.017  -0.009   2.097  0.00  0.00    -0.080 HD
BRANCH  23  26
ATOM     26  C   UNL     1       1.942  -2.207   1.652  0.00  0.00    +0.066 A 
ATOM     27  N   UNL     1       2.870  -1.638   2.369  0.00  0.00    -0.246 NA
ATOM     28  C   UNL     1       4.173  -1.973   2.265  0.00  0.00    +0.078 A 
ATOM     29  C   UNL     1       5.284  -1.457   2.969  0.00  0.00    +0.029 A 
ATOM     30  C   UNL     1       6.540  -1.919   2.721  0.00  0.00    +0.002 A 
ATOM     31  C   UNL     1       6.778  -2.907   1.776  0.00  0.00    +0.001 A 
ATOM     32  C   UNL     1       5.718  -3.438   1.067  0.00  0.00    +0.017 A 
ATOM     33  C   UNL     1       4.446  -2.978   1.310  0.00  0.00    +0.039 A 
ATOM     34  S   UNL     1       2.828  -3.337   0.676  0.00  0.00    -0.074 S 
ENDBRANCH  23  26
ENDBRANCH  19  24
ENDBRANCH   4  19
TORSDOF 4
