REMARK  Name = ZINC37933958
REMARK  6 active torsions:
REMARK  status: ('A' for Active; 'I' for Inactive)
REMARK    1  A    between atoms: C_1  and  C_2
REMARK    2  A    between atoms: N_5  and  C_11
REMARK    3  A    between atoms: C_7  and  C_10
REMARK    4  A    between atoms: C_13  and  N_21
REMARK    5  A    between atoms: C_15  and  S_17
REMARK    6  A    between atoms: S_17  and  N_20
REMARK                            x       y       z     vdW  Elec       q    Type
REMARK                         _______ _______ _______ _____ _____    ______ ____
ROOT
ATOM      1  C   UNL     1      -2.094  -2.848  -0.656  0.00  0.00    +0.033 A 
ATOM      2  C   UNL     1      -1.959  -4.224  -0.530  0.00  0.00    +0.046 A 
ATOM      3  C   UNL     1      -2.661  -5.067  -1.379  0.00  0.00    +0.028 A 
ATOM      4  C   UNL     1      -3.497  -4.533  -2.353  0.00  0.00    +0.051 A 
ATOM      5  C   UNL     1      -3.629  -3.163  -2.476  0.00  0.00    +0.108 A 
ATOM      6  C   UNL     1      -2.935  -2.321  -1.628  0.00  0.00    +0.051 A 
ENDROOT
BRANCH   1  10
ATOM      7  C   UNL     1       0.008   1.515  -0.001  0.00  0.00    +0.039 C 
ATOM      8  C   UNL     1       0.018  -0.015   0.000  0.00  0.00    +0.133 C 
ATOM      9  C   UNL     1      -1.424  -0.536   0.006  0.00  0.00    +0.136 C 
ATOM     10  N   UNL     1      -1.389  -1.995   0.196  0.00  0.00    -0.325 N 
ATOM     11  C   UNL     1      -0.590  -2.529   1.310  0.00  0.00    +0.136 C 
ATOM     12  C   UNL     1       0.811  -1.911   1.241  0.00  0.00    +0.133 C 
ATOM     13  O   UNL     1       0.695  -0.488   1.167  0.00  0.00    -0.371 OA
ATOM     14  C   UNL     1       1.537  -2.430  -0.002  0.00  0.00    +0.039 C 
ENDBRANCH   1  10
BRANCH   5  15
ATOM     15  S   UNL     1      -4.689  -2.490  -3.711  0.00  0.00    +0.056 S 
ATOM     16  O   UNL     1      -4.219  -1.175  -3.977  0.00  0.00    -0.153 OA
ATOM     17  O   UNL     1      -4.807  -3.477  -4.727  0.00  0.00    -0.153 OA
BRANCH  15  18
ATOM     18  N   UNL     1      -6.191  -2.328  -3.032  0.00  0.00    -0.204 NA
ATOM     19  H   UNL     1      -6.337  -2.591  -2.110  0.00  0.00    +0.144 HD
ATOM     20  H   UNL     1      -6.924  -1.969  -3.556  0.00  0.00    +0.144 HD
ENDBRANCH  15  18
ENDBRANCH   5  15
BRANCH   3  21
ATOM     21  N   UNL     1      -2.527  -6.452  -1.256  0.00  0.00    -0.358 N 
ATOM     22  H   UNL     1      -1.944  -6.825  -0.577  0.00  0.00    +0.142 HD
ATOM     23  H   UNL     1      -3.018  -7.042  -1.850  0.00  0.00    +0.142 HD
ENDBRANCH   3  21
TORSDOF 4
