REMARK  Name = ZINC04168429
REMARK  10 active torsions:
REMARK  status: ('A' for Active; 'I' for Inactive)
REMARK    1  A    between atoms: C_1  and  C_2
REMARK    2  A    between atoms: C_5  and  C_30
REMARK    3  A    between atoms: C_9  and  C_13
REMARK    4  A    between atoms: C_15  and  C_28
REMARK    5  A    between atoms: C_16  and  N_27
REMARK    6  A    between atoms: C_18  and  C_26
REMARK    7  A    between atoms: C_19  and  C_20
REMARK    8  A    between atoms: C_20  and  O_22
REMARK    9  A    between atoms: O_22  and  C_23
REMARK   10  A    between atoms: C_23  and  C_24
REMARK                            x       y       z     vdW  Elec       q    Type
REMARK                         _______ _______ _______ _____ _____    ______ ____
ROOT
ATOM      1  C   UNL     1       3.495   6.119   0.004  0.00  0.00    +0.107 C 
ATOM      2  C   UNL     1       4.318   5.803   1.224  0.00  0.00    +0.098 C 
ATOM      3  C   UNL     1       5.428   5.033   1.129  0.00  0.00    +0.198 C 
ATOM      4  O   UNL     1       5.839   4.522  -0.045  0.00  0.00    -0.445 OA
ATOM      5  C   UNL     1       5.391   5.060  -1.188  0.00  0.00    +0.115 C 
ATOM      6  C   UNL     1       4.291   5.823  -1.237  0.00  0.00    +0.087 C 
ATOM      7  C   UNL     1       6.150   4.797  -2.463  0.00  0.00    +0.087 C 
ENDROOT
BRANCH   1  16
ATOM      8  C   UNL     1       2.475   1.023  -0.017  0.00  0.00    +0.044 C 
ATOM      9  C   UNL     1       1.163   1.764   0.000  0.00  0.00    -0.041 A 
ATOM     10  C   UNL     1      -0.013   1.076   0.008  0.00  0.00    +0.004 A 
ATOM     11  C   UNL     1      -1.233   1.747   0.017  0.00  0.00    +0.006 A 
ATOM     12  C   UNL     1      -1.287   3.107   0.031  0.00  0.00    -0.024 A 
ATOM     13  C   UNL     1      -0.096   3.852   0.024  0.00  0.00    +0.076 A 
ATOM     14  C   UNL     1       1.145   3.167   0.008  0.00  0.00    +0.004 A 
ATOM     15  C   UNL     1       2.338   3.916   0.001  0.00  0.00    +0.017 A 
ATOM     16  C   UNL     1       2.245   5.277   0.011  0.00  0.00    +0.003 A 
ATOM     17  C   UNL     1       0.991   5.889   0.026  0.00  0.00    +0.134 A 
ATOM     18  N   UNL     1      -0.118   5.189   0.032  0.00  0.00    -0.235 NA
ATOM     19 CL   UNL     1       0.896   7.623   0.038  0.00  0.00    -0.062 Cl
ATOM     20  C   UNL     1      -2.619   3.811   0.047  0.00  0.00    +0.046 C 
ENDBRANCH   1  16
BRANCH   3  21
ATOM     21  N   UNL     1       6.155   4.767   2.263  0.00  0.00    -0.328 N 
ATOM     22  H   UNL     1       5.871   5.128   3.117  0.00  0.00    +0.145 HD
ATOM     23  H   UNL     1       6.952   4.217   2.210  0.00  0.00    +0.145 HD
ENDBRANCH   3  21
BRANCH   6  24
ATOM     24  C   UNL     1       3.870   6.359  -2.479  0.00  0.00    +0.340 C 
ATOM     25  O   UNL     1       4.506   6.126  -3.489  0.00  0.00    -0.245 OA
BRANCH  24  26
ATOM     26  O   UNL     1       2.764   7.129  -2.541  0.00  0.00    -0.457 OA
BRANCH  26  27
ATOM     27  C   UNL     1       2.398   7.637  -3.826  0.00  0.00    +0.259 C 
BRANCH  27  28
ATOM     28  C   UNL     1       1.147   8.467  -3.700  0.00  0.00    +0.006 C 
ATOM     29  C   UNL     1       1.068   9.628  -4.303  0.00  0.00    +0.007 C 
ENDBRANCH  27  28
ENDBRANCH  26  27
ENDBRANCH  24  26
ENDBRANCH   6  24
BRANCH   2  30
ATOM     30  C   UNL     1       3.922   6.321   2.499  0.00  0.00    +0.101 C 
ATOM     31  N   UNL     1       3.608   6.732   3.511  0.00  0.00    -0.191 NA
ENDBRANCH   2  30
TORSDOF 7
