REMARK  Name = ZINC03870752
REMARK  5 active torsions:
REMARK  status: ('A' for Active; 'I' for Inactive)
REMARK    1  A    between atoms: C_1  and  O_2
REMARK    2  A    between atoms: O_2  and  C_3
REMARK    3  A    between atoms: C_7  and  N_9
REMARK    4  A    between atoms: C_14  and  S_20
REMARK    5  A    between atoms: S_20  and  N_23
REMARK                            x       y       z     vdW  Elec       q    Type
REMARK                         _______ _______ _______ _____ _____    ______ ____
ROOT
ATOM      1  N   UNL     1      -0.074   5.242   0.029  0.00  0.00    -0.178 N 
ATOM      2  C   UNL     1       1.029   5.981  -0.385  0.00  0.00    +0.101 C 
ATOM      3  C   UNL     1       1.003   7.190  -0.922  0.00  0.00    +0.027 C 
ATOM      4  C   UNL     1      -0.257   7.964  -1.111  0.00  0.00    +0.012 A 
ATOM      5  C   UNL     1      -0.413   9.134  -1.862  0.00  0.00    +0.046 A 
ATOM      6  C   UNL     1      -1.625   9.730  -1.944  0.00  0.00    +0.145 A 
ATOM      7  S   UNL     1      -2.647   8.661  -0.937  0.00  0.00    -0.048 S 
ATOM      8  C   UNL     1      -1.399   7.512  -0.479  0.00  0.00    +0.155 A 
ATOM      9  S   UNL     1      -1.434   6.084   0.530  0.00  0.00    +0.085 S 
ATOM     10  O   UNL     1      -2.569   5.320   0.145  0.00  0.00    -0.149 OA
ATOM     11  O   UNL     1      -1.200   6.508   1.866  0.00  0.00    -0.149 OA
ENDROOT
BRANCH   1  16
ATOM     12  C   UNL     1      -0.269   1.756   1.183  0.00  0.00    +0.122 A 
ATOM     13  C   UNL     1      -0.003   1.076   0.002  0.00  0.00    +0.046 A 
ATOM     14  C   UNL     1       0.243   1.779  -1.162  0.00  0.00    +0.005 A 
ATOM     15  C   UNL     1       0.215   3.160  -1.157  0.00  0.00    +0.025 A 
ATOM     16  C   UNL     1      -0.051   3.846   0.022  0.00  0.00    +0.060 A 
ATOM     17  C   UNL     1      -0.293   3.141   1.194  0.00  0.00    +0.070 A 
BRANCH  12  19
ATOM     18  C   UNL     1      -0.464  -0.363   2.243  0.00  0.00    +0.277 C 
ATOM     19  O   UNL     1      -0.505   1.062   2.328  0.00  0.00    -0.495 OA
ENDBRANCH  12  19
ENDBRANCH   1  16
BRANCH   6  20
ATOM     20  S   UNL     1      -2.082  11.190  -2.820  0.00  0.00    +0.062 S 
ATOM     21  O   UNL     1      -3.239  11.704  -2.177  0.00  0.00    -0.153 OA
ATOM     22  O   UNL     1      -0.895  11.955  -2.980  0.00  0.00    -0.153 OA
BRANCH  20  23
ATOM     23  N   UNL     1      -2.551  10.723  -4.338  0.00  0.00    -0.203 NA
ATOM     24  H   UNL     1      -3.217  11.238  -4.819  0.00  0.00    +0.144 HD
ATOM     25  H   UNL     1      -2.160   9.934  -4.746  0.00  0.00    +0.144 HD
ENDBRANCH  20  23
ENDBRANCH   6  20
TORSDOF 4
