REMARK  Name = ZINC39981010
REMARK  7 active torsions:
REMARK  status: ('A' for Active; 'I' for Inactive)
REMARK    1  A    between atoms: C_1  and  C_2
REMARK    2  A    between atoms: C_14  and  S_16
REMARK    3  A    between atoms: S_16  and  C_17
REMARK    4  A    between atoms: C_17  and  C_18
REMARK    5  A    between atoms: N_20  and  C_21
REMARK    6  A    between atoms: C_21  and  C_22
REMARK    7  A    between atoms: C_21  and  C_28
REMARK                            x       y       z     vdW  Elec       q    Type
REMARK                         _______ _______ _______ _____ _____    ______ ____
ROOT
ATOM      1  C   UNL     1       2.877  -7.257   2.824  0.00  0.00    +0.173 C 
ENDROOT
BRANCH   1   2
ATOM      2  C   UNL     1       3.887  -8.252   3.334  0.00  0.00    +0.224 C 
ATOM      3  O   UNL     1       4.348  -8.131   4.449  0.00  0.00    -0.275 OA
ATOM      4  N   UNL     1       4.279  -9.277   2.551  0.00  0.00    -0.304 N 
ATOM      5  H   UNL     1       3.910  -9.373   1.659  0.00  0.00    +0.150 HD
BRANCH   4   6
ATOM      6  C   UNL     1       5.261 -10.244   3.046  0.00  0.00    +0.134 C 
BRANCH   6   7
ATOM      7  C   UNL     1       5.087 -11.553   2.321  0.00  0.00    -0.023 A 
ATOM      8  C   UNL     1       4.822 -11.562   0.964  0.00  0.00    +0.006 A 
ATOM      9  C   UNL     1       4.662 -12.763   0.298  0.00  0.00    +0.000 A 
ATOM     10  C   UNL     1       4.768 -13.955   0.990  0.00  0.00    +0.000 A 
ATOM     11  C   UNL     1       5.033 -13.947   2.346  0.00  0.00    +0.000 A 
ATOM     12  C   UNL     1       5.197 -12.746   3.011  0.00  0.00    +0.006 A 
ENDBRANCH   6   7
BRANCH   6  13
ATOM     13  C   UNL     1       6.652  -9.716   2.804  0.00  0.00    -0.023 A 
ATOM     14  C   UNL     1       6.945  -9.057   1.625  0.00  0.00    +0.006 A 
ATOM     15  C   UNL     1       8.221  -8.573   1.403  0.00  0.00    +0.000 A 
ATOM     16  C   UNL     1       9.203  -8.748   2.360  0.00  0.00    +0.000 A 
ATOM     17  C   UNL     1       8.909  -9.407   3.539  0.00  0.00    +0.000 A 
ATOM     18  C   UNL     1       7.633  -9.887   3.763  0.00  0.00    +0.006 A 
ENDBRANCH   6  13
ENDBRANCH   4   6
ENDBRANCH   1   2
BRANCH   1  19
ATOM     19  S   UNL     1       2.560  -6.009   4.102  0.00  0.00    -0.075 S 
BRANCH  19  32
ATOM     20  C   UNL     1      -0.018   1.503   0.010  0.00  0.00    +0.044 C 
ATOM     21  C   UNL     1       0.002  -0.004   0.002  0.00  0.00    -0.050 A 
ATOM     22  C   UNL     1       0.005  -0.672  -1.230  0.00  0.00    +0.005 A 
ATOM     23  C   UNL     1       0.017  -2.022  -1.308  0.00  0.00    +0.026 A 
ATOM     24  C   UNL     1       0.028  -2.812  -0.071  0.00  0.00    +0.046 A 
ATOM     25  N   UNL     1       0.072  -4.106   0.139  0.00  0.00    -0.358 N 
ATOM     26  C   UNL     1      -0.066  -4.355   1.565  0.00  0.00    +0.252 C 
ATOM     27  C   UNL     1       0.065  -2.998   2.235  0.00  0.00    +0.117 C 
ATOM     28  C   UNL     1       0.036  -2.075   1.218  0.00  0.00    +0.025 A 
ATOM     29  C   UNL     1       0.022  -0.662   1.184  0.00  0.00    +0.015 A 
ATOM     30  N   UNL     1       0.302  -2.882   3.544  0.00  0.00    -0.147 NA
ATOM     31  N   UNL     1       0.931  -3.879   4.089  0.00  0.00    -0.122 NA
ATOM     32  C   UNL     1       1.375  -4.934   3.363  0.00  0.00    +0.208 C 
ATOM     33  N   UNL     1       0.972  -5.206   2.143  0.00  0.00    -0.227 NA
ATOM     34  H   UNL     1       0.179  -4.786  -0.544  0.00  0.00    +0.162 HD
ENDBRANCH  19  32
ENDBRANCH   1  19
TORSDOF 6
