REMARK  Name = ZINC27750454
REMARK  3 active torsions:
REMARK  status: ('A' for Active; 'I' for Inactive)
REMARK    1  A    between atoms: C_1  and  C_2
REMARK    2  A    between atoms: C_8  and  N_11
REMARK    3  A    between atoms: C_12  and  C_14
REMARK                            x       y       z     vdW  Elec       q    Type
REMARK                         _______ _______ _______ _____ _____    ______ ____
ROOT
ATOM      1  N   UNL     1      -3.635   1.621   0.028  0.00  0.00    -0.247 N 
ATOM      2  C   UNL     1      -2.452   0.977   0.019  0.00  0.00    +0.286 C 
ATOM      3  O   UNL     1      -2.421  -0.237   0.012  0.00  0.00    -0.266 OA
ATOM      4  H   UNL     1      -3.663   2.721   0.034  0.00  0.00    +0.158 HD
ENDROOT
BRANCH   2   5
ATOM      5  C   UNL     1      -1.188   1.750   0.017  0.00  0.00    +0.194 A 
ATOM      6  C   UNL     1      -0.013   1.076   0.008  0.00  0.00    +0.103 A 
ATOM      7  C   UNL     1       1.243   1.842   0.000  0.00  0.00    +0.193 A 
ATOM      8  O   UNL     1       2.328   1.288  -0.014  0.00  0.00    -0.287 OA
ATOM      9  C   UNL     1       1.125   3.312   0.009  0.00  0.00    +0.064 A 
ATOM     10  C   UNL     1       2.254   4.130   0.002  0.00  0.00    +0.015 A 
ATOM     11  C   UNL     1       2.106   5.490   0.011  0.00  0.00    +0.001 A 
ATOM     12  C   UNL     1       0.839   6.058   0.026  0.00  0.00    +0.004 A 
ATOM     13  C   UNL     1      -0.288   5.265   0.033  0.00  0.00    +0.047 A 
ATOM     14  C   UNL     1      -0.161   3.880   0.025  0.00  0.00    +0.139 A 
ATOM     15  O   UNL     1      -1.252   3.089   0.030  0.00  0.00    -0.450 OA
ENDBRANCH   2   5
BRANCH   1  22
ATOM     16  C   UNL     1      -8.678   4.157   0.256  0.00  0.00    +0.008 C 
ATOM     17  C   UNL     1      -8.061   2.774   0.469  0.00  0.00    -0.009 C 
ATOM     18  C   UNL     1      -8.816   1.746  -0.376  0.00  0.00    +0.010 C 
ATOM     19  C   UNL     1      -8.409   0.325   0.037  0.00  0.00    +0.059 C 
ATOM     20  C   UNL     1      -6.905   0.250   0.035  0.00  0.00    +0.089 A 
ATOM     21  C   UNL     1      -6.074   1.393   0.038  0.00  0.00    +0.037 A 
ATOM     22  C   UNL     1      -4.817   0.899   0.029  0.00  0.00    +0.228 A 
ATOM     23  O   UNL     1      -4.950  -0.443   0.017  0.00  0.00    -0.339 OA
ATOM     24  N   UNL     1      -6.118  -0.776   0.027  0.00  0.00    -0.081 NA
ATOM     25  C   UNL     1      -6.583   2.805   0.052  0.00  0.00    +0.045 C 
ENDBRANCH   1  22
TORSDOF 2
