REMARK  Name = ZINC58847955
REMARK  6 active torsions:
REMARK  status: ('A' for Active; 'I' for Inactive)
REMARK    1  A    between atoms: C_1  and  C_2
REMARK    2  A    between atoms: C_3  and  N_9
REMARK    3  A    between atoms: N_9  and  S_10
REMARK    4  A    between atoms: S_10  and  C_13
REMARK    5  A    between atoms: C_26  and  C_29
REMARK    6  A    between atoms: C_34  and  N_35
REMARK                            x       y       z     vdW  Elec       q    Type
REMARK                         _______ _______ _______ _____ _____    ______ ____
ROOT
ATOM      1  C   UNL     1      -2.837  -1.792  -2.948  0.00  0.00    +0.109 A 
ATOM      2  C   UNL     1      -3.693  -2.659  -2.295  0.00  0.00    +0.030 A 
ATOM      3  C   UNL     1      -5.033  -2.348  -2.186  0.00  0.00    +0.025 A 
ATOM      4  C   UNL     1      -5.521  -1.164  -2.730  0.00  0.00    +0.031 A 
ATOM      5  C   UNL     1      -4.662  -0.287  -3.374  0.00  0.00    -0.018 A 
ATOM      6  C   UNL     1      -3.317  -0.612  -3.480  0.00  0.00    +0.034 A 
ATOM      7  C   UNL     1      -5.140   1.010  -3.935  0.00  0.00    +0.049 C 
ATOM      8  C   UNL     1      -5.271   0.966  -5.436  0.00  0.00    -0.023 C 
ATOM      9  C   UNL     1      -6.303   1.673  -5.821  0.00  0.00    -0.030 C 
ATOM     10  C   UNL     1      -7.013   2.286  -4.634  0.00  0.00    +0.033 C 
ATOM     11  C   UNL     1      -6.515   1.448  -3.433  0.00  0.00    +0.029 C 
ATOM     12  C   UNL     1      -7.482   0.302  -3.223  0.00  0.00    +0.107 C 
ATOM     13  N   UNL     1      -6.876  -0.872  -2.630  0.00  0.00    -0.336 N 
ATOM     14  H   UNL     1      -7.448  -1.498  -2.158  0.00  0.00    +0.147 HD
ENDROOT
BRANCH  12  15
ATOM     15  C   UNL     1      -8.092  -0.059  -4.553  0.00  0.00    +0.003 A 
ATOM     16  C   UNL     1      -7.497  -1.021  -5.348  0.00  0.00    +0.008 A 
ATOM     17  C   UNL     1      -8.056  -1.352  -6.567  0.00  0.00    +0.000 A 
ATOM     18  C   UNL     1      -9.212  -0.723  -6.992  0.00  0.00    +0.002 A 
ATOM     19  C   UNL     1      -9.808   0.237  -6.196  0.00  0.00    +0.033 A 
ATOM     20  C   UNL     1      -9.250   0.566  -4.974  0.00  0.00    +0.131 A 
BRANCH  20  21
ATOM     21  N   UNL     1      -9.891   1.591  -4.120  0.00  0.00    +0.057 N 
ATOM     22  O   UNL     1     -10.861   2.191  -4.521  0.00  0.00    -0.126 OA
ATOM     23  O   UNL     1      -9.444   1.828  -3.022  0.00  0.00    -0.126 OA
ENDBRANCH  20  21
ENDBRANCH  12  15
BRANCH   1  24
ATOM     24  S   UNL     1      -1.127  -2.191  -3.097  0.00  0.00    +0.072 S 
ATOM     25  O   UNL     1      -0.639  -1.473  -4.221  0.00  0.00    -0.150 OA
ATOM     26  O   UNL     1      -1.030  -3.605  -2.994  0.00  0.00    -0.150 OA
BRANCH  24  27
ATOM     27  N   UNL     1      -0.362  -1.566  -1.768  0.00  0.00    -0.216 N 
ATOM     28  H   UNL     1       0.342  -0.908  -1.878  0.00  0.00    +0.174 HD
BRANCH  27  31
ATOM     29  C   UNL     1      -0.310   0.345   0.339  0.00  0.00    +0.047 C 
ATOM     30  C   UNL     1      -0.720  -1.087   0.570  0.00  0.00    -0.010 A 
ATOM     31  C   UNL     1      -0.730  -1.986  -0.488  0.00  0.00    +0.052 A 
ATOM     32  C   UNL     1      -1.108  -3.305  -0.270  0.00  0.00    +0.025 A 
ATOM     33  C   UNL     1      -1.473  -3.718   0.997  0.00  0.00    +0.003 A 
ATOM     34  C   UNL     1      -1.462  -2.821   2.048  0.00  0.00    +0.020 A 
ATOM     35  C   UNL     1      -1.080  -1.507   1.837  0.00  0.00    +0.046 A 
ATOM     36 CL   UNL     1      -1.060  -0.386   3.162  0.00  0.00    -0.083 Cl
ENDBRANCH  27  31
ENDBRANCH  24  27
ENDBRANCH   1  24
TORSDOF 5
