REMARK  Name = ZINC33269429
REMARK  14 active torsions:
REMARK  status: ('A' for Active; 'I' for Inactive)
REMARK    1  A    between atoms: C_1  and  C_2
REMARK    2  A    between atoms: C_6  and  N_8
REMARK    3  A    between atoms: N_11  and  C_16
REMARK    4  A    between atoms: C_13  and  C_15
REMARK    5  A    between atoms: C_16  and  C_17
REMARK    6  A    between atoms: C_17  and  C_18
REMARK    7  A    between atoms: C_18  and  N_19
REMARK    8  A    between atoms: C_20  and  C_22
REMARK    9  A    between atoms: C_22  and  N_23
REMARK   10  A    between atoms: N_23  and  C_24
REMARK   11  A    between atoms: N_23  and  S_30
REMARK   12  A    between atoms: S_30  and  N_33
REMARK   13  A    between atoms: N_33  and  C_34
REMARK   14  A    between atoms: N_33  and  C_35
REMARK                            x       y       z     vdW  Elec       q    Type
REMARK                         _______ _______ _______ _____ _____    ______ ____
ROOT
ATOM      1  C   UNL     1       3.782  -2.767  -4.403  0.00  0.00    +0.102 C 
ENDROOT
BRANCH   1   2
ATOM      2  N   UNL     1       3.774  -2.914  -2.946  0.00  0.00    -0.314 N 
ATOM      3  C   UNL     1       3.706  -1.822  -2.159  0.00  0.00    +0.232 C 
ATOM      4  O   UNL     1       3.652  -0.717  -2.657  0.00  0.00    -0.274 OA
ATOM      5  H   UNL     1       3.822  -3.915  -2.493  0.00  0.00    +0.149 HD
BRANCH   3   6
ATOM      6  C   UNL     1       3.698  -1.972  -0.659  0.00  0.00    +0.228 C 
BRANCH   6   7
ATOM      7  N   UNL     1       3.620  -0.649  -0.036  0.00  0.00    -0.184 N 
BRANCH   7   8
ATOM      8  C   UNL     1       2.378  -0.038   0.153  0.00  0.00    +0.053 A 
ATOM      9  C   UNL     1       1.415  -0.649   0.946  0.00  0.00    +0.025 A 
ATOM     10  C   UNL     1       0.188  -0.041   1.130  0.00  0.00    +0.002 A 
ATOM     11  C   UNL     1      -0.082   1.173   0.527  0.00  0.00    +0.000 A 
ATOM     12  C   UNL     1       0.875   1.784  -0.263  0.00  0.00    +0.002 A 
ATOM     13  C   UNL     1       2.104   1.182  -0.452  0.00  0.00    +0.025 A 
ENDBRANCH   7   8
BRANCH   7  14
ATOM     14  S   UNL     1       5.004   0.122   0.446  0.00  0.00    +0.114 S 
ATOM     15  O   UNL     1       6.053  -0.379  -0.371  0.00  0.00    -0.138 OA
ATOM     16  O   UNL     1       4.692   1.506   0.521  0.00  0.00    -0.138 OA
BRANCH  14  17
ATOM     17  N   UNL     1       5.329  -0.375   1.992  0.00  0.00    -0.170 NA
ATOM     18  C   UNL     1       6.272  -1.471   2.225  0.00  0.00    +0.132 C 
ATOM     19  C   UNL     1       4.673   0.281   3.125  0.00  0.00    +0.132 C 
ENDBRANCH  14  17
ENDBRANCH   7  14
ENDBRANCH   6   7
ENDBRANCH   3   6
ENDBRANCH   1   2
BRANCH   1  20
ATOM     20  C   UNL     1       3.863  -4.149  -5.054  0.00  0.00    +0.000 C 
BRANCH  20  21
ATOM     21  C   UNL     1       3.872  -3.996  -6.577  0.00  0.00    -0.077 C 
BRANCH  21  25
ATOM     22  N   UNL     1       3.132  -7.391  -8.979  0.00  0.00    -0.331 N 
ATOM     23  C   UNL     1       2.887  -7.503  -7.535  0.00  0.00    +0.087 C 
ATOM     24  C   UNL     1       2.733  -6.103  -6.936  0.00  0.00    -0.060 C 
ATOM     25  N   UNL     1       3.950  -5.323  -7.202  0.00  0.00    +0.382 N 
ATOM     26  C   UNL     1       4.195  -5.211  -8.646  0.00  0.00    -0.056 C 
ATOM     27  C   UNL     1       4.349  -6.611  -9.245  0.00  0.00    +0.054 C 
ATOM     28  C   UNL     1       4.564  -6.499 -10.756  0.00  0.00    +0.026 C 
ATOM     29  H   UNL     1       4.801  -5.857  -6.753  0.00  0.00    -0.082 HD
BRANCH  22  35
ATOM     30  C   UNL     1       5.185 -11.851  -9.194  0.00  0.00    +0.044 C 
ATOM     31  C   UNL     1       4.192 -10.835  -9.699  0.00  0.00    -0.049 A 
ATOM     32  C   UNL     1       3.355 -11.152 -10.753  0.00  0.00    +0.003 A 
ATOM     33  C   UNL     1       2.443 -10.222 -11.219  0.00  0.00    +0.002 A 
ATOM     34  C   UNL     1       2.367  -8.974 -10.633  0.00  0.00    +0.023 A 
ATOM     35  C   UNL     1       3.207  -8.653  -9.574  0.00  0.00    +0.030 A 
ATOM     36  C   UNL     1       4.125  -9.587  -9.111  0.00  0.00    +0.026 A 
ENDBRANCH  22  35
ENDBRANCH  21  25
ENDBRANCH  20  21
ENDBRANCH   1  20
TORSDOF 10
