REMARK  Name = ZINC35642209
REMARK  10 active torsions:
REMARK  status: ('A' for Active; 'I' for Inactive)
REMARK    1  A    between atoms: C_1  and  C_2
REMARK    2  A    between atoms: C_2  and  O_3
REMARK    3  A    between atoms: O_3  and  C_4
REMARK    4  A    between atoms: C_4  and  C_6
REMARK    5  A    between atoms: C_7  and  C_22
REMARK    6  A    between atoms: N_8  and  C_21
REMARK    7  A    between atoms: C_12  and  C_14
REMARK    8  A    between atoms: C_22  and  N_23
REMARK    9  A    between atoms: C_27  and  C_30
REMARK   10  A    between atoms: C_31  and  C_33
REMARK                            x       y       z     vdW  Elec       q    Type
REMARK                         _______ _______ _______ _____ _____    ______ ____
ROOT
ATOM      1  C   UNL     1       1.883  -2.600  -2.706  0.00  0.00    +0.080 C 
ATOM      2  C   UNL     1       1.983  -3.937  -2.873  0.00  0.00    +0.041 C 
ATOM      3  N   UNL     1       2.459  -4.468  -4.038  0.00  0.00    -0.260 N 
ATOM      4  C   UNL     1       2.856  -3.730  -5.082  0.00  0.00    +0.307 C 
ATOM      5  O   UNL     1       3.266  -4.294  -6.078  0.00  0.00    -0.252 OA
ATOM      6  N   UNL     1       2.817  -2.383  -5.066  0.00  0.00    -0.288 N 
ATOM      7  C   UNL     1       2.313  -1.712  -3.856  0.00  0.00    +0.144 C 
ATOM      8  C   UNL     1       2.539  -5.926  -4.151  0.00  0.00    +0.139 C 
ATOM      9  H   UNL     1       3.110  -1.868  -5.833  0.00  0.00    +0.151 HD
ENDROOT
BRANCH   7  10
ATOM     10  C   UNL     1       1.134  -0.859  -4.249  0.00  0.00    -0.021 A 
ATOM     11  C   UNL     1       0.133  -1.387  -5.043  0.00  0.00    +0.006 A 
ATOM     12  C   UNL     1      -0.948  -0.605  -5.404  0.00  0.00    +0.002 A 
ATOM     13  C   UNL     1      -1.030   0.705  -4.971  0.00  0.00    +0.020 A 
ATOM     14  C   UNL     1      -0.029   1.234  -4.176  0.00  0.00    +0.041 A 
ATOM     15  C   UNL     1       1.051   0.449  -3.810  0.00  0.00    +0.025 A 
ATOM     16 CL   UNL     1      -0.130   2.879  -3.632  0.00  0.00    -0.084 Cl
ENDBRANCH   7  10
BRANCH   1  17
ATOM     17  C   UNL     1       1.390  -2.049  -1.500  0.00  0.00    +0.339 C 
ATOM     18  O   UNL     1       0.254  -1.617  -1.449  0.00  0.00    -0.245 OA
BRANCH  17  19
ATOM     19  O   UNL     1       2.180  -2.002  -0.407  0.00  0.00    -0.462 OA
BRANCH  19  21
ATOM     20  C   UNL     1       2.653  -1.465   1.901  0.00  0.00    +0.048 C 
ATOM     21  C   UNL     1       1.617  -1.432   0.776  0.00  0.00    +0.229 C 
ENDBRANCH  19  21
ENDBRANCH  17  19
ENDBRANCH   1  17
BRANCH   2  22
ATOM     22  C   UNL     1       1.562  -4.857  -1.757  0.00  0.00    +0.136 C 
BRANCH  22  23
ATOM     23  N   UNL     1       0.414  -5.663  -2.193  0.00  0.00    -0.294 NA
ATOM     24  C   UNL     1      -0.766  -4.818  -2.423  0.00  0.00    +0.104 C 
ATOM     25  C   UNL     1      -1.881  -5.664  -3.047  0.00  0.00    +0.123 C 
ATOM     26  N   UNL     1      -2.114  -6.836  -2.190  0.00  0.00    -0.296 N 
ATOM     27  C   UNL     1      -0.955  -7.656  -1.803  0.00  0.00    +0.087 C 
ATOM     28  C   UNL     1       0.124  -6.732  -1.228  0.00  0.00    +0.107 C 
ATOM     29  C   UNL     1      -1.379  -8.678  -0.746  0.00  0.00    +0.029 C 
ATOM     30  C   UNL     1      -3.355  -7.152  -1.771  0.00  0.00    +0.219 C 
ATOM     31  O   UNL     1      -3.519  -8.074  -1.000  0.00  0.00    -0.275 OA
BRANCH  30  32
ATOM     32  C   UNL     1      -4.540  -6.360  -2.261  0.00  0.00    +0.075 C 
ATOM     33  C   UNL     1      -4.771  -5.053  -1.483  0.00  0.00    +0.013 C 
ATOM     34  C   UNL     1      -6.275  -5.363  -1.565  0.00  0.00    +0.001 C 
ATOM     35  C   UNL     1      -5.883  -6.845  -1.691  0.00  0.00    +0.013 C 
ENDBRANCH  30  32
ENDBRANCH  22  23
ENDBRANCH   2  22
TORSDOF 7
