REMARK  Name = ZINC09293221
REMARK  8 active torsions:
REMARK  status: ('A' for Active; 'I' for Inactive)
REMARK    1  A    between atoms: C_1  and  C_2
REMARK    2  A    between atoms: C_5  and  S_8
REMARK    3  A    between atoms: S_8  and  N_11
REMARK    4  A    between atoms: N_11  and  C_12
REMARK    5  A    between atoms: C_15  and  C_18
REMARK    6  A    between atoms: C_24  and  C_26
REMARK    7  A    between atoms: C_31  and  S_32
REMARK    8  A    between atoms: S_32  and  C_35
REMARK                            x       y       z     vdW  Elec       q    Type
REMARK                         _______ _______ _______ _____ _____    ______ ____
ROOT
ATOM      1  C   UNL     1       4.665   4.666  -0.762  0.00  0.00    +0.252 C 
ATOM      2  O   UNL     1       4.642   5.662  -1.459  0.00  0.00    -0.270 OA
ATOM      3  N   UNL     1       5.815   4.283  -0.172  0.00  0.00    -0.234 N 
ATOM      4  C   UNL     1       6.970   5.024  -0.361  0.00  0.00    +0.315 A 
ATOM      5  N   UNL     1       7.086   6.109  -1.089  0.00  0.00    -0.092 NA
ATOM      6  N   UNL     1       8.299   6.533  -1.036  0.00  0.00    -0.106 NA
ATOM      7  C   UNL     1       9.008   5.730  -0.279  0.00  0.00    +0.252 A 
ATOM      8  O   UNL     1       8.181   4.758   0.164  0.00  0.00    -0.405 OA
ATOM      9  H   UNL     1       5.834   3.489   0.384  0.00  0.00    +0.160 HD
ENDROOT
BRANCH   1  13
ATOM     10  C   UNL     1       1.125   2.395  -0.184  0.00  0.00    +0.048 A 
ATOM     11  C   UNL     1       2.311   2.002   0.430  0.00  0.00    +0.025 A 
ATOM     12  C   UNL     1       3.461   2.732   0.241  0.00  0.00    +0.015 A 
ATOM     13  C   UNL     1       3.436   3.878  -0.561  0.00  0.00    +0.037 A 
ATOM     14  C   UNL     1       2.242   4.274  -1.171  0.00  0.00    +0.015 A 
ATOM     15  C   UNL     1       1.096   3.535  -0.982  0.00  0.00    +0.025 A 
BRANCH  10  16
ATOM     16  N   UNL     1      -0.035   1.651   0.005  0.00  0.00    -0.216 N 
ATOM     17  H   UNL     1      -0.873   2.100   0.198  0.00  0.00    +0.174 HD
BRANCH  16  18
ATOM     18  S   UNL     1       0.014  -0.000  -0.105  0.00  0.00    +0.072 S 
ATOM     19  O   UNL     1       1.067  -0.433   0.745  0.00  0.00    -0.150 OA
ATOM     20  O   UNL     1      -1.323  -0.457   0.046  0.00  0.00    -0.150 OA
BRANCH  18  25
ATOM     21  C   UNL     1       1.677  -1.364  -5.742  0.00  0.00    +0.044 C 
ATOM     22  C   UNL     1       1.261  -1.024  -4.334  0.00  0.00    -0.050 A 
ATOM     23  C   UNL     1       2.208  -0.968  -3.329  0.00  0.00    +0.005 A 
ATOM     24  C   UNL     1       1.827  -0.656  -2.037  0.00  0.00    +0.029 A 
ATOM     25  C   UNL     1       0.500  -0.398  -1.751  0.00  0.00    +0.109 A 
ATOM     26  C   UNL     1      -0.448  -0.459  -2.756  0.00  0.00    +0.029 A 
ATOM     27  C   UNL     1      -0.066  -0.767  -4.048  0.00  0.00    +0.005 A 
ENDBRANCH  18  25
ENDBRANCH  16  18
ENDBRANCH  10  16
ENDBRANCH   1  13
BRANCH   7  28
ATOM     28  C   UNL     1      10.446   5.865   0.033  0.00  0.00    +0.063 A 
ATOM     29  C   UNL     1      11.073   4.934   0.864  0.00  0.00    +0.015 A 
ATOM     30  C   UNL     1      12.417   5.063   1.148  0.00  0.00    +0.001 A 
ATOM     31  C   UNL     1      13.141   6.117   0.619  0.00  0.00    +0.002 A 
ATOM     32  C   UNL     1      12.524   7.045  -0.201  0.00  0.00    +0.028 A 
ATOM     33  C   UNL     1      11.182   6.926  -0.497  0.00  0.00    +0.100 A 
BRANCH  33  34
ATOM     34  S   UNL     1      10.399   8.110  -1.540  0.00  0.00    -0.005 S 
ATOM     35  O   UNL     1       9.247   8.524  -0.818  0.00  0.00    -0.170 OA
ATOM     36  O   UNL     1      11.423   9.039  -1.867  0.00  0.00    -0.170 OA
ATOM     37  C   UNL     1       9.907   7.177  -3.017  0.00  0.00    +0.200 C 
ENDBRANCH  33  34
ENDBRANCH   7  28
TORSDOF 6
