REMARK  Name = ZINC08624731
REMARK  10 active torsions:
REMARK  status: ('A' for Active; 'I' for Inactive)
REMARK    1  A    between atoms: C_1  and  C_2
REMARK    2  A    between atoms: C_2  and  C_3
REMARK    3  A    between atoms: C_3  and  C_4
REMARK    4  A    between atoms: C_3  and  C_5
REMARK    5  A    between atoms: C_3  and  N_6
REMARK    6  A    between atoms: C_7  and  C_11
REMARK    7  A    between atoms: C_11  and  C_13
REMARK    8  A    between atoms: C_11  and  N_56
REMARK    9  A    between atoms: C_19  and  C_24
REMARK   10  A    between atoms: C_22  and  O_23
REMARK                            x       y       z     vdW  Elec       q    Type
REMARK                         _______ _______ _______ _____ _____    ______ ____
ROOT
ATOM      1  C   UNL     1       6.105   4.234   0.083  0.00  0.00    +0.039 C 
ENDROOT
BRANCH   1   2
ATOM      2  C   UNL     1       4.928   3.351   0.409  0.00  0.00    +0.008 A 
ATOM      3  C   UNL     1       5.115   2.019   0.634  0.00  0.00    +0.017 A 
ATOM      4  C   UNL     1       3.988   1.229   0.936  0.00  0.00    +0.001 A 
ATOM      5  C   UNL     1       4.108  -0.148   1.180  0.00  0.00    +0.010 A 
ATOM      6  C   UNL     1       2.996  -0.880   1.469  0.00  0.00    +0.001 A 
ATOM      7  C   UNL     1       1.740  -0.279   1.525  0.00  0.00    +0.005 A 
ATOM      8  C   UNL     1       1.589   1.053   1.294  0.00  0.00    -0.024 A 
ATOM      9  C   UNL     1       2.713   1.842   0.993  0.00  0.00    +0.078 A 
ATOM     10  N   UNL     1       2.592   3.154   0.761  0.00  0.00    -0.213 NA
ATOM     11  C   UNL     1       3.641   3.896   0.479  0.00  0.00    +0.215 A 
ATOM     12  C   UNL     1       0.219   1.680   1.354  0.00  0.00    +0.046 C 
BRANCH  11  13
ATOM     13  O   UNL     1       3.471   5.222   0.251  0.00  0.00    -0.492 OA
ATOM     14  H   UNL     1       3.461   5.761   1.054  0.00  0.00    +0.294 HD
ENDBRANCH  11  13
ENDBRANCH   1   2
BRANCH   1  19
ATOM     15  C   UNL     1       8.363   4.199  -0.828  0.00  0.00    -0.077 C 
ATOM     16  C   UNL     1       9.630   3.347  -0.568  0.00  0.00    -0.020 C 
ATOM     17  C   UNL     1       9.381   2.781   0.849  0.00  0.00    -0.020 C 
ATOM     18  C   UNL     1       7.855   2.852   1.048  0.00  0.00    -0.077 C 
ATOM     19  N   UNL     1       7.307   3.392  -0.197  0.00  0.00    +0.389 N 
ATOM     20  H   UNL     1       7.040   2.621  -0.821  0.00  0.00    -0.080 HD
ENDBRANCH   1  19
BRANCH   1  22
ATOM     21  N   UNL     1       5.425   4.627  -2.343  0.00  0.00    -0.225 N 
ATOM     22  C   UNL     1       5.783   5.074  -1.125  0.00  0.00    +0.143 A 
ATOM     23  N   UNL     1       5.792   6.383  -1.193  0.00  0.00    -0.115 NA
ATOM     24  N   UNL     1       5.465   6.722  -2.392  0.00  0.00    -0.023 NA
ATOM     25  N   UNL     1       5.239   5.663  -3.089  0.00  0.00    -0.043 NA
BRANCH  21  26
ATOM     26  C   UNL     1       5.275   3.227  -2.747  0.00  0.00    +0.061 C 
ATOM     27  C   UNL     1       6.365   2.385  -2.081  0.00  0.00    +0.036 C 
ATOM     28  C   UNL     1       3.900   2.716  -2.313  0.00  0.00    +0.036 C 
BRANCH  26  30
ATOM     29  C   UNL     1       5.247   1.655  -4.688  0.00  0.00    +0.006 C 
ATOM     30  C   UNL     1       5.403   3.117  -4.267  0.00  0.00    +0.026 C 
ENDBRANCH  26  30
ENDBRANCH  21  26
ENDBRANCH   1  22
TORSDOF 6
