REMARK  Name = ZINC15669387
REMARK  5 active torsions:
REMARK  status: ('A' for Active; 'I' for Inactive)
REMARK    1  A    between atoms: C_1  and  C_2
REMARK    2  A    between atoms: C_5  and  C_22
REMARK    3  A    between atoms: C_7  and  S_8
REMARK    4  A    between atoms: S_8  and  N_11
REMARK    5  A    between atoms: N_11  and  C_12
REMARK                            x       y       z     vdW  Elec       q    Type
REMARK                         _______ _______ _______ _____ _____    ______ ____
ROOT
ATOM      1  C   UNL     1       1.571  -0.378  -2.027  0.00  0.00    +0.046 C 
ATOM      2  C   UNL     1       2.744  -0.524  -2.963  0.00  0.00    -0.024 A 
ATOM      3  C   UNL     1       2.991   0.449  -3.914  0.00  0.00    +0.006 A 
ATOM      4  C   UNL     1       4.064   0.321  -4.773  0.00  0.00    +0.010 A 
ATOM      5  C   UNL     1       4.898  -0.792  -4.680  0.00  0.00    +0.004 A 
ATOM      6  C   UNL     1       4.647  -1.766  -3.717  0.00  0.00    +0.039 A 
ATOM      7  C   UNL     1       3.568  -1.631  -2.866  0.00  0.00    +0.112 A 
ENDROOT
BRANCH   5   8
ATOM      8  C   UNL     1       6.053  -0.935  -5.600  0.00  0.00    +0.095 A 
ATOM      9  C   UNL     1       6.332  -2.194  -6.193  0.00  0.00    -0.011 A 
ATOM     10  C   UNL     1       7.390  -2.286  -7.032  0.00  0.00    +0.024 A 
ATOM     11  C   UNL     1       8.162  -1.120  -7.259  0.00  0.00    +0.268 A 
ATOM     12  O   UNL     1       9.129  -1.159  -8.002  0.00  0.00    -0.266 OA
ATOM     13  N   UNL     1       7.822   0.030  -6.649  0.00  0.00    -0.242 N 
ATOM     14  H   UNL     1       8.355   0.825  -6.809  0.00  0.00    +0.192 HD
ATOM     15  N   UNL     1       6.809   0.103  -5.865  0.00  0.00    -0.171 NA
ATOM     16  C   UNL     1       7.777  -3.560  -7.728  0.00  0.00    +0.041 C 
ATOM     17  C   UNL     1       7.126  -4.762  -7.044  0.00  0.00    +0.005 C 
ATOM     18  C   UNL     1       5.627  -4.479  -6.891  0.00  0.00    +0.005 C 
ATOM     19  C   UNL     1       5.448  -3.363  -5.861  0.00  0.00    +0.038 C 
ENDBRANCH   5   8
BRANCH   7  20
ATOM     20  S   UNL     1       3.245  -2.865  -1.651  0.00  0.00    +0.073 S 
ATOM     21  O   UNL     1       3.041  -2.182  -0.422  0.00  0.00    -0.150 OA
ATOM     22  O   UNL     1       4.243  -3.864  -1.812  0.00  0.00    -0.150 OA
BRANCH  20  23
ATOM     23  N   UNL     1       1.800  -3.573  -2.045  0.00  0.00    -0.216 N 
ATOM     24  H   UNL     1       1.050  -3.515  -1.433  0.00  0.00    +0.174 HD
BRANCH  23  25
ATOM     25  C   UNL     1       1.662  -4.253  -3.260  0.00  0.00    +0.052 A 
ATOM     26  C   UNL     1       2.649  -5.137  -3.677  0.00  0.00    +0.028 A 
ATOM     27  C   UNL     1       2.513  -5.808  -4.877  0.00  0.00    +0.051 A 
ATOM     28  C   UNL     1       1.393  -5.603  -5.668  0.00  0.00    +0.162 A 
ATOM     29  C   UNL     1       0.402  -4.721  -5.252  0.00  0.00    +0.164 A 
ATOM     30  C   UNL     1       0.539  -4.046  -4.048  0.00  0.00    +0.074 A 
ATOM     31  O   UNL     1      -0.708  -4.513  -6.010  0.00  0.00    -0.485 OA
ATOM     32  C   UNL     1      -0.637  -4.919  -7.381  0.00  0.00    +0.270 C 
ATOM     33  C   UNL     1      -0.026  -6.325  -7.435  0.00  0.00    +0.270 C 
ATOM     34  O   UNL     1       1.281  -6.268  -6.851  0.00  0.00    -0.485 OA
ENDBRANCH  23  25
ENDBRANCH  20  23
ENDBRANCH   7  20
TORSDOF 4
