REMARK  Name = ZINC39498370
REMARK  12 active torsions:
REMARK  status: ('A' for Active; 'I' for Inactive)
REMARK    1  A    between atoms: C_1  and  C_2
REMARK    2  A    between atoms: C_2  and  C_3
REMARK    3  A    between atoms: C_2  and  S_4
REMARK    4  A    between atoms: S_4  and  C_7
REMARK    5  A    between atoms: C_8  and  C_30
REMARK    6  A    between atoms: C_11  and  C_22
REMARK    7  A    between atoms: C_12  and  S_13
REMARK    8  A    between atoms: S_13  and  C_16
REMARK    9  A    between atoms: C_22  and  C_24
REMARK   10  A    between atoms: C_22  and  N_27
REMARK   11  A    between atoms: C_24  and  C_25
REMARK   12  A    between atoms: C_35  and  O_36
REMARK                            x       y       z     vdW  Elec       q    Type
REMARK                         _______ _______ _______ _____ _____    ______ ____
ROOT
ATOM      1  C   UNL     1      -2.572  -0.835  -1.621  0.00  0.00    +0.122 A 
ATOM      2  C   UNL     1      -2.707   0.538  -1.424  0.00  0.00    +0.012 A 
ATOM      3  C   UNL     1      -2.827   1.386  -2.524  0.00  0.00    +0.011 A 
ATOM      4  C   UNL     1      -2.812   0.862  -3.801  0.00  0.00    +0.008 A 
ATOM      5  C   UNL     1      -2.679  -0.502  -3.990  0.00  0.00    +0.000 A 
ATOM      6  C   UNL     1      -2.553  -1.347  -2.902  0.00  0.00    +0.124 A 
ENDROOT
BRANCH   2   7
ATOM      7  C   UNL     1      -2.724   1.095  -0.050  0.00  0.00    +0.025 A 
ATOM      8  C   UNL     1      -3.835   1.799   0.407  0.00  0.00    +0.012 A 
ATOM      9  C   UNL     1      -3.845   2.315   1.687  0.00  0.00    +0.001 A 
ATOM     10  C   UNL     1      -2.755   2.136   2.519  0.00  0.00    +0.004 A 
ATOM     11  C   UNL     1      -1.647   1.439   2.077  0.00  0.00    +0.046 A 
ATOM     12  C   UNL     1      -1.625   0.910   0.796  0.00  0.00    +0.125 A 
BRANCH  12  13
ATOM     13  O   UNL     1      -0.539   0.220   0.361  0.00  0.00    -0.506 OA
ATOM     14  H   UNL     1       0.165   0.779   0.005  0.00  0.00    +0.292 HD
ENDBRANCH  12  13
ENDBRANCH   2   7
BRANCH   1  15
ATOM     15  S   UNL     1      -2.420  -1.915  -0.237  0.00  0.00    +0.002 S 
ATOM     16  O   UNL     1      -1.048  -1.845   0.127  0.00  0.00    -0.169 OA
ATOM     17  O   UNL     1      -2.993  -3.141  -0.668  0.00  0.00    -0.169 OA
BRANCH  15  19
ATOM     18  C   UNL     1      -4.924  -1.304   0.678  0.00  0.00    +0.032 C 
ATOM     19  C   UNL     1      -3.448  -1.164   1.056  0.00  0.00    +0.130 C 
ATOM     20  C   UNL     1      -3.192  -1.874   2.387  0.00  0.00    +0.032 C 
ENDBRANCH  15  19
ENDBRANCH   1  15
BRANCH   6  21
ATOM     21  S   UNL     1      -2.376  -3.082  -3.153  0.00  0.00    +0.027 S 
ATOM     22  O   UNL     1      -1.699  -3.247  -4.391  0.00  0.00    -0.164 OA
ATOM     23  O   UNL     1      -1.879  -3.620  -1.936  0.00  0.00    -0.164 OA
BRANCH  21  24
ATOM     24  C   UNL     1      -3.994  -3.745  -3.373  0.00  0.00    +0.094 A 
ATOM     25  C   UNL     1      -4.719  -4.177  -2.278  0.00  0.00    +0.027 A 
ATOM     26  C   UNL     1      -5.988  -4.697  -2.450  0.00  0.00    +0.002 A 
ATOM     27  C   UNL     1      -6.533  -4.784  -3.718  0.00  0.00    +0.000 A 
ATOM     28  C   UNL     1      -5.809  -4.351  -4.813  0.00  0.00    +0.002 A 
ATOM     29  C   UNL     1      -4.541  -3.827  -4.640  0.00  0.00    +0.027 A 
ENDBRANCH  21  24
ENDBRANCH   6  21
BRANCH   5  30
ATOM     30  C   UNL     1      -2.664  -1.068  -5.387  0.00  0.00    +0.112 C 
BRANCH  30  31
ATOM     31  N   UNL     1      -3.468  -0.217  -6.267  0.00  0.00    -0.311 N 
ATOM     32  C   UNL     1      -2.987   0.973  -6.678  0.00  0.00    +0.326 C 
ATOM     33  O   UNL     1      -1.894   1.346  -6.308  0.00  0.00    -0.280 OA
ATOM     34  H   UNL     1      -4.347  -0.510  -6.554  0.00  0.00    +0.149 HD
ENDBRANCH  30  31
BRANCH  30  35
ATOM     35  C   UNL     1      -1.224  -1.117  -5.902  0.00  0.00    +0.097 C 
BRANCH  35  36
ATOM     36  C   UNL     1      -1.194  -1.798  -7.246  0.00  0.00    +0.225 C 
ATOM     37  O   UNL     1      -0.700  -1.238  -8.195  0.00  0.00    -0.301 OA
ENDBRANCH  35  36
ENDBRANCH  30  35
ENDBRANCH   5  30
TORSDOF 10
