REMARK  Name = ZINC59890394
REMARK  15 active torsions:
REMARK  status: ('A' for Active; 'I' for Inactive)
REMARK    1  A    between atoms: C_1  and  C_2
REMARK    2  A    between atoms: C_2  and  N_3
REMARK    3  A    between atoms: C_7  and  S_29
REMARK    4  A    between atoms: C_11  and  C_12
REMARK    5  A    between atoms: C_12  and  C_13
REMARK    6  A    between atoms: C_13  and  C_14
REMARK    7  A    between atoms: N_16  and  C_17
REMARK    8  A    between atoms: C_17  and  C_18
REMARK    9  A    between atoms: C_18  and  N_26
REMARK   10  A    between atoms: C_22  and  C_25
REMARK   11  A    between atoms: N_26  and  C_27
REMARK   12  A    between atoms: N_26  and  C_28
REMARK   13  A    between atoms: S_29  and  N_32
REMARK   14  A    between atoms: N_32  and  C_33
REMARK   15  A    between atoms: N_32  and  C_34
REMARK                            x       y       z     vdW  Elec       q    Type
REMARK                         _______ _______ _______ _____ _____    ______ ____
ROOT
ATOM      1  C   UNL     1       5.751  -1.184  -0.659  0.00  0.00    +0.083 C 
ENDROOT
BRANCH   1  10
ATOM      2  N   UNL     1       4.035  -0.885  -2.512  0.00  0.00    -0.328 N 
ATOM      3  C   UNL     1       3.958  -1.177  -3.859  0.00  0.00    +0.069 A 
ATOM      4  C   UNL     1       2.991  -0.983  -4.837  0.00  0.00    +0.030 A 
ATOM      5  C   UNL     1       3.232  -1.403  -6.128  0.00  0.00    +0.030 A 
ATOM      6  C   UNL     1       4.433  -2.017  -6.455  0.00  0.00    +0.108 A 
ATOM      7  C   UNL     1       5.395  -2.216  -5.506  0.00  0.00    +0.058 A 
ATOM      8  C   UNL     1       5.173  -1.798  -4.191  0.00  0.00    +0.091 A 
ATOM      9  N   UNL     1       5.913  -1.852  -3.054  0.00  0.00    -0.232 NA
ATOM     10  C   UNL     1       5.249  -1.313  -2.074  0.00  0.00    +0.111 A 
BRANCH   6  11
ATOM     11  S   UNL     1       4.718  -2.546  -8.111  0.00  0.00    +0.060 S 
ATOM     12  O   UNL     1       5.690  -3.581  -8.045  0.00  0.00    -0.153 OA
ATOM     13  O   UNL     1       3.440  -2.738  -8.702  0.00  0.00    -0.153 OA
BRANCH  11  14
ATOM     14  N   UNL     1       5.426  -1.283  -8.914  0.00  0.00    -0.183 NA
ATOM     15  C   UNL     1       6.885  -1.153  -8.934  0.00  0.00    +0.131 C 
ATOM     16  C   UNL     1       4.594  -0.294  -9.603  0.00  0.00    +0.131 C 
ENDBRANCH  11  14
ENDBRANCH   6  11
BRANCH   2  18
ATOM     17  C   UNL     1       3.211   1.286  -1.742  0.00  0.00    +0.027 C 
ATOM     18  C   UNL     1       3.002  -0.229  -1.705  0.00  0.00    +0.120 C 
ENDBRANCH   2  18
ENDBRANCH   1  10
BRANCH   1  19
ATOM     19  C   UNL     1       5.353  -2.427   0.139  0.00  0.00    +0.103 C 
BRANCH  19  20
ATOM     20  C   UNL     1       5.855  -2.298   1.554  0.00  0.00    +0.213 C 
ATOM     21  O   UNL     1       6.471  -1.309   1.891  0.00  0.00    -0.276 OA
ATOM     22  N   UNL     1       5.619  -3.282   2.445  0.00  0.00    -0.317 N 
ATOM     23  H   UNL     1       5.126  -4.073   2.175  0.00  0.00    +0.149 HD
BRANCH  22  24
ATOM     24  C   UNL     1       6.107  -3.156   3.821  0.00  0.00    +0.092 C 
BRANCH  24  25
ATOM     25  C   UNL     1       5.571  -4.318   4.660  0.00  0.00    -0.050 C 
ATOM     26  C   UNL     1       5.897  -5.642   3.966  0.00  0.00    -0.010 C 
ATOM     27  C   UNL     1       5.361  -6.803   4.805  0.00  0.00    -0.001 C 
ATOM     28  C   UNL     1       6.014  -6.777   6.188  0.00  0.00    +0.003 C 
ATOM     29  C   UNL     1       5.688  -5.454   6.882  0.00  0.00    -0.015 C 
ATOM     30  C   UNL     1       6.224  -4.292   6.043  0.00  0.00    -0.007 C 
ATOM     31  C   UNL     1       6.341  -5.428   8.265  0.00  0.00    +0.007 C 
BRANCH  25  32
ATOM     32  N   UNL     1       4.114  -4.187   4.803  0.00  0.00    +0.381 N 
ATOM     33  C   UNL     1       3.797  -2.883   5.402  0.00  0.00    -0.096 C 
ATOM     34  C   UNL     1       3.481  -4.286   3.482  0.00  0.00    -0.096 C 
ATOM     35  H   UNL     1       3.768  -4.924   5.399  0.00  0.00    -0.082 HD
ENDBRANCH  25  32
ENDBRANCH  24  25
ENDBRANCH  22  24
ENDBRANCH  19  20
ENDBRANCH   1  19
TORSDOF 9
