REMARK  Name = ZINC39537343
REMARK  5 active torsions:
REMARK  status: ('A' for Active; 'I' for Inactive)
REMARK    1  A    between atoms: C_4  and  C_7
REMARK    2  A    between atoms: N_12  and  C_18
REMARK    3  A    between atoms: C_18  and  C_19
REMARK    4  A    between atoms: C_22  and  S_24
REMARK    5  A    between atoms: S_24  and  C_25
REMARK                            x       y       z     vdW  Elec       q    Type
REMARK                         _______ _______ _______ _____ _____    ______ ____
ROOT
ATOM      1  C   UNL     1       3.711  -0.707  -0.038  0.00  0.00    +0.126 C 
ATOM      2  C   UNL     1       4.049  -1.246   1.358  0.00  0.00    +0.044 C 
ATOM      3  C   UNL     1       3.022  -0.810   2.405  0.00  0.00    -0.067 C 
ATOM      4  N   UNL     1       3.237  -1.604   3.625  0.00  0.00    +0.385 N 
ATOM      5  C   UNL     1       2.902  -3.015   3.422  0.00  0.00    -0.072 C 
ATOM      6  C   UNL     1       3.878  -3.658   2.420  0.00  0.00    +0.034 C 
ATOM      7  C   UNL     1       3.910  -2.755   1.199  0.00  0.00    +0.038 C 
ATOM      8  N   UNL     1       3.722  -3.040  -0.014  0.00  0.00    -0.195 NA
ATOM      9  N   UNL     1       3.614  -1.929  -0.859  0.00  0.00    -0.261 N 
ATOM     10  H   UNL     1       3.495  -1.956  -1.821  0.00  0.00    +0.169 HD
ATOM     11  H   UNL     1       4.206  -1.532   3.897  0.00  0.00    -0.081 HD
ENDROOT
BRANCH   1  15
ATOM     12  C   UNL     1      -0.017   1.378   0.010  0.00  0.00    +0.000 A 
ATOM     13  C   UNL     1       1.171   2.086   0.002  0.00  0.00    +0.000 A 
ATOM     14  C   UNL     1       2.377   1.411  -0.013  0.00  0.00    +0.005 A 
ATOM     15  C   UNL     1       2.396   0.029  -0.020  0.00  0.00    -0.025 A 
ATOM     16  C   UNL     1       1.208  -0.679  -0.012  0.00  0.00    +0.005 A 
ATOM     17  C   UNL     1       0.002  -0.004   0.002  0.00  0.00    +0.000 A 
ENDBRANCH   1  15
BRANCH   4  18
ATOM     18  C   UNL     1       2.398  -1.063   4.702  0.00  0.00    -0.003 C 
BRANCH  18  19
ATOM     19  C   UNL     1       2.701  -1.790   5.987  0.00  0.00    +0.090 A 
ATOM     20  C   UNL     1       3.629  -1.431   6.893  0.00  0.00    +0.044 A 
ATOM     21  C   UNL     1       3.577  -2.383   7.936  0.00  0.00    +0.057 A 
ATOM     22  C   UNL     1       2.613  -3.274   7.604  0.00  0.00    +0.169 A 
ATOM     23  O   UNL     1       2.085  -2.904   6.424  0.00  0.00    -0.455 OA
BRANCH  22  24
ATOM     24  S   UNL     1       2.130  -4.676   8.556  0.00  0.00    -0.013 S 
BRANCH  24  25
ATOM     25  C   UNL     1       0.851  -5.420   7.601  0.00  0.00    +0.192 A 
ATOM     26  H   UNL     1       0.281  -7.084   8.717  0.00  0.00    +0.191 HD
ATOM     27  N   UNL     1       0.396  -4.989   6.443  0.00  0.00    -0.209 NA
ATOM     28  C   UNL     1      -0.570  -5.798   6.010  0.00  0.00    +0.245 A 
ATOM     29  N   UNL     1      -0.749  -6.756   6.879  0.00  0.00    -0.160 NA
ATOM     30  N   UNL     1       0.166  -6.539   7.923  0.00  0.00    -0.253 N 
ENDBRANCH  24  25
ENDBRANCH  22  24
ENDBRANCH  18  19
ENDBRANCH   4  18
TORSDOF 5
