REMARK  Name = ZINC26299872
REMARK  11 active torsions:
REMARK  status: ('A' for Active; 'I' for Inactive)
REMARK    1  A    between atoms: C_1  and  C_2
REMARK    2  A    between atoms: C_3  and  N_9
REMARK    3  A    between atoms: C_10  and  C_12
REMARK    4  A    between atoms: C_12  and  N_13
REMARK    5  A    between atoms: C_14  and  C_16
REMARK    6  A    between atoms: C_16  and  N_17
REMARK    7  A    between atoms: N_17  and  C_18
REMARK    8  A    between atoms: N_17  and  C_19
REMARK    9  A    between atoms: C_19  and  C_21
REMARK   10  A    between atoms: C_19  and  C_22
REMARK   11  A    between atoms: C_25  and  N_28
REMARK                            x       y       z     vdW  Elec       q    Type
REMARK                         _______ _______ _______ _____ _____    ______ ____
ROOT
ATOM      1  N   UNL     1      -1.406   6.124  -0.264  0.00  0.00    -0.308 N 
ATOM      2  C   UNL     1      -1.662   7.443  -0.365  0.00  0.00    +0.197 C 
ATOM      3  O   UNL     1      -0.747   8.238  -0.389  0.00  0.00    -0.278 OA
ATOM      4  H   UNL     1      -2.236   5.402  -0.242  0.00  0.00    +0.149 HD
ENDROOT
BRANCH   1   5
ATOM      5  C   UNL     1      -0.022   5.650  -0.183  0.00  0.00    +0.200 C 
BRANCH   5   7
ATOM      6  N   UNL     1       1.161   3.486   0.010  0.00  0.00    -0.284 N 
ATOM      7  C   UNL     1      -0.011   4.147  -0.077  0.00  0.00    +0.234 C 
ATOM      8  O   UNL     1      -1.056   3.531  -0.071  0.00  0.00    -0.274 OA
ATOM      9  H   UNL     1       2.103   4.046   0.095  0.00  0.00    +0.155 HD
BRANCH   6  12
ATOM     10  C   UNL     1       3.359   2.153   1.228  0.00  0.00    +0.047 C 
ATOM     11  C   UNL     1       2.232   1.396   0.575  0.00  0.00    -0.011 A 
ATOM     12  C   UNL     1       1.178   2.087  -0.009  0.00  0.00    +0.038 A 
ATOM     13  C   UNL     1       0.141   1.387  -0.611  0.00  0.00    +0.023 A 
ATOM     14  C   UNL     1       0.160   0.005  -0.628  0.00  0.00    +0.003 A 
ATOM     15  C   UNL     1       1.210  -0.680  -0.047  0.00  0.00    +0.020 A 
ATOM     16  C   UNL     1       2.246   0.015   0.554  0.00  0.00    +0.046 A 
ATOM     17 CL   UNL     1       3.563  -0.850   1.283  0.00  0.00    -0.083 Cl
ENDBRANCH   6  12
ENDBRANCH   5   7
ENDBRANCH   1   5
BRANCH   2  18
ATOM     18  C   UNL     1      -3.086   7.930  -0.449  0.00  0.00    +0.019 C 
BRANCH  18  19
ATOM     19  N   UNL     1      -3.097   9.395  -0.551  0.00  0.00    +0.388 N 
ATOM     20  C   UNL     1      -2.500   9.839  -1.819  0.00  0.00    -0.095 C 
ATOM     21  H   UNL     1      -2.483   9.796   0.269  0.00  0.00    -0.081 HD
BRANCH  19  22
ATOM     22  C   UNL     1      -4.458   9.924  -0.397  0.00  0.00    -0.041 C 
ATOM     23  C   UNL     1      -5.008   9.524   0.974  0.00  0.00    -0.008 C 
BRANCH  22  24
ATOM     24  C   UNL     1      -4.430  11.427  -0.508  0.00  0.00    -0.061 A 
ATOM     25  C   UNL     1      -3.404  12.142   0.081  0.00  0.00    +0.004 A 
ATOM     26  C   UNL     1      -3.372  13.519  -0.024  0.00  0.00    +0.028 A 
ATOM     27  C   UNL     1      -4.378  14.185  -0.711  0.00  0.00    +0.067 A 
ATOM     28  C   UNL     1      -5.410  13.464  -1.296  0.00  0.00    +0.028 A 
ATOM     29  C   UNL     1      -5.433  12.087  -1.193  0.00  0.00    +0.004 A 
BRANCH  27  30
ATOM     30  N   UNL     1      -4.351  15.583  -0.814  0.00  0.00    -0.220 N 
ATOM     31  C   UNL     1      -3.424  16.414  -0.298  0.00  0.00    +0.225 A 
ATOM     32  N   UNL     1      -3.756  17.639  -0.617  0.00  0.00    -0.222 NA
ATOM     33  C   UNL     1      -4.885  17.632  -1.324  0.00  0.00    +0.245 A 
ATOM     34  N   UNL     1      -5.288  16.397  -1.471  0.00  0.00    -0.154 NA
ENDBRANCH  27  30
ENDBRANCH  22  24
ENDBRANCH  19  22
ENDBRANCH  18  19
ENDBRANCH   2  18
TORSDOF 8
