REMARK  Name = ZINC38573857
REMARK  8 active torsions:
REMARK  status: ('A' for Active; 'I' for Inactive)
REMARK    1  A    between atoms: C_1  and  C_2
REMARK    2  A    between atoms: C_2  and  C_3
REMARK    3  A    between atoms: C_3  and  C_4
REMARK    4  A    between atoms: C_4  and  C_5
REMARK    5  A    between atoms: C_8  and  C_11
REMARK    6  A    between atoms: N_13  and  C_14
REMARK    7  A    between atoms: C_14  and  C_16
REMARK    8  A    between atoms: C_14  and  C_17
REMARK                            x       y       z     vdW  Elec       q    Type
REMARK                         _______ _______ _______ _____ _____    ______ ____
ROOT
ATOM      1  C   UNL     1      -9.053  -5.519  -2.409  0.00  0.00    +0.236 C 
ATOM      2  O   UNL     1      -8.275  -5.373  -3.327  0.00  0.00    -0.274 OA
ATOM      3  N   UNL     1     -10.121  -6.329  -2.553  0.00  0.00    -0.300 N 
ATOM      4  C   UNL     1     -11.135  -6.427  -1.494  0.00  0.00    +0.106 C 
ATOM      5  C   UNL     1     -11.317  -7.902  -1.121  0.00  0.00    +0.009 C 
ATOM      6  C   UNL     1     -11.640  -8.707  -2.380  0.00  0.00    -0.037 C 
ATOM      7  C   UNL     1     -10.485  -8.597  -3.376  0.00  0.00    +0.009 C 
ATOM      8  C   UNL     1     -10.297  -7.126  -3.775  0.00  0.00    +0.106 C 
ATOM      9  C   UNL     1     -11.864 -10.174  -2.010  0.00  0.00    +0.140 C 
ATOM     10  C   UNL     1     -12.314 -10.861  -3.295  0.00  0.00    +0.042 C 
ATOM     11  N   UNL     1     -11.499 -11.823  -3.487  0.00  0.00    -0.243 NA
ATOM     12  C   UNL     1     -10.505 -11.828  -2.565  0.00  0.00    +0.216 C 
ATOM     13  N   UNL     1     -10.625 -10.874  -1.667  0.00  0.00    -0.264 NA
ATOM     14  C   UNL     1     -13.439 -10.305  -4.131  0.00  0.00    +0.034 C 
ATOM     15  C   UNL     1     -13.141  -8.803  -4.296  0.00  0.00    -0.076 C 
ATOM     16  N   UNL     1     -12.872  -8.190  -2.994  0.00  0.00    +0.385 N 
ATOM     17  H   UNL     1     -13.649  -8.376  -2.377  0.00  0.00    -0.085 HD
ATOM     18  H   UNL     1     -12.784  -7.192  -3.114  0.00  0.00    -0.085 HD
ENDROOT
BRANCH   1  19
ATOM     19  C   UNL     1      -8.826  -4.797  -1.106  0.00  0.00    +0.156 C 
ATOM     20  C   UNL     1      -9.666  -3.518  -1.079  0.00  0.00    +0.038 C 
BRANCH  19  23
ATOM     21  C   UNL     1      -6.863  -4.274   0.240  0.00  0.00    +0.245 C 
ATOM     22  O   UNL     1      -7.549  -4.400   1.236  0.00  0.00    -0.270 OA
ATOM     23  N   UNL     1      -7.408  -4.452  -0.980  0.00  0.00    -0.300 N 
ATOM     24  H   UNL     1      -6.860  -4.351  -1.774  0.00  0.00    +0.150 HD
BRANCH  21  28
ATOM     25  C   UNL     1      -2.751  -3.275   0.606  0.00  0.00    -0.047 A 
ATOM     26  C   UNL     1      -3.529  -3.417   1.742  0.00  0.00    +0.004 A 
ATOM     27  C   UNL     1      -4.865  -3.741   1.630  0.00  0.00    +0.013 A 
ATOM     28  C   UNL     1      -5.432  -3.926   0.368  0.00  0.00    +0.037 A 
ATOM     29  C   UNL     1      -4.642  -3.781  -0.773  0.00  0.00    +0.013 A 
ATOM     30  C   UNL     1      -3.308  -3.451  -0.648  0.00  0.00    +0.004 A 
BRANCH  25  31
ATOM     31  C   UNL     1      -1.292  -2.921   0.736  0.00  0.00    +0.035 C 
BRANCH  31  32
ATOM     32  C   UNL     1      -1.135  -1.399   0.733  0.00  0.00    +0.004 C 
BRANCH  32  34
ATOM     33  C   UNL     1       0.504   0.483   0.861  0.00  0.00    +0.004 C 
ATOM     34  C   UNL     1       0.346  -1.039   0.865  0.00  0.00    -0.003 C 
ENDBRANCH  32  34
ENDBRANCH  31  32
ENDBRANCH  25  31
ENDBRANCH  21  28
ENDBRANCH  19  23
ENDBRANCH   1  19
TORSDOF 6
