REMARK  Name = ZINC09669355
REMARK  11 active torsions:
REMARK  status: ('A' for Active; 'I' for Inactive)
REMARK    1  A    between atoms: C_1  and  C_2
REMARK    2  A    between atoms: C_2  and  C_3
REMARK    3  A    between atoms: C_3  and  C_4
REMARK    4  A    between atoms: C_4  and  N_5
REMARK    5  A    between atoms: C_9  and  S_28
REMARK    6  A    between atoms: C_13  and  S_14
REMARK    7  A    between atoms: S_14  and  C_15
REMARK    8  A    between atoms: C_15  and  C_17
REMARK    9  A    between atoms: C_15  and  C_18
REMARK   10  A    between atoms: C_21  and  C_23
REMARK   11  A    between atoms: S_28  and  N_31
REMARK                            x       y       z     vdW  Elec       q    Type
REMARK                         _______ _______ _______ _____ _____    ______ ____
ROOT
ATOM      1  N   UNL     1      -0.698   1.558   1.213  0.00  0.00    -0.319 N 
ATOM      2  C   UNL     1      -0.448   2.740   1.891  0.00  0.00    +0.070 A 
ATOM      3  C   UNL     1       0.431   3.794   1.694  0.00  0.00    +0.030 A 
ATOM      4  C   UNL     1       0.431   4.861   2.568  0.00  0.00    +0.030 A 
ATOM      5  C   UNL     1      -0.447   4.891   3.641  0.00  0.00    +0.107 A 
ATOM      6  C   UNL     1      -1.331   3.856   3.849  0.00  0.00    +0.058 A 
ATOM      7  C   UNL     1      -1.344   2.768   2.973  0.00  0.00    +0.092 A 
ATOM      8  N   UNL     1      -2.077   1.625   2.915  0.00  0.00    -0.222 NA
ATOM      9  C   UNL     1      -1.700   0.913   1.881  0.00  0.00    +0.171 A 
ENDROOT
BRANCH   5  10
ATOM     10  S   UNL     1      -0.431   6.263   4.746  0.00  0.00    +0.056 S 
ATOM     11  O   UNL     1       0.114   7.360   4.025  0.00  0.00    -0.153 OA
ATOM     12  O   UNL     1      -1.716   6.312   5.351  0.00  0.00    -0.153 OA
BRANCH  10  13
ATOM     13  N   UNL     1       0.647   5.908   5.952  0.00  0.00    -0.204 NA
ATOM     14  H   UNL     1       1.124   5.064   5.943  0.00  0.00    +0.144 HD
ATOM     15  H   UNL     1       0.802   6.545   6.667  0.00  0.00    +0.144 HD
ENDBRANCH  10  13
ENDBRANCH   5  10
BRANCH   1  16
ATOM     16  C   UNL     1      -0.013   1.086   0.008  0.00  0.00    +0.124 C 
BRANCH  16  17
ATOM     17  C   UNL     1      -0.753   1.593  -1.232  0.00  0.00    +0.021 C 
BRANCH  17  19
ATOM     18  C   UNL     1      -0.777   1.606  -3.730  0.00  0.00    +0.004 C 
ATOM     19  C   UNL     1      -0.037   1.099  -2.490  0.00  0.00    -0.002 C 
ENDBRANCH  17  19
ENDBRANCH  16  17
ENDBRANCH   1  16
BRANCH   9  20
ATOM     20  S   UNL     1      -2.384  -0.645   1.422  0.00  0.00    -0.075 S 
BRANCH  20  21
ATOM     21  C   UNL     1      -3.617  -0.845   2.732  0.00  0.00    +0.139 C 
ATOM     22  C   UNL     1      -4.685   0.242   2.597  0.00  0.00    +0.029 C 
BRANCH  21  23
ATOM     23  C   UNL     1      -4.263  -2.201   2.611  0.00  0.00    +0.231 A 
ATOM     24  N   UNL     1      -4.688  -2.755   1.510  0.00  0.00    -0.111 NA
ATOM     25  N   UNL     1      -5.183  -3.913   1.773  0.00  0.00    -0.107 NA
ATOM     26  C   UNL     1      -5.090  -4.141   3.065  0.00  0.00    +0.255 A 
ATOM     27  O   UNL     1      -4.499  -3.061   3.618  0.00  0.00    -0.419 OA
BRANCH  26  28
ATOM     28  C   UNL     1      -5.540  -5.348   3.773  0.00  0.00    +0.076 A 
ATOM     29  C   UNL     1      -6.148  -6.481   3.265  0.00  0.00    +0.021 A 
ATOM     30  C   UNL     1      -6.478  -7.494   4.136  0.00  0.00    +0.008 A 
ATOM     31  C   UNL     1      -6.207  -7.347   5.459  0.00  0.00    +0.046 A 
ATOM     32  S   UNL     1      -5.450  -5.731   5.515  0.00  0.00    -0.092 S 
ENDBRANCH  26  28
ENDBRANCH  21  23
ENDBRANCH  20  21
ENDBRANCH   9  20
TORSDOF 9
