REMARK  Name = ZINC18180731
REMARK  5 active torsions:
REMARK  status: ('A' for Active; 'I' for Inactive)
REMARK    1  A    between atoms: C_1  and  C_2
REMARK    2  A    between atoms: C_6  and  S_8
REMARK    3  A    between atoms: S_8  and  C_9
REMARK    4  A    between atoms: N_14  and  C_17
REMARK    5  A    between atoms: C_20  and  N_23
REMARK                            x       y       z     vdW  Elec       q    Type
REMARK                         _______ _______ _______ _____ _____    ______ ____
ROOT
ATOM      1  C   UNL     1       0.112  -1.687   3.882  0.00  0.00    +0.150 C 
ATOM      2  C   UNL     1      -0.101  -2.000   5.377  0.00  0.00    +0.120 C 
ATOM      3  C   UNL     1       1.147  -1.453   6.035  0.00  0.00    +0.228 C 
ATOM      4  O   UNL     1       1.389  -1.492   7.222  0.00  0.00    -0.275 OA
ATOM      5  N   UNL     1       1.941  -0.919   5.098  0.00  0.00    -0.209 N 
ATOM      6  C   UNL     1       1.456  -0.994   3.849  0.00  0.00    +0.240 C 
ATOM      7  O   UNL     1       2.006  -0.575   2.853  0.00  0.00    -0.274 OA
ENDROOT
BRANCH   5   8
ATOM      8  C   UNL     1       3.177  -0.329   5.398  0.00  0.00    +0.044 A 
ATOM      9  C   UNL     1       3.352   1.038   5.236  0.00  0.00    +0.026 A 
ATOM     10  C   UNL     1       4.571   1.617   5.532  0.00  0.00    +0.034 A 
ATOM     11  C   UNL     1       5.615   0.836   5.990  0.00  0.00    +0.126 A 
ATOM     12  C   UNL     1       5.444  -0.527   6.152  0.00  0.00    +0.034 A 
ATOM     13  C   UNL     1       4.226  -1.110   5.863  0.00  0.00    +0.026 A 
BRANCH  11  14
ATOM     14  N   UNL     1       6.920   1.459   6.307  0.00  0.00    +0.056 N 
ATOM     15  O   UNL     1       7.072   2.650   6.165  0.00  0.00    -0.126 OA
ATOM     16  O   UNL     1       7.835   0.777   6.707  0.00  0.00    -0.126 OA
ENDBRANCH  11  14
ENDBRANCH   5   8
BRANCH   1  17
ATOM     17  S   UNL     1       0.159  -3.218   2.909  0.00  0.00    -0.073 S 
BRANCH  17  23
ATOM     18  C   UNL     1       0.555   0.567  -0.511  0.00  0.00    +0.066 C 
ATOM     19  C   UNL     1       0.495  -0.914  -0.238  0.00  0.00    +0.046 A 
ATOM     20  C   UNL     1       0.564  -1.824  -1.288  0.00  0.00    -0.005 A 
ATOM     21  C   UNL     1       0.508  -3.170  -0.998  0.00  0.00    +0.049 A 
ATOM     22  N   UNL     1       0.385  -3.551   0.268  0.00  0.00    -0.227 NA
ATOM     23  C   UNL     1       0.321  -2.661   1.246  0.00  0.00    +0.189 A 
ATOM     24  N   UNL     1       0.382  -1.359   1.000  0.00  0.00    -0.227 NA
ATOM     25  C   UNL     1       0.590  -4.232  -2.062  0.00  0.00    +0.056 C 
ATOM     26  C   UNL     1       0.296  -3.634  -3.437  0.00  0.00    +0.006 C 
ATOM     27  C   UNL     1       1.183  -2.398  -3.631  0.00  0.00    +0.005 C 
ATOM     28  C   UNL     1       0.692  -1.298  -2.690  0.00  0.00    +0.039 C 
ENDBRANCH  17  23
ENDBRANCH   1  17
TORSDOF 4
