REMARK  Name = ZINC36207915
REMARK  13 active torsions:
REMARK  status: ('A' for Active; 'I' for Inactive)
REMARK    1  A    between atoms: C_1  and  C_2
REMARK    2  A    between atoms: C_2  and  C_3
REMARK    3  A    between atoms: C_2  and  C_4
REMARK    4  A    between atoms: C_4  and  N_5
REMARK    5  A    between atoms: N_5  and  C_6
REMARK    6  A    between atoms: N_5  and  C_25
REMARK    7  A    between atoms: C_6  and  C_7
REMARK    8  A    between atoms: C_13  and  C_18
REMARK    9  A    between atoms: C_25  and  C_26
REMARK   10  A    between atoms: C_26  and  C_28
REMARK   11  A    between atoms: C_26  and  O_36
REMARK   12  A    between atoms: C_28  and  O_29
REMARK   13  A    between atoms: O_29  and  C_30
REMARK                            x       y       z     vdW  Elec       q    Type
REMARK                         _______ _______ _______ _____ _____    ______ ____
ROOT
ATOM      1  C   UNL     1       2.207   0.269  -2.469  0.00  0.00    -0.003 C 
ENDROOT
BRANCH   1   2
ATOM      2  C   UNL     1       1.422   1.411  -3.060  0.00  0.00    +0.094 A 
ATOM      3  N   UNL     1       1.458   1.624  -4.400  0.00  0.00    -0.312 N 
ATOM      4  H   UNL     1       1.990   1.037  -4.960  0.00  0.00    +0.170 HD
ATOM      5  C   UNL     1       0.771   2.633  -4.967  0.00  0.00    +0.260 A 
ATOM      6  O   UNL     1       0.814   2.811  -6.172  0.00  0.00    -0.267 OA
ATOM      7  C   UNL     1      -0.011   3.494  -4.133  0.00  0.00    +0.080 A 
ATOM      8  C   UNL     1      -0.833   4.640  -4.503  0.00  0.00    +0.004 A 
ATOM      9  C   UNL     1      -1.491   5.312  -3.528  0.00  0.00    +0.056 A 
ATOM     10  S   UNL     1      -1.040   4.434  -2.044  0.00  0.00    -0.076 S 
ATOM     11  C   UNL     1       0.012   3.197  -2.760  0.00  0.00    +0.116 A 
ATOM     12  N   UNL     1       0.713   2.176  -2.273  0.00  0.00    -0.229 NA
BRANCH   8  13
ATOM     13  C   UNL     1      -0.945   5.063  -5.920  0.00  0.00    -0.015 A 
ATOM     14  C   UNL     1       0.204   5.237  -6.691  0.00  0.00    +0.008 A 
ATOM     15  C   UNL     1       0.094   5.630  -8.009  0.00  0.00    +0.002 A 
ATOM     16  C   UNL     1      -1.152   5.853  -8.566  0.00  0.00    +0.020 A 
ATOM     17  C   UNL     1      -2.296   5.682  -7.806  0.00  0.00    +0.042 A 
ATOM     18  C   UNL     1      -2.199   5.282  -6.487  0.00  0.00    +0.028 A 
ATOM     19 CL   UNL     1      -3.857   5.964  -8.512  0.00  0.00    -0.084 Cl
ENDBRANCH   8  13
ENDBRANCH   1   2
BRANCH   1  20
ATOM     20  N   UNL     1       2.007   0.237  -1.014  0.00  0.00    +0.386 N 
ATOM     21  H   UNL     1       2.240   1.137  -0.623  0.00  0.00    -0.081 HD
BRANCH  20  22
ATOM     22  C   UNL     1       0.602  -0.076  -0.720  0.00  0.00    -0.075 C 
BRANCH  22  24
ATOM     23  C   UNL     1       0.579   1.498   1.220  0.00  0.00    +0.005 C 
ATOM     24  C   UNL     1       0.357   0.048   0.785  0.00  0.00    -0.034 C 
ATOM     25  C   UNL     1      -1.082  -0.364   1.103  0.00  0.00    +0.005 C 
ENDBRANCH  22  24
ENDBRANCH  20  22
BRANCH  20  26
ATOM     26  C   UNL     1       2.872  -0.793  -0.424  0.00  0.00    -0.043 C 
BRANCH  26  27
ATOM     27  C   UNL     1       4.335  -0.363  -0.549  0.00  0.00    +0.135 C 
BRANCH  27  28
ATOM     28  O   UNL     1       4.728  -0.404  -1.923  0.00  0.00    -0.390 OA
ATOM     29  H   UNL     1       4.652  -1.279  -2.327  0.00  0.00    +0.210 HD
ENDBRANCH  27  28
BRANCH  27  30
ATOM     30  C   UNL     1       5.218  -1.315   0.262  0.00  0.00    +0.258 C 
BRANCH  30  31
ATOM     31  O   UNL     1       6.568  -0.847   0.240  0.00  0.00    -0.489 OA
BRANCH  31  32
ATOM     32  C   UNL     1       7.487  -1.583   0.918  0.00  0.00    +0.121 A 
ATOM     33  C   UNL     1       7.098  -2.736   1.586  0.00  0.00    +0.045 A 
ATOM     34  C   UNL     1       8.034  -3.483   2.274  0.00  0.00    +0.004 A 
ATOM     35  C   UNL     1       9.358  -3.083   2.298  0.00  0.00    +0.000 A 
ATOM     36  C   UNL     1       9.747  -1.935   1.634  0.00  0.00    +0.004 A 
ATOM     37  C   UNL     1       8.816  -1.187   0.940  0.00  0.00    +0.045 A 
ENDBRANCH  31  32
ENDBRANCH  30  31
ENDBRANCH  27  30
ENDBRANCH  26  27
ENDBRANCH  20  26
ENDBRANCH   1  20
TORSDOF 11
