REMARK  Name = ZINC02421553
REMARK  7 active torsions:
REMARK  status: ('A' for Active; 'I' for Inactive)
REMARK    1  A    between atoms: C_1  and  O_2
REMARK    2  A    between atoms: O_2  and  C_3
REMARK    3  A    between atoms: C_3  and  C_5
REMARK    4  A    between atoms: C_9  and  N_10
REMARK    5  A    between atoms: C_11  and  C_13
REMARK    6  A    between atoms: N_15  and  N_16
REMARK    7  A    between atoms: C_17  and  C_18
REMARK                            x       y       z     vdW  Elec       q    Type
REMARK                         _______ _______ _______ _____ _____    ______ ____
ROOT
ATOM      1  N   UNL     1       4.814  10.077   0.007  0.00  0.00    -0.271 N 
ATOM      2  C   UNL     1       4.838   8.730   0.000  0.00  0.00    +0.305 C 
ATOM      3  O   UNL     1       5.900   8.142  -0.013  0.00  0.00    -0.265 OA
ATOM      4  H   UNL     1       3.965  10.547   0.018  0.00  0.00    +0.156 HD
ENDROOT
BRANCH   1   9
ATOM      5  C   UNL     1       6.178  12.165  -0.001  0.00  0.00    +0.091 A 
ATOM      6  C   UNL     1       7.551  12.668  -0.007  0.00  0.00    -0.021 A 
ATOM      7  C   UNL     1       8.507  11.722  -0.021  0.00  0.00    -0.004 A 
ATOM      8  S   UNL     1       7.620  10.183  -0.020  0.00  0.00    -0.077 S 
ATOM      9  C   UNL     1       5.999  10.790  -0.001  0.00  0.00    +0.087 A 
ATOM     10  C   UNL     1       9.889  12.316  -0.028  0.00  0.00    +0.043 C 
ATOM     11  C   UNL     1       9.685  13.780   0.420  0.00  0.00    +0.010 C 
ATOM     12  C   UNL     1       8.227  14.040  -0.008  0.00  0.00    +0.037 C 
BRANCH   5  13
ATOM     13  C   UNL     1       5.034  13.079   0.008  0.00  0.00    +0.342 C 
ATOM     14  O   UNL     1       4.567  13.459   1.065  0.00  0.00    -0.245 OA
BRANCH  13  16
ATOM     15  C   UNL     1       3.366  14.406  -1.071  0.00  0.00    +0.280 C 
ATOM     16  O   UNL     1       4.498  13.501  -1.156  0.00  0.00    -0.464 OA
ENDBRANCH  13  16
ENDBRANCH   5  13
ENDBRANCH   1   9
BRANCH   2  17
ATOM     17  C   UNL     1       3.560   7.962   0.009  0.00  0.00    +0.318 C 
ATOM     18  O   UNL     1       2.498   8.550   0.022  0.00  0.00    -0.263 OA
ATOM     19  N   UNL     1       3.584   6.614   0.002  0.00  0.00    -0.199 N 
ATOM     20  H   UNL     1       4.433   6.144  -0.009  0.00  0.00    +0.178 HD
BRANCH  19  21
ATOM     21  N   UNL     1       2.384   5.892   0.010  0.00  0.00    -0.187 NA
ATOM     22  C   UNL     1       2.407   4.593   0.003  0.00  0.00    +0.138 C 
BRANCH  22  23
ATOM     23  C   UNL     1       1.144   3.834   0.011  0.00  0.00    -0.004 A 
ATOM     24  C   UNL     1      -0.081   4.508   0.026  0.00  0.00    +0.011 A 
ATOM     25  C   UNL     1      -1.259   3.792   0.034  0.00  0.00    +0.022 A 
ATOM     26  C   UNL     1      -1.232   2.407   0.021  0.00  0.00    +0.059 A 
ATOM     27  C   UNL     1      -0.021   1.732   0.012  0.00  0.00    +0.060 A 
ATOM     28  C   UNL     1       1.165   2.437   0.004  0.00  0.00    +0.031 A 
ATOM     29 CL   UNL     1       0.002  -0.004   0.002  0.00  0.00    -0.082 Cl
ATOM     30 CL   UNL     1      -2.720   1.513   0.024  0.00  0.00    -0.082 Cl
ENDBRANCH  22  23
ENDBRANCH  19  21
ENDBRANCH   2  17
TORSDOF 6
