REMARK  Name = ZINC14969275
REMARK  7 active torsions:
REMARK  status: ('A' for Active; 'I' for Inactive)
REMARK    1  A    between atoms: C_4  and  C_7
REMARK    2  A    between atoms: C_7  and  C_9
REMARK    3  A    between atoms: C_7  and  C_14
REMARK    4  A    between atoms: C_23  and  C_25
REMARK    5  A    between atoms: N_27  and  C_28
REMARK    6  A    between atoms: C_28  and  C_29
REMARK    7  A    between atoms: C_29  and  C_30
REMARK                            x       y       z     vdW  Elec       q    Type
REMARK                         _______ _______ _______ _____ _____    ______ ____
ROOT
ATOM      1  C   UNL     1      -0.516   2.504   3.474  0.00  0.00    +0.223 C 
ATOM      2  O   UNL     1      -0.397   1.984   4.564  0.00  0.00    -0.275 OA
ATOM      3  N   UNL     1      -1.416   3.491   3.294  0.00  0.00    -0.301 N 
ATOM      4  C   UNL     1      -1.642   4.055   1.957  0.00  0.00    +0.108 C 
ATOM      5  C   UNL     1      -1.395   5.563   2.002  0.00  0.00    +0.026 C 
ATOM      6  C   UNL     1      -2.202   6.161   3.159  0.00  0.00    -0.015 C 
ATOM      7  C   UNL     1      -1.937   5.531   4.530  0.00  0.00    +0.026 C 
ATOM      8  C   UNL     1      -2.177   4.020   4.433  0.00  0.00    +0.108 C 
ATOM      9  C   UNL     1      -3.623   6.638   2.861  0.00  0.00    +0.021 C 
ATOM     10  C   UNL     1      -2.510   7.657   3.112  0.00  0.00    +0.082 C 
ENDROOT
BRANCH  10  11
ATOM     11  C   UNL     1      -2.533   8.405   4.420  0.00  0.00    +0.217 C 
ATOM     12  O   UNL     1      -3.586   8.598   4.990  0.00  0.00    -0.275 OA
ATOM     13  N   UNL     1      -1.383   8.858   4.958  0.00  0.00    -0.315 N 
ATOM     14  H   UNL     1      -0.540   8.703   4.503  0.00  0.00    +0.149 HD
BRANCH  13  15
ATOM     15  C   UNL     1      -1.405   9.584   6.230  0.00  0.00    +0.109 C 
BRANCH  15  16
ATOM     16  C   UNL     1       0.021   9.984   6.614  0.00  0.00    +0.056 C 
BRANCH  16  17
ATOM     17  C   UNL     1      -0.002  10.731   7.922  0.00  0.00    -0.021 A 
ATOM     18  C   UNL     1      -0.038  12.064   8.080  0.00  0.00    +0.087 A 
ATOM     19  N   UNL     1      -0.050  12.376   9.412  0.00  0.00    -0.360 N 
ATOM     20  H   UNL     1      -0.075  13.275   9.774  0.00  0.00    +0.165 HD
ATOM     21  C   UNL     1      -0.021  11.222  10.164  0.00  0.00    +0.047 A 
ATOM     22  C   UNL     1       0.004  10.141   9.263  0.00  0.00    +0.003 A 
ATOM     23  C   UNL     1       0.043   8.832   9.747  0.00  0.00    +0.010 A 
ATOM     24  C   UNL     1       0.045   8.607  11.095  0.00  0.00    +0.001 A 
ATOM     25  C   UNL     1       0.014   9.670  11.987  0.00  0.00    +0.002 A 
ATOM     26  C   UNL     1      -0.019  10.970  11.531  0.00  0.00    +0.026 A 
ENDBRANCH  16  17
ENDBRANCH  15  16
ENDBRANCH  13  15
ENDBRANCH  10  11
BRANCH   1  27
ATOM     27  C   UNL     1       0.340   2.046   2.322  0.00  0.00    +0.108 C 
BRANCH  27  31
ATOM     28  C   UNL     1       3.718   4.633   1.943  0.00  0.00    +0.000 A 
ATOM     29  C   UNL     1       2.826   4.502   0.894  0.00  0.00    +0.000 A 
ATOM     30  C   UNL     1       1.733   3.665   1.017  0.00  0.00    +0.004 A 
ATOM     31  C   UNL     1       1.532   2.959   2.188  0.00  0.00    -0.035 A 
ATOM     32  C   UNL     1       2.421   3.094   3.239  0.00  0.00    +0.004 A 
ATOM     33  C   UNL     1       3.516   3.928   3.114  0.00  0.00    +0.000 A 
ENDBRANCH  27  31
BRANCH  27  34
ATOM     34  C   UNL     1       0.820   0.616   2.580  0.00  0.00    +0.005 C 
ATOM     35  C   UNL     1       1.701   0.123   1.414  0.00  0.00    +0.004 C 
ATOM     36  C   UNL     1       1.362  -1.363   1.203  0.00  0.00    +0.000 C 
ATOM     37  C   UNL     1       0.286  -1.722   2.248  0.00  0.00    +0.000 C 
ATOM     38  C   UNL     1      -0.379  -0.366   2.590  0.00  0.00    +0.004 C 
ENDBRANCH  27  34
ENDBRANCH   1  27
TORSDOF 7
