REMARK  Name = ZINC14372622
REMARK  8 active torsions:
REMARK  status: ('A' for Active; 'I' for Inactive)
REMARK    1  A    between atoms: C_1  and  C_2
REMARK    2  A    between atoms: C_2  and  C_4
REMARK    3  A    between atoms: C_2  and  N_21
REMARK    4  A    between atoms: N_6  and  N_7
REMARK    5  A    between atoms: C_8  and  C_10
REMARK    6  A    between atoms: C_10  and  C_12
REMARK    7  A    between atoms: C_10  and  O_13
REMARK    8  A    between atoms: O_13  and  C_14
REMARK                            x       y       z     vdW  Elec       q    Type
REMARK                         _______ _______ _______ _____ _____    ______ ____
ROOT
ATOM      1  C   UNL     1       4.171  -0.348  -0.721  0.00  0.00    +0.252 C 
ATOM      2  O   UNL     1       4.428   0.647  -1.365  0.00  0.00    -0.272 OA
ATOM      3  N   UNL     1       4.641  -1.548  -1.117  0.00  0.00    -0.233 N 
ATOM      4  H   UNL     1       4.435  -2.343  -0.602  0.00  0.00    +0.173 HD
ENDROOT
BRANCH   3   5
ATOM      5  N   UNL     1       5.427  -1.645  -2.272  0.00  0.00    -0.231 N 
ATOM      6  C   UNL     1       5.897  -2.845  -2.668  0.00  0.00    +0.270 C 
ATOM      7  O   UNL     1       5.640  -3.840  -2.024  0.00  0.00    -0.270 OA
ATOM      8  H   UNL     1       5.633  -0.850  -2.787  0.00  0.00    +0.173 HD
BRANCH   6   9
ATOM      9  C   UNL     1       6.743  -2.950  -3.911  0.00  0.00    +0.257 C 
ATOM     10  C   UNL     1       5.904  -2.569  -5.132  0.00  0.00    +0.062 C 
BRANCH   9  11
ATOM     11  O   UNL     1       7.213  -4.292  -4.055  0.00  0.00    -0.480 OA
BRANCH  11  12
ATOM     12  C   UNL     1       8.358  -4.471  -4.765  0.00  0.00    +0.123 A 
ATOM     13  C   UNL     1       8.935  -5.731  -4.845  0.00  0.00    +0.046 A 
ATOM     14  C   UNL     1      10.096  -5.912  -5.571  0.00  0.00    +0.005 A 
ATOM     15  C   UNL     1      10.689  -4.839  -6.210  0.00  0.00    +0.015 A 
ATOM     16  C   UNL     1      10.118  -3.581  -6.128  0.00  0.00    +0.021 A 
ATOM     17  C   UNL     1       8.953  -3.396  -5.407  0.00  0.00    +0.061 A 
ATOM     18 BR   UNL     1      10.932  -2.115  -7.003  0.00  0.00    -0.050 Br
ENDBRANCH  11  12
ENDBRANCH   9  11
ENDBRANCH   6   9
ENDBRANCH   3   5
BRANCH   1  20
ATOM     19  C   UNL     1       4.125  -0.742   1.727  0.00  0.00    +0.041 C 
ATOM     20  C   UNL     1       3.325  -0.243   0.522  0.00  0.00    +0.178 C 
BRANCH  20  21
ATOM     21  N   UNL     1       2.942   1.155   0.735  0.00  0.00    -0.262 N 
ATOM     22  C   UNL     1       1.641   1.656   0.784  0.00  0.00    +0.091 A 
ATOM     23  C   UNL     1       0.391   1.070   0.661  0.00  0.00    +0.030 A 
ATOM     24  C   UNL     1      -0.745   1.850   0.753  0.00  0.00    +0.002 A 
ATOM     25  C   UNL     1      -0.638   3.212   0.977  0.00  0.00    +0.004 A 
ATOM     26  C   UNL     1       0.605   3.802   1.101  0.00  0.00    +0.048 A 
ATOM     27  C   UNL     1       1.750   3.028   1.005  0.00  0.00    +0.157 A 
ATOM     28  O   UNL     1       3.072   3.319   1.084  0.00  0.00    -0.407 OA
ATOM     29  C   UNL     1       3.782   2.192   0.921  0.00  0.00    +0.422 A 
ATOM     30  O   UNL     1       4.996   2.118   0.938  0.00  0.00    -0.223 OA
ENDBRANCH  20  21
ENDBRANCH   1  20
TORSDOF 6
