REMARK  Name = ZINC38959175
REMARK  9 active torsions:
REMARK  status: ('A' for Active; 'I' for Inactive)
REMARK    1  A    between atoms: C_1  and  C_2
REMARK    2  A    between atoms: C_2  and  N_3
REMARK    3  A    between atoms: N_3  and  C_4
REMARK    4  A    between atoms: C_4  and  C_5
REMARK    5  A    between atoms: C_10  and  C_17
REMARK    6  A    between atoms: C_18  and  C_20
REMARK    7  A    between atoms: C_20  and  C_21
REMARK    8  A    between atoms: C_20  and  C_22
REMARK    9  A    between atoms: C_20  and  C_23
REMARK                            x       y       z     vdW  Elec       q    Type
REMARK                         _______ _______ _______ _____ _____    ______ ____
ROOT
ATOM      1  C   UNL     1       0.173  -1.655   3.104  0.00  0.00    +0.116 C 
ATOM      2  C   UNL     1      -0.385  -1.805   4.505  0.00  0.00    -0.003 C 
ATOM      3  C   UNL     1       0.036  -2.876   5.235  0.00  0.00    -0.007 A 
ATOM      4  C   UNL     1      -0.452  -3.096   6.597  0.00  0.00    +0.012 A 
ATOM      5  C   UNL     1      -0.004  -4.177   7.287  0.00  0.00    -0.050 A 
ATOM      6  C   UNL     1       0.905  -5.072   6.724  0.00  0.00    +0.005 A 
ATOM      7  C   UNL     1       1.397  -4.924   5.466  0.00  0.00    +0.024 A 
ATOM      8  C   UNL     1       0.997  -3.838   4.666  0.00  0.00    +0.040 A 
ATOM      9  N   UNL     1       1.485  -3.703   3.433  0.00  0.00    -0.284 N 
ATOM     10  C   UNL     1       1.153  -2.706   2.631  0.00  0.00    +0.226 C 
ATOM     11  O   UNL     1       1.632  -2.636   1.515  0.00  0.00    -0.275 OA
ATOM     12  C   UNL     1      -0.500  -4.414   8.690  0.00  0.00    +0.044 C 
ATOM     13  H   UNL     1       2.114  -4.366   3.110  0.00  0.00    +0.155 HD
ENDROOT
BRANCH   1  14
ATOM     14  C   UNL     1       0.867  -0.294   3.018  0.00  0.00    +0.124 C 
BRANCH  14  15
ATOM     15  N   UNL     1       1.236  -0.021   1.627  0.00  0.00    -0.300 N 
ATOM     16  C   UNL     1       2.438  -0.411   1.159  0.00  0.00    +0.221 C 
ATOM     17  O   UNL     1       3.211  -0.999   1.887  0.00  0.00    -0.275 OA
BRANCH  16  18
ATOM     18  C   UNL     1       2.823  -0.118  -0.268  0.00  0.00    +0.039 C 
ATOM     19  C   UNL     1       4.299  -0.463  -0.480  0.00  0.00    +0.020 C 
ATOM     20  C   UNL     1       1.962  -0.960  -1.212  0.00  0.00    +0.020 C 
ATOM     21  C   UNL     1       2.599   1.367  -0.562  0.00  0.00    +0.020 C 
ENDBRANCH  16  18
BRANCH  15  23
ATOM     22  C   UNL     1       0.401   2.184   0.978  0.00  0.00    +0.024 C 
ATOM     23  C   UNL     1       0.297   0.676   0.744  0.00  0.00    +0.104 C 
ENDBRANCH  15  23
ENDBRANCH  14  15
ENDBRANCH   1  14
TORSDOF 4
