REMARK  Name = ZINC08694891
REMARK  7 active torsions:
REMARK  status: ('A' for Active; 'I' for Inactive)
REMARK    1  A    between atoms: C_1  and  O_2
REMARK    2  A    between atoms: O_2  and  C_3
REMARK    3  A    between atoms: C_6  and  N_9
REMARK    4  A    between atoms: C_12  and  C_13
REMARK    5  A    between atoms: N_14  and  C_15
REMARK    6  A    between atoms: C_15  and  C_16
REMARK    7  A    between atoms: C_16  and  C_17
REMARK                            x       y       z     vdW  Elec       q    Type
REMARK                         _______ _______ _______ _____ _____    ______ ____
ROOT
ATOM      1  N   UNL     1       0.181   1.400  -0.070  0.00  0.00    -0.221 N 
ATOM      2  C   UNL     1      -1.096   1.835  -0.087  0.00  0.00    +0.243 C 
ATOM      3  O   UNL     1      -2.022   1.050  -0.168  0.00  0.00    -0.274 OA
ATOM      4  C   UNL     1      -1.339   3.286  -0.000  0.00  0.00    +0.202 C 
ATOM      5  C   UNL     1      -0.156   4.160   0.089  0.00  0.00    +0.236 C 
ATOM      6  O   UNL     1      -0.276   5.369   0.160  0.00  0.00    -0.274 OA
ATOM      7  N   UNL     1       1.064   3.584   0.091  0.00  0.00    -0.266 N 
ATOM      8  C   UNL     1       1.210   2.254   0.015  0.00  0.00    +0.150 C 
ATOM      9  S   UNL     1       2.797   1.611   0.024  0.00  0.00    -0.018 S 
ATOM     10  H   UNL     1       1.853   4.145   0.149  0.00  0.00    +0.157 HD
ENDROOT
BRANCH   1  14
ATOM     11  C   UNL     1       0.943  -2.695  -0.299  0.00  0.00    +0.120 A 
ATOM     12  C   UNL     1       0.324  -2.166   0.825  0.00  0.00    +0.047 A 
ATOM     13  C   UNL     1       0.072  -0.811   0.901  0.00  0.00    +0.027 A 
ATOM     14  C   UNL     1       0.437   0.023  -0.147  0.00  0.00    +0.043 A 
ATOM     15  C   UNL     1       1.050  -0.507  -1.274  0.00  0.00    +0.027 A 
ATOM     16  C   UNL     1       1.308  -1.862  -1.347  0.00  0.00    +0.047 A 
BRANCH  11  18
ATOM     17  C   UNL     1       1.830  -4.505  -1.560  0.00  0.00    +0.277 C 
ATOM     18  O   UNL     1       1.191  -4.029  -0.374  0.00  0.00    -0.495 OA
ENDBRANCH  11  18
ENDBRANCH   1  14
BRANCH   4  19
ATOM     19  C   UNL     1      -2.621   3.804  -0.007  0.00  0.00    +0.099 C 
ATOM     20  N   UNL     1      -3.683   2.977   0.057  0.00  0.00    -0.294 NA
BRANCH  20  21
ATOM     21  C   UNL     1      -5.041   3.526   0.050  0.00  0.00    +0.146 C 
BRANCH  21  22
ATOM     22  C   UNL     1      -6.055   2.382   0.131  0.00  0.00    +0.060 C 
BRANCH  22  23
ATOM     23  C   UNL     1      -7.452   2.948   0.123  0.00  0.00    -0.021 A 
ATOM     24  C   UNL     1      -8.208   3.221   1.198  0.00  0.00    +0.087 A 
ATOM     25  N   UNL     1      -9.418   3.723   0.801  0.00  0.00    -0.360 N 
ATOM     26  H   UNL     1     -10.132   3.993   1.399  0.00  0.00    +0.165 HD
ATOM     27  C   UNL     1      -9.470   3.787  -0.573  0.00  0.00    +0.047 A 
ATOM     28  C   UNL     1      -8.239   3.310  -1.058  0.00  0.00    +0.003 A 
ATOM     29  C   UNL     1      -8.006   3.253  -2.433  0.00  0.00    +0.010 A 
ATOM     30  C   UNL     1      -8.974   3.672  -3.303  0.00  0.00    +0.001 A 
ATOM     31  C   UNL     1     -10.188   4.149  -2.829  0.00  0.00    +0.002 A 
ATOM     32  C   UNL     1     -10.441   4.208  -1.476  0.00  0.00    +0.026 A 
ENDBRANCH  22  23
ENDBRANCH  21  22
ENDBRANCH  20  21
ENDBRANCH   4  19
TORSDOF 6
