REMARK  Name = ZINC36607976
REMARK  8 active torsions:
REMARK  status: ('A' for Active; 'I' for Inactive)
REMARK    1  A    between atoms: C_4  and  N_7
REMARK    2  A    between atoms: N_7  and  C_8
REMARK    3  A    between atoms: C_8  and  C_10
REMARK    4  A    between atoms: C_8  and  C_17
REMARK    5  A    between atoms: C_14  and  O_16
REMARK    6  A    between atoms: N_19  and  C_20
REMARK    7  A    between atoms: C_26  and  C_28
REMARK    8  A    between atoms: C_33  and  O_34
REMARK                            x       y       z     vdW  Elec       q    Type
REMARK                         _______ _______ _______ _____ _____    ______ ____
ROOT
ATOM      1  C   UNL     1       3.106  -1.458  -0.193  0.00  0.00    +0.198 C 
ENDROOT
BRANCH   1   2
ATOM      2  C   UNL     1       2.133  -1.637   0.944  0.00  0.00    -0.014 A 
ATOM      3  C   UNL     1       1.263  -0.616   1.276  0.00  0.00    +0.006 A 
ATOM      4  C   UNL     1       0.370  -0.777   2.319  0.00  0.00    +0.004 A 
ATOM      5  C   UNL     1       0.345  -1.960   3.032  0.00  0.00    +0.045 A 
ATOM      6  C   UNL     1       1.217  -2.987   2.701  0.00  0.00    +0.117 A 
ATOM      7  C   UNL     1       2.108  -2.825   1.650  0.00  0.00    +0.051 A 
BRANCH   6   8
ATOM      8  O   UNL     1       1.194  -4.152   3.401  0.00  0.00    -0.507 OA
ATOM      9  H   UNL     1       0.590  -4.815   3.041  0.00  0.00    +0.292 HD
ENDBRANCH   6   8
ENDBRANCH   1   2
BRANCH   1  10
ATOM     10  C   UNL     1       2.373  -0.937  -1.403  0.00  0.00    +0.239 C 
ATOM     11  O   UNL     1       2.688   0.128  -1.890  0.00  0.00    -0.273 OA
ATOM     12  N   UNL     1       1.369  -1.655  -1.944  0.00  0.00    -0.311 N 
ATOM     13  H   UNL     1       1.117  -2.507  -1.554  0.00  0.00    +0.149 HD
BRANCH  12  14
ATOM     14  C   UNL     1       0.657  -1.149  -3.119  0.00  0.00    +0.073 C 
ATOM     15  C   UNL     1      -0.457  -0.201  -2.672  0.00  0.00    +0.022 C 
ATOM     16  C   UNL     1      -1.201   0.328  -3.900  0.00  0.00    +0.002 C 
ATOM     17  C   UNL     1      -1.808  -0.844  -4.673  0.00  0.00    +0.000 C 
ATOM     18  C   UNL     1      -0.694  -1.792  -5.120  0.00  0.00    +0.002 C 
ATOM     19  C   UNL     1       0.050  -2.321  -3.892  0.00  0.00    +0.022 C 
ENDBRANCH  12  14
ENDBRANCH   1  10
BRANCH   1  20
ATOM     20  N   UNL     1       4.144  -0.502   0.199  0.00  0.00    -0.251 N 
ATOM     21  C   UNL     1       5.013  -0.036  -0.721  0.00  0.00    +0.255 C 
ATOM     22  O   UNL     1       5.962   0.640  -0.373  0.00  0.00    -0.269 OA
BRANCH  20  26
ATOM     23  C   UNL     1       4.413   0.778   4.153  0.00  0.00    +0.000 A 
ATOM     24  C   UNL     1       5.122  -0.334   3.739  0.00  0.00    +0.002 A 
ATOM     25  C   UNL     1       5.035  -0.761   2.428  0.00  0.00    +0.023 A 
ATOM     26  C   UNL     1       4.234  -0.072   1.526  0.00  0.00    +0.038 A 
ATOM     27  C   UNL     1       3.523   1.045   1.946  0.00  0.00    +0.023 A 
ATOM     28  C   UNL     1       3.615   1.466   3.258  0.00  0.00    +0.002 A 
ENDBRANCH  20  26
BRANCH  21  29
ATOM     29  C   UNL     1       4.811  -0.345  -2.149  0.00  0.00    +0.079 A 
ATOM     30  C   UNL     1       4.106  -1.491  -2.527  0.00  0.00    +0.017 A 
ATOM     31  C   UNL     1       3.921  -1.774  -3.863  0.00  0.00    +0.001 A 
ATOM     32  C   UNL     1       4.433  -0.929  -4.834  0.00  0.00    +0.004 A 
ATOM     33  C   UNL     1       5.132   0.206  -4.474  0.00  0.00    +0.046 A 
ATOM     34  C   UNL     1       5.322   0.511  -3.134  0.00  0.00    +0.129 A 
BRANCH  34  35
ATOM     35  O   UNL     1       6.003   1.629  -2.779  0.00  0.00    -0.506 OA
ATOM     36  H   UNL     1       6.956   1.495  -2.683  0.00  0.00    +0.292 HD
ENDBRANCH  34  35
ENDBRANCH  21  29
ENDBRANCH   1  20
TORSDOF 8
