REMARK  Name = ZINC36602726
REMARK  16 active torsions:
REMARK  status: ('A' for Active; 'I' for Inactive)
REMARK    1  A    between atoms: C_1  and  C_2
REMARK    2  A    between atoms: C_5  and  C_7
REMARK    3  A    between atoms: C_7  and  N_8
REMARK    4  A    between atoms: N_8  and  C_9
REMARK    5  A    between atoms: C_9  and  C_11
REMARK    6  A    between atoms: C_9  and  C_18
REMARK    7  A    between atoms: C_15  and  O_17
REMARK    8  A    between atoms: N_20  and  C_21
REMARK    9  A    between atoms: C_21  and  C_22
REMARK   10  A    between atoms: C_21  and  C_23
REMARK   11  A    between atoms: C_21  and  C_24
REMARK   12  A    between atoms: C_24  and  C_25
REMARK   13  A    between atoms: C_25  and  C_26
REMARK   14  A    between atoms: C_25  and  C_27
REMARK   15  A    between atoms: C_25  and  C_28
REMARK   16  A    between atoms: C_29  and  C_31
REMARK                            x       y       z     vdW  Elec       q    Type
REMARK                         _______ _______ _______ _____ _____    ______ ____
ROOT
ATOM      1  C   UNL     1       2.346  -3.151  -2.385  0.00  0.00    +0.193 C 
ENDROOT
BRANCH   1   2
ATOM      2  C   UNL     1       3.557  -3.932  -1.944  0.00  0.00    -0.015 A 
ATOM      3  C   UNL     1       3.906  -3.969  -0.606  0.00  0.00    +0.006 A 
ATOM      4  C   UNL     1       5.016  -4.684  -0.198  0.00  0.00    +0.004 A 
ATOM      5  C   UNL     1       5.781  -5.364  -1.127  0.00  0.00    +0.045 A 
ATOM      6  C   UNL     1       5.433  -5.328  -2.469  0.00  0.00    +0.117 A 
ATOM      7  C   UNL     1       4.315  -4.614  -2.875  0.00  0.00    +0.051 A 
BRANCH   6   8
ATOM      8  O   UNL     1       6.184  -5.996  -3.384  0.00  0.00    -0.507 OA
ATOM      9  H   UNL     1       5.898  -6.907  -3.538  0.00  0.00    +0.292 HD
ENDBRANCH   6   8
ENDBRANCH   1   2
BRANCH   1  10
ATOM     10  C   UNL     1       2.777  -1.796  -2.886  0.00  0.00    +0.239 C 
ATOM     11  O   UNL     1       2.384  -0.791  -2.333  0.00  0.00    -0.273 OA
ATOM     12  N   UNL     1       3.599  -1.702  -3.950  0.00  0.00    -0.308 N 
ATOM     13  H   UNL     1       3.914  -2.506  -4.392  0.00  0.00    +0.149 HD
BRANCH  12  14
ATOM     14  C   UNL     1       4.018  -0.386  -4.438  0.00  0.00    +0.030 C 
ATOM     15  C   UNL     1       2.834   0.308  -5.115  0.00  0.00    +0.031 C 
ATOM     16  C   UNL     1       4.502   0.464  -3.261  0.00  0.00    +0.031 C 
BRANCH  14  17
ATOM     17  C   UNL     1       5.156  -0.554  -5.447  0.00  0.00    +0.031 C 
BRANCH  17  18
ATOM     18  C   UNL     1       6.133  -1.618  -4.942  0.00  0.00    -0.036 C 
ATOM     19  C   UNL     1       5.451  -2.987  -4.962  0.00  0.00    +0.010 C 
ATOM     20  C   UNL     1       7.366  -1.649  -5.846  0.00  0.00    +0.010 C 
ATOM     21  C   UNL     1       6.558  -1.281  -3.511  0.00  0.00    +0.010 C 
ENDBRANCH  17  18
ENDBRANCH  14  17
ENDBRANCH  12  14
ENDBRANCH   1  10
BRANCH   1  22
ATOM     22  N   UNL     1       1.433  -2.983  -1.251  0.00  0.00    -0.275 N 
ATOM     23  C   UNL     1       0.811  -4.056  -0.723  0.00  0.00    +0.248 C 
ATOM     24  O   UNL     1       0.101  -3.926   0.255  0.00  0.00    -0.270 OA
BRANCH  23  25
ATOM     25  C   UNL     1       0.992  -5.389  -1.333  0.00  0.00    +0.037 A 
ATOM     26  C   UNL     1       1.870  -5.556  -2.406  0.00  0.00    +0.016 A 
ATOM     27  C   UNL     1       2.035  -6.802  -2.972  0.00  0.00    +0.039 A 
ATOM     28  C   UNL     1       1.330  -7.889  -2.478  0.00  0.00    +0.123 A 
ATOM     29  C   UNL     1       0.457  -7.729  -1.413  0.00  0.00    +0.039 A 
ATOM     30  C   UNL     1       0.289  -6.489  -0.836  0.00  0.00    +0.016 A 
ATOM     31  F   UNL     1       1.495  -9.108  -3.036  0.00  0.00    -0.205 F 
ENDBRANCH  23  25
BRANCH  22  32
ATOM     32  C   UNL     1       1.197  -1.651  -0.691  0.00  0.00    +0.183 C 
BRANCH  32  37
ATOM     33  C   UNL     1      -1.273   1.234  -4.011  0.00  0.00    +0.086 C 
ATOM     34  C   UNL     1      -1.001   0.271  -2.884  0.00  0.00    +0.102 A 
ATOM     35  C   UNL     1      -1.933  -0.339  -2.129  0.00  0.00    +0.045 A 
ATOM     36  C   UNL     1      -1.240  -1.147  -1.198  0.00  0.00    +0.046 A 
ATOM     37  C   UNL     1       0.072  -0.983  -1.440  0.00  0.00    +0.122 A 
ATOM     38  O   UNL     1       0.211  -0.127  -2.466  0.00  0.00    -0.463 OA
ENDBRANCH  32  37
ENDBRANCH  22  32
ENDBRANCH   1  22
TORSDOF 10
