REMARK  Name = ZINC09580740
REMARK  4 active torsions:
REMARK  status: ('A' for Active; 'I' for Inactive)
REMARK    1  A    between atoms: C_10  and  C_13
REMARK    2  A    between atoms: C_13  and  C_14
REMARK    3  A    between atoms: N_16  and  C_17
REMARK    4  A    between atoms: C_20  and  C_23
REMARK                            x       y       z     vdW  Elec       q    Type
REMARK                         _______ _______ _______ _____ _____    ______ ____
ROOT
ATOM      1  C   UNL     1       3.088   4.515   2.967  0.00  0.00    +0.219 C 
ATOM      2  O   UNL     1       2.776   5.511   2.350  0.00  0.00    -0.275 OA
ATOM      3  N   UNL     1       3.721   4.627   4.152  0.00  0.00    -0.285 N 
ATOM      4  H   UNL     1       3.903   3.834   4.681  0.00  0.00    +0.155 HD
ENDROOT
BRANCH   3   5
ATOM      5  C   UNL     1       4.114   5.884   4.619  0.00  0.00    +0.033 A 
ATOM      6  C   UNL     1       4.382   6.906   3.715  0.00  0.00    +0.024 A 
ATOM      7  C   UNL     1       4.765   8.149   4.172  0.00  0.00    +0.013 A 
ATOM      8  C   UNL     1       4.893   8.378   5.543  0.00  0.00    +0.019 A 
ATOM      9  C   UNL     1       4.627   7.348   6.448  0.00  0.00    +0.013 A 
ATOM     10  C   UNL     1       4.240   6.109   5.985  0.00  0.00    +0.024 A 
BRANCH   8  11
ATOM     11  C   UNL     1       5.309   9.708   6.037  0.00  0.00    +0.164 A 
ATOM     12  N   UNL     1       5.141  10.182   7.254  0.00  0.00    -0.129 NA
ATOM     13  N   UNL     1       5.633  11.369   7.330  0.00  0.00    -0.134 NA
ATOM     14  C   UNL     1       6.132  11.718   6.178  0.00  0.00    +0.134 A 
ATOM     15  N   UNL     1       5.935  10.684   5.317  0.00  0.00    -0.311 N 
ATOM     16  C   UNL     1       6.311  10.642   3.904  0.00  0.00    +0.125 C 
ATOM     17  C   UNL     1       7.523  11.550   3.675  0.00  0.00    +0.022 C 
ATOM     18  C   UNL     1       7.052  12.966   3.350  0.00  0.00    +0.002 C 
ATOM     19  C   UNL     1       6.255  13.547   4.514  0.00  0.00    +0.008 C 
ATOM     20  C   UNL     1       6.816  13.017   5.837  0.00  0.00    +0.076 C 
ENDBRANCH   8  11
ENDBRANCH   3   5
BRANCH   1  21
ATOM     21  C   UNL     1       2.770   3.152   2.409  0.00  0.00    +0.120 C 
BRANCH  21  31
ATOM     22  C   UNL     1      -2.077   0.762   3.032  0.00  0.00    +0.002 A 
ATOM     23  C   UNL     1      -2.350   2.073   3.376  0.00  0.00    +0.001 A 
ATOM     24  C   UNL     1      -1.577   3.096   2.858  0.00  0.00    +0.016 A 
ATOM     25  C   UNL     1      -0.530   2.804   2.001  0.00  0.00    +0.030 A 
ATOM     26  C   UNL     1      -0.237   1.483   1.662  0.00  0.00    +0.047 A 
ATOM     27  C   UNL     1      -1.027   0.465   2.187  0.00  0.00    +0.024 A 
ATOM     28  N   UNL     1       0.808   1.161   0.801  0.00  0.00    -0.284 N 
ATOM     29  C   UNL     1       1.823   1.947   0.456  0.00  0.00    +0.231 C 
ATOM     30  O   UNL     1       2.597   1.551  -0.389  0.00  0.00    -0.274 OA
ATOM     31  C   UNL     1       2.057   3.305   1.064  0.00  0.00    +0.146 C 
ATOM     32  S   UNL     1       0.444   4.108   1.315  0.00  0.00    -0.110 S 
ATOM     33  H   UNL     1       0.795   0.272   0.414  0.00  0.00    +0.155 HD
ENDBRANCH  21  31
ENDBRANCH   1  21
TORSDOF 4
