REMARK  Name = ZINC22715482
REMARK  6 active torsions:
REMARK  status: ('A' for Active; 'I' for Inactive)
REMARK    1  A    between atoms: C_1  and  C_2
REMARK    2  A    between atoms: C_2  and  O_3
REMARK    3  A    between atoms: O_3  and  C_4
REMARK    4  A    between atoms: C_6  and  C_11
REMARK    5  A    between atoms: C_9  and  O_10
REMARK    6  A    between atoms: N_17  and  C_20
REMARK                            x       y       z     vdW  Elec       q    Type
REMARK                         _______ _______ _______ _____ _____    ______ ____
ROOT
ATOM      1  C   UNL     1       2.797   4.451   1.325  0.00  0.00    +0.137 C 
ATOM      2  C   UNL     1       2.075   5.700   1.749  0.00  0.00    +0.058 C 
ATOM      3  C   UNL     1       0.930   6.231   1.282  0.00  0.00    +0.086 C 
ATOM      4  C   UNL     1       0.643   7.417   2.153  0.00  0.00    +0.265 C 
ATOM      5  O   UNL     1      -0.332   8.137   2.092  0.00  0.00    -0.269 OA
ATOM      6  N   UNL     1       1.668   7.535   3.013  0.00  0.00    -0.202 N 
ATOM      7  C   UNL     1       2.548   6.549   2.795  0.00  0.00    +0.257 C 
ATOM      8  O   UNL     1       3.593   6.399   3.398  0.00  0.00    -0.269 OA
ATOM      9  S   UNL     1      -0.077   5.769  -0.081  0.00  0.00    -0.082 S 
ATOM     10  C   UNL     1      -0.157   4.019   0.093  0.00  0.00    +0.034 A 
ATOM     11  C   UNL     1      -1.384   3.386   0.218  0.00  0.00    +0.017 A 
ATOM     12  C   UNL     1      -1.447   2.005   0.234  0.00  0.00    +0.001 A 
ATOM     13  C   UNL     1      -0.282   1.263   0.154  0.00  0.00    +0.002 A 
ATOM     14  C   UNL     1       0.944   1.891   0.082  0.00  0.00    +0.024 A 
ATOM     15  C   UNL     1       1.023   3.282   0.060  0.00  0.00    +0.042 A 
ATOM     16  N   UNL     1       2.269   3.877   0.110  0.00  0.00    -0.332 N 
ATOM     17  H   UNL     1       2.863   3.906  -0.815  0.00  0.00    +0.147 HD
ENDROOT
BRANCH   6  18
ATOM     18  C   UNL     1       1.797   8.535   3.988  0.00  0.00    +0.045 A 
ATOM     19  C   UNL     1       2.903   8.550   4.827  0.00  0.00    +0.025 A 
ATOM     20  C   UNL     1       3.031   9.539   5.782  0.00  0.00    +0.022 A 
ATOM     21  C   UNL     1       2.051  10.508   5.912  0.00  0.00    +0.041 A 
ATOM     22  C   UNL     1       0.945  10.492   5.081  0.00  0.00    +0.022 A 
ATOM     23  C   UNL     1       0.816   9.508   4.120  0.00  0.00    +0.025 A 
ATOM     24 CL   UNL     1       2.211  11.746   7.118  0.00  0.00    -0.084 Cl
ENDBRANCH   6  18
BRANCH   1  27
ATOM     25  C   UNL     1       3.729   2.054   4.092  0.00  0.00    +0.162 A 
ATOM     26  C   UNL     1       3.828   2.991   3.076  0.00  0.00    +0.055 A 
ATOM     27  C   UNL     1       2.688   3.432   2.430  0.00  0.00    -0.019 A 
ATOM     28  C   UNL     1       1.448   2.946   2.799  0.00  0.00    +0.009 A 
ATOM     29  C   UNL     1       1.343   2.007   3.808  0.00  0.00    +0.049 A 
ATOM     30  C   UNL     1       2.481   1.560   4.460  0.00  0.00    +0.158 A 
BRANCH  30  31
ATOM     31  O   UNL     1       2.379   0.640   5.457  0.00  0.00    -0.503 OA
ATOM     32  H   UNL     1       1.392   0.251   5.747  0.00  0.00    +0.292 HD
ENDBRANCH  30  31
BRANCH  25  33
ATOM     33  O   UNL     1       4.849   1.618   4.728  0.00  0.00    -0.489 OA
BRANCH  33  35
ATOM     34  C   UNL     1       7.233   1.563   5.123  0.00  0.00    +0.048 C 
ATOM     35  C   UNL     1       6.096   2.168   4.298  0.00  0.00    +0.226 C 
ENDBRANCH  33  35
ENDBRANCH  25  33
ENDBRANCH   1  27
TORSDOF 5
