REMARK  Name = ZINC08328890
REMARK  6 active torsions:
REMARK  status: ('A' for Active; 'I' for Inactive)
REMARK    1  A    between atoms: C_1  and  C_2
REMARK    2  A    between atoms: N_11  and  C_15
REMARK    3  A    between atoms: C_15  and  C_16
REMARK    4  A    between atoms: N_18  and  C_19
REMARK    5  A    between atoms: C_19  and  C_21
REMARK    6  A    between atoms: C_19  and  C_22
REMARK                            x       y       z     vdW  Elec       q    Type
REMARK                         _______ _______ _______ _____ _____    ______ ____
ROOT
ATOM      1  C   UNL     1      -3.301  -0.488   2.955  0.00  0.00    +0.213 C 
ENDROOT
BRANCH   1  11
ATOM      2  C   UNL     1      -1.536   3.561   2.539  0.00  0.00    +0.010 C 
ATOM      3  C   UNL     1      -0.790   3.101   1.286  0.00  0.00    +0.018 C 
ATOM      4  C   UNL     1      -1.527   3.600   0.040  0.00  0.00    +0.006 C 
ATOM      5  C   UNL     1      -0.790   3.122  -1.213  0.00  0.00    +0.000 C 
ATOM      6  C   UNL     1      -0.753   1.593  -1.233  0.00  0.00    +0.003 C 
ATOM      7  C   UNL     1      -0.013   1.086   0.008  0.00  0.00    +0.035 C 
ATOM      8  C   UNL     1      -0.726   1.577   1.263  0.00  0.00    +0.115 C 
ATOM      9  C   UNL     1      -2.117   0.991   1.342  0.00  0.00    +0.247 C 
ATOM     10  O   UNL     1      -3.023   1.142   0.552  0.00  0.00    -0.273 OA
ATOM     11  N   UNL     1      -2.136   0.263   2.478  0.00  0.00    -0.215 N 
ATOM     12  C   UNL     1      -0.960   0.312   3.115  0.00  0.00    +0.310 C 
ATOM     13  O   UNL     1      -0.734  -0.264   4.161  0.00  0.00    -0.252 OA
ATOM     14  N   UNL     1      -0.056   1.072   2.468  0.00  0.00    -0.285 N 
ATOM     15  H   UNL     1       0.857   1.250   2.743  0.00  0.00    +0.151 HD
ENDBRANCH   1  11
BRANCH   1  16
ATOM     16  C   UNL     1      -3.260  -1.886   2.395  0.00  0.00    +0.232 C 
ATOM     17  O   UNL     1      -2.349  -2.223   1.669  0.00  0.00    -0.274 OA
ATOM     18  N   UNL     1      -4.237  -2.763   2.700  0.00  0.00    -0.304 N 
ATOM     19  H   UNL     1      -4.966  -2.494   3.281  0.00  0.00    +0.149 HD
BRANCH  18  20
ATOM     20  C   UNL     1      -4.198  -4.123   2.156  0.00  0.00    +0.136 C 
ATOM     21  C   UNL     1      -3.326  -5.006   3.051  0.00  0.00    +0.036 C 
BRANCH  20  22
ATOM     22  C   UNL     1      -5.595  -4.684   2.104  0.00  0.00    +0.126 A 
ATOM     23  C   UNL     1      -6.088  -5.424   1.102  0.00  0.00    +0.055 A 
ATOM     24  C   UNL     1      -7.471  -5.748   1.475  0.00  0.00    +0.020 A 
ATOM     25  C   UNL     1      -8.498  -6.475   0.874  0.00  0.00    +0.011 A 
ATOM     26  C   UNL     1      -9.707  -6.585   1.502  0.00  0.00    +0.001 A 
ATOM     27  C   UNL     1      -9.918  -5.980   2.732  0.00  0.00    +0.004 A 
ATOM     28  C   UNL     1      -8.914  -5.258   3.342  0.00  0.00    +0.047 A 
ATOM     29  C   UNL     1      -7.678  -5.133   2.721  0.00  0.00    +0.135 A 
ATOM     30  O   UNL     1      -6.530  -4.510   3.055  0.00  0.00    -0.458 OA
ENDBRANCH  20  22
ENDBRANCH  18  20
ENDBRANCH   1  16
TORSDOF 4
