REMARK  Name = ZINC21529311
REMARK  7 active torsions:
REMARK  status: ('A' for Active; 'I' for Inactive)
REMARK    1  A    between atoms: C_1  and  N_2
REMARK    2  A    between atoms: N_2  and  C_3
REMARK    3  A    between atoms: C_6  and  C_12
REMARK    4  A    between atoms: C_8  and  N_9
REMARK    5  A    between atoms: C_12  and  N_14
REMARK    6  A    between atoms: N_21  and  C_24
REMARK    7  A    between atoms: C_24  and  C_25
REMARK                            x       y       z     vdW  Elec       q    Type
REMARK                         _______ _______ _______ _____ _____    ______ ____
ROOT
ATOM      1  N   UNL     1       3.930   3.225  -0.098  0.00  0.00    -0.152 NA
ATOM      2  C   UNL     1       5.194   3.798  -0.138  0.00  0.00    +0.164 A 
ATOM      3  N   UNL     1       6.372   3.206  -0.163  0.00  0.00    -0.339 N 
ATOM      4  C   UNL     1       7.507   3.893  -0.206  0.00  0.00    +0.024 A 
ATOM      5  C   UNL     1       7.386   5.248  -0.208  0.00  0.00    -0.004 A 
ATOM      6  S   UNL     1       5.631   5.481  -0.159  0.00  0.00    -0.059 S 
ATOM      7  C   UNL     1       8.488   6.251  -0.242  0.00  0.00    -0.033 C 
ATOM      8  N   UNL     1       9.751   5.555   0.076  0.00  0.00    +0.386 N 
ATOM      9  C   UNL     1       9.886   4.332  -0.729  0.00  0.00    -0.072 C 
ATOM     10  C   UNL     1       8.897   3.267  -0.248  0.00  0.00    +0.035 C 
ATOM     11  H   UNL     1       6.435   2.107  -0.149  0.00  0.00    +0.167 HD
ATOM     12  H   UNL     1       9.730   5.264   1.136  0.00  0.00    -0.081 HD
ENDROOT
BRANCH   1  13
ATOM     13  C   UNL     1       3.797   1.884  -0.087  0.00  0.00    +0.270 C 
ATOM     14  O   UNL     1       4.785   1.175  -0.112  0.00  0.00    -0.268 OA
BRANCH  13  18
ATOM     15  C   UNL     1      -0.069   0.133   0.035  0.00  0.00    +0.058 A 
ATOM     16  C   UNL     1       0.066   1.519   0.023  0.00  0.00    +0.026 A 
ATOM     17  C   UNL     1       1.318   2.089  -0.016  0.00  0.00    +0.015 A 
ATOM     18  C   UNL     1       2.455   1.276  -0.045  0.00  0.00    +0.041 A 
ATOM     19  C   UNL     1       2.316  -0.115  -0.033  0.00  0.00    +0.047 A 
ATOM     20  C   UNL     1       1.061  -0.680   0.006  0.00  0.00    +0.148 A 
BRANCH  15  22
ATOM     21  C   UNL     1      -2.519   0.408   0.232  0.00  0.00    +0.125 C 
ATOM     22  N   UNL     1      -1.335  -0.441   0.074  0.00  0.00    -0.345 N 
ATOM     23  H   UNL     1      -1.448  -1.531  -0.013  0.00  0.00    +0.146 HD
ENDBRANCH  15  22
BRANCH  20  24
ATOM     24  N   UNL     1       0.913  -2.152   0.018  0.00  0.00    +0.058 N 
ATOM     25  O   UNL     1       1.899  -2.863   0.106  0.00  0.00    -0.126 OA
ATOM     26  O   UNL     1      -0.194  -2.654  -0.061  0.00  0.00    -0.126 OA
ENDBRANCH  20  24
ENDBRANCH  13  18
ENDBRANCH   1  13
BRANCH   8  27
ATOM     27  C   UNL     1      10.905   6.443  -0.119  0.00  0.00    -0.043 C 
BRANCH  27  28
ATOM     28  C   UNL     1      10.856   7.559   0.894  0.00  0.00    -0.064 A 
ATOM     29  C   UNL     1      10.199   8.737   0.593  0.00  0.00    +0.002 A 
ATOM     30  C   UNL     1      10.150   9.758   1.523  0.00  0.00    +0.000 A 
ATOM     31  C   UNL     1      10.768   9.605   2.751  0.00  0.00    +0.000 A 
ATOM     32  C   UNL     1      11.430   8.429   3.049  0.00  0.00    +0.000 A 
ATOM     33  C   UNL     1      11.474   7.406   2.121  0.00  0.00    +0.002 A 
ENDBRANCH  27  28
ENDBRANCH   8  27
TORSDOF 6
