REMARK  Name = ZINC22442068
REMARK  5 active torsions:
REMARK  status: ('A' for Active; 'I' for Inactive)
REMARK    1  A    between atoms: C_4  and  C_7
REMARK    2  A    between atoms: C_7  and  N_8
REMARK    3  A    between atoms: C_18  and  N_20
REMARK    4  A    between atoms: N_20  and  C_21
REMARK    5  A    between atoms: C_31  and  C_34
REMARK                            x       y       z     vdW  Elec       q    Type
REMARK                         _______ _______ _______ _____ _____    ______ ____
ROOT
ATOM      1  N   UNL     1       6.535  -3.418  -0.578  0.00  0.00    -0.295 NA
ATOM      2  C   UNL     1       5.670  -4.437  -1.190  0.00  0.00    +0.103 C 
ATOM      3  C   UNL     1       5.521  -4.145  -2.685  0.00  0.00    +0.123 C 
ATOM      4  N   UNL     1       6.849  -4.139  -3.315  0.00  0.00    -0.297 N 
ATOM      5  C   UNL     1       7.715  -3.121  -2.703  0.00  0.00    +0.123 C 
ATOM      6  C   UNL     1       7.863  -3.412  -1.208  0.00  0.00    +0.103 C 
ATOM      7  C   UNL     1       6.750  -3.949  -4.676  0.00  0.00    +0.220 A 
ATOM      8  N   UNL     1       6.006  -4.790  -5.386  0.00  0.00    -0.218 NA
ATOM      9  C   UNL     1       5.874  -4.647  -6.694  0.00  0.00    +0.059 A 
ATOM     10  C   UNL     1       6.543  -3.592  -7.321  0.00  0.00    +0.079 A 
ATOM     11  C   UNL     1       7.332  -2.721  -6.539  0.00  0.00    +0.139 A 
ATOM     12  N   UNL     1       7.403  -2.938  -5.229  0.00  0.00    -0.199 NA
ATOM     13  C   UNL     1       6.422  -3.393  -8.767  0.00  0.00    +0.169 C 
ATOM     14  O   UNL     1       6.819  -2.376  -9.298  0.00  0.00    -0.292 OA
ATOM     15  C   UNL     1       5.783  -4.503  -9.577  0.00  0.00    +0.091 C 
ATOM     16  C   UNL     1       4.564  -5.003  -8.792  0.00  0.00    +0.068 C 
ATOM     17  C   UNL     1       5.025  -5.613  -7.470  0.00  0.00    +0.068 C 
ENDROOT
BRANCH  16  18
ATOM     18  C   UNL     1       3.838  -6.046  -9.601  0.00  0.00    +0.109 A 
ATOM     19  C   UNL     1       2.559  -5.973 -10.014  0.00  0.00    +0.045 A 
ATOM     20  C   UNL     1       2.294  -7.157 -10.738  0.00  0.00    +0.041 A 
ATOM     21  C   UNL     1       3.424  -7.887 -10.718  0.00  0.00    +0.195 A 
ATOM     22  O   UNL     1       4.355  -7.209 -10.028  0.00  0.00    -0.468 OA
ENDBRANCH  16  18
BRANCH  11  23
ATOM     23  N   UNL     1       8.011  -1.671  -7.118  0.00  0.00    -0.299 N 
ATOM     24  H   UNL     1       8.023  -1.560  -8.213  0.00  0.00    +0.154 HD
BRANCH  23  25
ATOM     25  C   UNL     1       8.684  -0.745  -6.315  0.00  0.00    +0.032 A 
ATOM     26  C   UNL     1       8.275  -0.534  -5.004  0.00  0.00    +0.025 A 
ATOM     27  C   UNL     1       8.945   0.377  -4.211  0.00  0.00    +0.022 A 
ATOM     28  C   UNL     1      10.016   1.088  -4.725  0.00  0.00    +0.041 A 
ATOM     29  C   UNL     1      10.422   0.883  -6.032  0.00  0.00    +0.022 A 
ATOM     30  C   UNL     1       9.759  -0.031  -6.827  0.00  0.00    +0.025 A 
ATOM     31 CL   UNL     1      10.851   2.238  -3.728  0.00  0.00    -0.084 Cl
ENDBRANCH  23  25
ENDBRANCH  11  23
BRANCH   1  32
ATOM     32  C   UNL     1       6.642  -3.620   0.873  0.00  0.00    +0.119 C 
BRANCH  32  36
ATOM     33  C   UNL     1       2.837  -2.932   2.689  0.00  0.00    +0.000 A 
ATOM     34  C   UNL     1       3.729  -1.887   2.536  0.00  0.00    +0.000 A 
ATOM     35  C   UNL     1       4.960  -2.110   1.949  0.00  0.00    +0.005 A 
ATOM     36  C   UNL     1       5.299  -3.377   1.514  0.00  0.00    -0.033 A 
ATOM     37  C   UNL     1       4.407  -4.422   1.667  0.00  0.00    +0.005 A 
ATOM     38  C   UNL     1       3.176  -4.200   2.254  0.00  0.00    +0.000 A 
ENDBRANCH  32  36
ENDBRANCH   1  32
TORSDOF 5
