REMARK  Name = ZINC20888695
REMARK  7 active torsions:
REMARK  status: ('A' for Active; 'I' for Inactive)
REMARK    1  A    between atoms: C_1  and  C_2
REMARK    2  A    between atoms: C_6  and  N_32
REMARK    3  A    between atoms: C_7  and  N_8
REMARK    4  A    between atoms: C_9  and  C_11
REMARK    5  A    between atoms: C_11  and  S_12
REMARK    6  A    between atoms: S_12  and  C_13
REMARK    7  A    between atoms: N_26  and  C_27
REMARK                            x       y       z     vdW  Elec       q    Type
REMARK                         _______ _______ _______ _____ _____    ______ ____
ROOT
ATOM      1  C   UNL     1      -4.337   0.148   1.042  0.00  0.00    +0.173 A 
ATOM      2  N   UNL     1      -4.070  -0.979   0.412  0.00  0.00    -0.216 NA
ATOM      3  C   UNL     1      -4.986  -1.934   0.309  0.00  0.00    +0.117 A 
ATOM      4  C   UNL     1      -6.272  -1.799   0.858  0.00  0.00    +0.076 A 
ATOM      5  C   UNL     1      -7.173  -2.936   0.663  0.00  0.00    -0.023 A 
ATOM      6  C   UNL     1      -6.686  -3.993  -0.018  0.00  0.00    -0.004 A 
ATOM      7  S   UNL     1      -5.023  -3.545  -0.434  0.00  0.00    -0.073 S 
ATOM      8  C   UNL     1      -7.402  -5.267  -0.348  0.00  0.00    +0.043 C 
ATOM      9  C   UNL     1      -8.663  -5.355   0.522  0.00  0.00    +0.005 C 
ATOM     10  C   UNL     1      -9.402  -4.015   0.454  0.00  0.00    +0.005 C 
ATOM     11  C   UNL     1      -8.603  -2.944   1.198  0.00  0.00    +0.037 C 
ATOM     12  C   UNL     1      -6.534  -0.567   1.537  0.00  0.00    +0.263 A 
ATOM     13  O   UNL     1      -7.623  -0.360   2.045  0.00  0.00    -0.267 OA
ATOM     14  N   UNL     1      -5.560   0.360   1.610  0.00  0.00    -0.284 N 
ENDROOT
BRANCH  14  15
ATOM     15  C   UNL     1      -5.820   1.622   2.307  0.00  0.00    +0.093 C 
ATOM     16  C   UNL     1      -6.139   1.349   3.792  0.00  0.00    +0.025 C 
ATOM     17  C   UNL     1      -7.235   2.388   4.141  0.00  0.00    +0.002 C 
ATOM     18  C   UNL     1      -8.090   2.431   2.850  0.00  0.00    +0.002 C 
ATOM     19  C   UNL     1      -7.059   2.310   1.709  0.00  0.00    +0.025 C 
ENDBRANCH  14  15
BRANCH   1  20
ATOM     20  S   UNL     1      -3.097   1.394   1.160  0.00  0.00    -0.078 S 
BRANCH  20  21
ATOM     21  C   UNL     1      -1.748   0.579   0.269  0.00  0.00    +0.173 C 
BRANCH  21  23
ATOM     22  N   UNL     1       0.586   1.087  -0.373  0.00  0.00    -0.283 N 
ATOM     23  C   UNL     1      -0.545   1.486   0.241  0.00  0.00    +0.228 C 
ATOM     24  O   UNL     1      -0.594   2.576   0.771  0.00  0.00    -0.275 OA
ATOM     25  H   UNL     1       0.603   0.139  -0.932  0.00  0.00    +0.155 HD
BRANCH  22  32
ATOM     26  C   UNL     1       0.424   3.786  -1.260  0.00  0.00    +0.046 C 
ATOM     27  C   UNL     1       1.704   3.199  -0.722  0.00  0.00    -0.027 A 
ATOM     28  C   UNL     1       2.843   3.976  -0.649  0.00  0.00    +0.005 A 
ATOM     29  C   UNL     1       4.018   3.439  -0.156  0.00  0.00    +0.003 A 
ATOM     30  C   UNL     1       4.056   2.122   0.265  0.00  0.00    +0.034 A 
ATOM     31  C   UNL     1       2.919   1.341   0.199  0.00  0.00    +0.148 A 
ATOM     32  C   UNL     1       1.739   1.877  -0.300  0.00  0.00    +0.067 A 
BRANCH  31  33
ATOM     33  N   UNL     1       2.959  -0.066   0.656  0.00  0.00    +0.058 N 
ATOM     34  O   UNL     1       4.016  -0.566   0.997  0.00  0.00    -0.126 OA
ATOM     35  O   UNL     1       1.935  -0.725   0.689  0.00  0.00    -0.126 OA
ENDBRANCH  31  33
ENDBRANCH  22  32
ENDBRANCH  21  23
ENDBRANCH  20  21
ENDBRANCH   1  20
TORSDOF 6
