REMARK  Name = ZINC12270833
REMARK  13 active torsions:
REMARK  status: ('A' for Active; 'I' for Inactive)
REMARK    1  A    between atoms: C_1  and  C_2
REMARK    2  A    between atoms: C_2  and  N_3
REMARK    3  A    between atoms: N_3  and  C_4
REMARK    4  A    between atoms: C_5  and  N_20
REMARK    5  A    between atoms: N_6  and  C_13
REMARK    6  A    between atoms: C_13  and  C_14
REMARK    7  A    between atoms: C_21  and  C_23
REMARK    8  A    between atoms: C_23  and  S_24
REMARK    9  A    between atoms: S_24  and  C_25
REMARK   10  A    between atoms: C_28  and  C_31
REMARK   11  A    between atoms: C_31  and  C_32
REMARK   12  A    between atoms: C_31  and  C_33
REMARK   13  A    between atoms: C_31  and  C_34
REMARK                            x       y       z     vdW  Elec       q    Type
REMARK                         _______ _______ _______ _____ _____    ______ ____
ROOT
ATOM      1  C   UNL     1       4.364   7.786  -0.008  0.00  0.00    +0.140 A 
ATOM      2  C   UNL     1       3.772   8.531  -1.007  0.00  0.00    +0.128 A 
ATOM      3  N   UNL     1       3.969   9.892  -1.036  0.00  0.00    -0.276 N 
ATOM      4  C   UNL     1       4.738  10.489  -0.107  0.00  0.00    +0.331 A 
ATOM      5  O   UNL     1       4.904  11.693  -0.152  0.00  0.00    -0.246 OA
ATOM      6  N   UNL     1       5.328   9.778   0.871  0.00  0.00    -0.273 N 
ATOM      7  H   UNL     1       5.895  10.245   1.549  0.00  0.00    +0.173 HD
ATOM      8  C   UNL     1       5.163   8.443   0.947  0.00  0.00    +0.277 A 
ATOM      9  O   UNL     1       5.702   7.808   1.838  0.00  0.00    -0.266 OA
ENDROOT
BRANCH   1  10
ATOM     10  N   UNL     1       4.178   6.389   0.051  0.00  0.00    -0.264 N 
ATOM     11  C   UNL     1       2.944   5.881   0.254  0.00  0.00    +0.230 C 
ATOM     12  O   UNL     1       2.010   6.624   0.468  0.00  0.00    -0.274 OA
BRANCH  10  14
ATOM     13  C   UNL     1       5.526   5.178  -1.591  0.00  0.00    +0.025 C 
ATOM     14  C   UNL     1       5.323   5.489  -0.107  0.00  0.00    +0.110 C 
ENDBRANCH  10  14
BRANCH  11  15
ATOM     15  C   UNL     1       2.727   4.390   0.214  0.00  0.00    +0.170 C 
BRANCH  15  16
ATOM     16  S   UNL     1       0.977   4.025   0.521  0.00  0.00    -0.116 S 
BRANCH  16  17
ATOM     17  C   UNL     1       0.887   2.267   0.443  0.00  0.00    +0.008 A 
ATOM     18  C   UNL     1      -0.329   1.623   0.635  0.00  0.00    +0.015 A 
ATOM     19  C   UNL     1      -0.395   0.245   0.574  0.00  0.00    +0.005 A 
ATOM     20  C   UNL     1       0.747  -0.493   0.321  0.00  0.00    -0.042 A 
ATOM     21  C   UNL     1       1.959   0.145   0.129  0.00  0.00    +0.005 A 
ATOM     22  C   UNL     1       2.033   1.522   0.191  0.00  0.00    +0.015 A 
BRANCH  20  23
ATOM     23  C   UNL     1       0.671  -1.997   0.253  0.00  0.00    -0.013 C 
ATOM     24  C   UNL     1      -0.292  -2.409  -0.862  0.00  0.00    +0.015 C 
ATOM     25  C   UNL     1       2.061  -2.566  -0.037  0.00  0.00    +0.015 C 
ATOM     26  C   UNL     1       0.166  -2.542   1.591  0.00  0.00    +0.015 C 
ENDBRANCH  20  23
ENDBRANCH  16  17
ENDBRANCH  15  16
ENDBRANCH  11  15
ENDBRANCH   1  10
BRANCH   2  27
ATOM     27  N   UNL     1       2.990   7.921  -1.959  0.00  0.00    -0.343 N 
ATOM     28  H   UNL     1       2.939   6.954  -1.996  0.00  0.00    +0.144 HD
ATOM     29  H   UNL     1       2.490   8.459  -2.592  0.00  0.00    +0.144 HD
ENDBRANCH   2  27
BRANCH   3  30
ATOM     30  C   UNL     1       3.342  10.697  -2.088  0.00  0.00    +0.163 C 
BRANCH  30  31
ATOM     31  C   UNL     1       4.269  10.784  -3.273  0.00  0.00    -0.028 A 
ATOM     32  C   UNL     1       5.185  11.816  -3.359  0.00  0.00    +0.005 A 
ATOM     33  C   UNL     1       6.039  11.893  -4.443  0.00  0.00    +0.000 A 
ATOM     34  C   UNL     1       5.969  10.945  -5.447  0.00  0.00    +0.000 A 
ATOM     35  C   UNL     1       5.049   9.917  -5.364  0.00  0.00    +0.000 A 
ATOM     36  C   UNL     1       4.199   9.836  -4.277  0.00  0.00    +0.005 A 
ENDBRANCH  30  31
ENDBRANCH   3  30
TORSDOF 9
