REMARK  Name = ZINC39687660
REMARK  9 active torsions:
REMARK  status: ('A' for Active; 'I' for Inactive)
REMARK    1  A    between atoms: C_1  and  C_2
REMARK    2  A    between atoms: C_2  and  C_3
REMARK    3  A    between atoms: C_3  and  C_4
REMARK    4  A    between atoms: C_4  and  C_5
REMARK    5  A    between atoms: C_5  and  C_6
REMARK    6  A    between atoms: C_6  and  C_7
REMARK    7  A    between atoms: C_11  and  C_20
REMARK    8  A    between atoms: N_22  and  C_23
REMARK    9  A    between atoms: C_30  and  C_35
REMARK                            x       y       z     vdW  Elec       q    Type
REMARK                         _______ _______ _______ _____ _____    ______ ____
ROOT
ATOM      1  C   UNL     1       2.226  -4.569   3.779  0.00  0.00    +0.216 C 
ATOM      2  O   UNL     1       2.734  -3.797   4.564  0.00  0.00    -0.276 OA
ATOM      3  N   UNL     1       2.385  -5.898   3.941  0.00  0.00    -0.300 N 
ATOM      4  C   UNL     1       1.852  -6.987   3.090  0.00  0.00    +0.121 C 
ATOM      5  C   UNL     1       2.992  -8.029   3.029  0.00  0.00    +0.100 C 
ATOM      6  C   UNL     1       3.828  -7.770   4.294  0.00  0.00    -0.004 C 
ATOM      7  C   UNL     1       3.138  -6.599   5.009  0.00  0.00    +0.115 C 
ATOM      8  C   UNL     1       5.254  -7.383   3.915  0.00  0.00    -0.010 C 
ATOM      9  C   UNL     1       6.080  -7.186   5.189  0.00  0.00    -0.082 C 
ATOM     10  N   UNL     1       6.080  -8.429   5.971  0.00  0.00    +0.379 N 
ATOM     11  C   UNL     1       4.716  -8.745   6.410  0.00  0.00    -0.082 C 
ATOM     12  C   UNL     1       3.832  -9.007   5.187  0.00  0.00    -0.010 C 
ATOM     13  H   UNL     1       6.432  -9.183   5.400  0.00  0.00    -0.086 HD
ATOM     14  H   UNL     1       6.675  -8.316   6.778  0.00  0.00    -0.086 HD
ENDROOT
BRANCH   5  15
ATOM     15  C   UNL     1       2.428  -9.426   3.047  0.00  0.00    +0.218 C 
ATOM     16  O   UNL     1       1.387  -9.652   3.627  0.00  0.00    -0.275 OA
ATOM     17  N   UNL     1       3.080 -10.424   2.419  0.00  0.00    -0.312 N 
ATOM     18  H   UNL     1       3.912 -10.243   1.955  0.00  0.00    +0.149 HD
BRANCH  17  19
ATOM     19  C   UNL     1       2.531 -11.783   2.436  0.00  0.00    +0.076 C 
ATOM     20  C   UNL     1       1.509 -11.934   1.307  0.00  0.00    +0.041 C 
ATOM     21  C   UNL     1       0.913 -13.345   1.349  0.00  0.00    +0.108 C 
ATOM     22  N   UNL     1       2.008 -14.323   1.307  0.00  0.00    -0.316 N 
ATOM     23  C   UNL     1       3.092 -14.212   2.293  0.00  0.00    +0.108 C 
ATOM     24  C   UNL     1       3.664 -12.792   2.240  0.00  0.00    +0.041 C 
ATOM     25  C   UNL     1       2.019 -15.334   0.353  0.00  0.00    +0.102 A 
ATOM     26  C   UNL     1       1.328 -16.517   0.596  0.00  0.00    -0.012 A 
ATOM     27  C   UNL     1       1.347 -17.515  -0.362  0.00  0.00    +0.008 A 
ATOM     28  C   UNL     1       2.058 -17.295  -1.534  0.00  0.00    +0.018 A 
ATOM     29  C   UNL     1       2.721 -16.097  -1.708  0.00  0.00    +0.084 A 
ATOM     30  N   UNL     1       2.681 -15.160  -0.779  0.00  0.00    -0.349 N 
ATOM     31  C   UNL     1       0.570 -16.709   1.884  0.00  0.00    +0.047 C 
ATOM     32  H   UNL     1       3.152 -14.325  -0.929  0.00  0.00    +0.167 HD
ENDBRANCH  17  19
ENDBRANCH   5  15
BRANCH   1  33
ATOM     33  C   UNL     1       1.418  -4.044   2.620  0.00  0.00    +0.096 C 
BRANCH  33  34
ATOM     34  C   UNL     1       1.395  -2.514   2.667  0.00  0.00    +0.009 C 
BRANCH  34  35
ATOM     35  C   UNL     1       0.574  -1.981   1.492  0.00  0.00    +0.000 C 
BRANCH  35  36
ATOM     36  C   UNL     1       0.551  -0.452   1.538  0.00  0.00    -0.000 C 
BRANCH  36  38
ATOM     37  C   UNL     1      -0.293   1.611   0.409  0.00  0.00    +0.004 C 
ATOM     38  C   UNL     1      -0.270   0.082   0.363  0.00  0.00    -0.003 C 
ENDBRANCH  36  38
ENDBRANCH  35  36
ENDBRANCH  34  35
ENDBRANCH  33  34
ENDBRANCH   1  33
TORSDOF 7
