REMARK  Name = ZINC12497572
REMARK  8 active torsions:
REMARK  status: ('A' for Active; 'I' for Inactive)
REMARK    1  A    between atoms: C_1  and  O_2
REMARK    2  A    between atoms: O_2  and  C_3
REMARK    3  A    between atoms: C_3  and  C_5
REMARK    4  A    between atoms: C_5  and  C_31
REMARK    5  A    between atoms: C_10  and  C_12
REMARK    6  A    between atoms: N_21  and  C_24
REMARK    7  A    between atoms: C_31  and  C_32
REMARK    8  A    between atoms: C_35  and  O_38
REMARK                            x       y       z     vdW  Elec       q    Type
REMARK                         _______ _______ _______ _____ _____    ______ ____
ROOT
ATOM      1  C   UNL     1      -0.729   1.579   1.267  0.00  0.00    +0.048 C 
ATOM      2  C   UNL     1      -0.075   1.032   2.483  0.00  0.00    +0.086 C 
ATOM      3  C   UNL     1      -1.280   1.042   3.506  0.00  0.00    +0.077 C 
ATOM      4  C   UNL     1      -2.296   0.343   2.635  0.00  0.00    -0.027 C 
ATOM      5  C   UNL     1      -0.571   0.465   4.669  0.00  0.00    +0.229 C 
ATOM      6  O   UNL     1      -1.022  -0.287   5.506  0.00  0.00    -0.275 OA
ATOM      7  N   UNL     1       0.705   0.960   4.598  0.00  0.00    -0.207 N 
ATOM      8  C   UNL     1       0.993   1.497   3.369  0.00  0.00    +0.229 C 
ATOM      9  O   UNL     1       1.926   2.214   3.075  0.00  0.00    -0.275 OA
ATOM     10  N   UNL     1      -2.118   1.042   1.327  0.00  0.00    +0.396 N 
ATOM     11  H   UNL     1      -2.268   0.379   0.556  0.00  0.00    -0.083 HD
ATOM     12  H   UNL     1      -2.792   1.812   1.251  0.00  0.00    -0.083 HD
ENDROOT
BRANCH   4  13
ATOM     13  C   UNL     1      -3.691   0.537   3.171  0.00  0.00    -0.058 A 
ATOM     14  C   UNL     1      -4.336  -0.503   3.814  0.00  0.00    +0.002 A 
ATOM     15  C   UNL     1      -5.615  -0.326   4.306  0.00  0.00    +0.003 A 
ATOM     16  C   UNL     1      -6.252   0.891   4.156  0.00  0.00    +0.038 A 
ATOM     17  C   UNL     1      -5.607   1.934   3.513  0.00  0.00    +0.124 A 
ATOM     18  C   UNL     1      -4.323   1.757   3.025  0.00  0.00    +0.040 A 
ATOM     19  F   UNL     1      -6.228   3.125   3.366  0.00  0.00    -0.205 F 
ENDBRANCH   4  13
BRANCH   7  20
ATOM     20  C   UNL     1       1.615   0.924   5.665  0.00  0.00    +0.079 A 
ATOM     21  C   UNL     1       2.462  -0.165   5.820  0.00  0.00    +0.027 A 
ATOM     22  C   UNL     1       3.357  -0.198   6.871  0.00  0.00    +0.002 A 
ATOM     23  C   UNL     1       3.412   0.851   7.770  0.00  0.00    +0.003 A 
ATOM     24  C   UNL     1       2.571   1.938   7.620  0.00  0.00    +0.040 A 
ATOM     25  C   UNL     1       1.675   1.980   6.566  0.00  0.00    +0.145 A 
ATOM     26  F   UNL     1       0.856   3.044   6.417  0.00  0.00    -0.204 F 
ENDBRANCH   7  20
BRANCH   1  27
ATOM     27  C   UNL     1      -0.742   3.086   1.307  0.00  0.00    +0.297 C 
ATOM     28  O   UNL     1       0.106   3.681   1.930  0.00  0.00    -0.252 OA
BRANCH  27  30
ATOM     29  C   UNL     1      -1.644   5.215   0.733  0.00  0.00    +0.280 C 
ATOM     30  O   UNL     1      -1.694   3.766   0.650  0.00  0.00    -0.469 OA
ENDBRANCH  27  30
ENDBRANCH   1  27
BRANCH   1  31
ATOM     31  C   UNL     1      -0.013   1.086   0.008  0.00  0.00    +0.034 C 
BRANCH  31  32
ATOM     32  C   UNL     1      -0.742   1.585  -1.213  0.00  0.00    -0.048 A 
ATOM     33  C   UNL     1      -1.750   0.824  -1.774  0.00  0.00    +0.007 A 
ATOM     34  C   UNL     1      -2.423   1.282  -2.890  0.00  0.00    +0.045 A 
ATOM     35  C   UNL     1      -2.079   2.501  -3.454  0.00  0.00    +0.117 A 
ATOM     36  C   UNL     1      -1.063   3.261  -2.893  0.00  0.00    +0.045 A 
ATOM     37  C   UNL     1      -0.397   2.801  -1.773  0.00  0.00    +0.007 A 
BRANCH  35  38
ATOM     38  O   UNL     1      -2.736   2.951  -4.556  0.00  0.00    -0.507 OA
ATOM     39  H   UNL     1      -2.336   2.675  -5.392  0.00  0.00    +0.292 HD
ENDBRANCH  35  38
ENDBRANCH  31  32
ENDBRANCH   1  31
TORSDOF 7
