REMARK  Name = ZINC61541987
REMARK  2 active torsions:
REMARK  status: ('A' for Active; 'I' for Inactive)
REMARK    1  A    between atoms: C_1  and  C_2
REMARK    2  A    between atoms: C_8  and  C_10
REMARK                            x       y       z     vdW  Elec       q    Type
REMARK                         _______ _______ _______ _____ _____    ______ ____
ROOT
ATOM      1  C   UNL     1      -0.105   1.447   0.299  0.00  0.00    +0.009 C 
ATOM      2  C   UNL     1      -0.040  -0.069   0.102  0.00  0.00    +0.006 C 
ATOM      3  C   UNL     1       0.692  -0.383  -1.205  0.00  0.00    +0.006 C 
ATOM      4  C   UNL     1       0.728  -1.898  -1.420  0.00  0.00    +0.019 C 
ATOM      5  C   UNL     1       1.493  -2.555  -0.267  0.00  0.00    +0.108 C 
ATOM      6  N   UNL     1       0.882  -2.140   1.004  0.00  0.00    -0.296 N 
ATOM      7  C   UNL     1       0.715  -0.705   1.272  0.00  0.00    +0.076 C 
ATOM      8  C   UNL     1      -0.084  -0.514   2.563  0.00  0.00    +0.028 C 
ATOM      9  C   UNL     1       0.472  -3.080   1.927  0.00  0.00    +0.224 A 
ATOM     10  N   UNL     1       0.527  -4.375   1.628  0.00  0.00    -0.177 NA
ATOM     11  C   UNL     1       0.132  -5.275   2.518  0.00  0.00    +0.258 A 
ATOM     12  N   UNL     1      -0.317  -4.883   3.705  0.00  0.00    -0.180 NA
ATOM     13  C   UNL     1      -0.371  -3.594   4.002  0.00  0.00    +0.229 A 
ATOM     14  N   UNL     1       0.026  -2.693   3.119  0.00  0.00    -0.184 NA
ATOM     15 CL   UNL     1      -0.959  -3.086   5.554  0.00  0.00    -0.041 Cl
ATOM     16  N   UNL     1       0.188  -6.632   2.208  0.00  0.00    -0.186 N 
ATOM     17  C   UNL     1      -0.181  -7.660   3.001  0.00  0.00    +0.228 A 
ATOM     18  N   UNL     1       0.025  -8.771   2.344  0.00  0.00    -0.222 NA
ATOM     19  C   UNL     1       0.520  -8.499   1.137  0.00  0.00    +0.245 A 
ATOM     20  N   UNL     1       0.633  -7.204   1.005  0.00  0.00    -0.151 NA
ENDROOT
TORSDOF 0
