REMARK  Name = ZINC03006869
REMARK  12 active torsions:
REMARK  status: ('A' for Active; 'I' for Inactive)
REMARK    1  A    between atoms: C_1  and  C_2
REMARK    2  A    between atoms: C_2  and  N_3
REMARK    3  A    between atoms: N_3  and  C_4
REMARK    4  A    between atoms: N_3  and  S_6
REMARK    5  A    between atoms: C_4  and  C_5
REMARK    6  A    between atoms: S_6  and  C_9
REMARK    7  A    between atoms: C_12  and  C_15
REMARK    8  A    between atoms: N_17  and  C_18
REMARK    9  A    between atoms: C_19  and  C_27
REMARK   10  A    between atoms: C_26  and  N_58
REMARK   11  A    between atoms: C_27  and  O_29
REMARK   12  A    between atoms: O_29  and  C_30
REMARK                            x       y       z     vdW  Elec       q    Type
REMARK                         _______ _______ _______ _____ _____    ______ ____
ROOT
ATOM      1  C   UNL     1       2.215   2.522   3.518  0.00  0.00    +0.249 C 
ATOM      2  O   UNL     1       3.244   3.135   3.307  0.00  0.00    -0.270 OA
ATOM      3  N   UNL     1       1.468   2.083   2.486  0.00  0.00    -0.275 N 
ATOM      4  H   UNL     1       0.648   1.594   2.655  0.00  0.00    +0.156 HD
ENDROOT
BRANCH   3   5
ATOM      5  C   UNL     1       1.872   2.330   1.185  0.00  0.00    +0.086 A 
ATOM      6  C   UNL     1       1.244   1.962   0.001  0.00  0.00    +0.091 A 
ATOM      7  C   UNL     1       1.879   2.354  -1.243  0.00  0.00    -0.025 A 
ATOM      8  C   UNL     1       3.037   3.040  -1.109  0.00  0.00    -0.021 A 
ATOM      9  S   UNL     1       3.286   3.170   0.637  0.00  0.00    -0.079 S 
ATOM     10  C   UNL     1       3.894   3.561  -2.220  0.00  0.00    -0.036 C 
ATOM     11  C   UNL     1       2.016   2.977  -3.634  0.00  0.00    -0.074 C 
ATOM     12  C   UNL     1       1.329   2.045  -2.631  0.00  0.00    +0.018 C 
ATOM     13  C   UNL     1       4.162   3.494  -4.631  0.00  0.00    -0.096 C 
ATOM     14  N   UNL     1       3.481   2.879  -3.470  0.00  0.00    +0.381 N 
ATOM     15  H   UNL     1       3.745   1.889  -3.414  0.00  0.00    -0.082 HD
BRANCH   6  16
ATOM     16  C   UNL     1      -0.014   1.212   0.009  0.00  0.00    +0.342 C 
ATOM     17  O   UNL     1       0.002  -0.004   0.002  0.00  0.00    -0.245 OA
BRANCH  16  18
ATOM     18  O   UNL     1      -1.192   1.871   0.018  0.00  0.00    -0.464 OA
ATOM     19  C   UNL     1      -2.398   1.063   0.019  0.00  0.00    +0.280 C 
ENDBRANCH  16  18
ENDBRANCH   6  16
ENDBRANCH   3   5
BRANCH   1  23
ATOM     20  C   UNL     1       0.976   1.766   7.510  0.00  0.00    +0.106 A 
ATOM     21  C   UNL     1       2.147   2.463   7.273  0.00  0.00    +0.029 A 
ATOM     22  C   UNL     1       2.556   2.712   5.979  0.00  0.00    +0.015 A 
ATOM     23  C   UNL     1       1.784   2.259   4.907  0.00  0.00    +0.037 A 
ATOM     24  C   UNL     1       0.601   1.560   5.154  0.00  0.00    +0.015 A 
ATOM     25  C   UNL     1       0.207   1.313   6.452  0.00  0.00    +0.029 A 
BRANCH  20  26
ATOM     26  S   UNL     1       0.462   1.453   9.166  0.00  0.00    +0.061 S 
ATOM     27  O   UNL     1      -0.382   0.310   9.119  0.00  0.00    -0.153 OA
ATOM     28  O   UNL     1       1.632   1.504   9.971  0.00  0.00    -0.153 OA
BRANCH  26  29
ATOM     29  N   UNL     1      -0.489   2.725   9.632  0.00  0.00    -0.177 NA
BRANCH  29  31
ATOM     30  C   UNL     1      -2.635   2.169  10.666  0.00  0.00    +0.022 C 
ATOM     31  C   UNL     1      -1.936   2.680   9.405  0.00  0.00    +0.106 C 
ENDBRANCH  29  31
BRANCH  29  32
ATOM     32  C   UNL     1       0.116   3.896  10.272  0.00  0.00    +0.106 C 
ATOM     33  C   UNL     1       0.397   4.967   9.216  0.00  0.00    +0.022 C 
ENDBRANCH  29  32
ENDBRANCH  26  29
ENDBRANCH  20  26
ENDBRANCH   1  23
TORSDOF 8
