REMARK  Name = ZINC41715004
REMARK  5 active torsions:
REMARK  status: ('A' for Active; 'I' for Inactive)
REMARK    1  A    between atoms: C_1  and  C_2
REMARK    2  A    between atoms: C_2  and  C_22
REMARK    3  A    between atoms: N_8  and  C_9
REMARK    4  A    between atoms: C_13  and  N_15
REMARK    5  A    between atoms: C_18  and  O_21
REMARK                            x       y       z     vdW  Elec       q    Type
REMARK                         _______ _______ _______ _____ _____    ______ ____
ROOT
ATOM      1  C   UNL     1      -0.019   1.526   0.010  0.00  0.00    +0.011 C 
ATOM      2  C   UNL     1       0.002  -0.004   0.002  0.00  0.00    -0.027 C 
ATOM      3  C   UNL     1       0.719  -0.498  -1.260  0.00  0.00    +0.060 C 
ATOM      4  C   UNL     1       0.945  -1.984  -1.128  0.00  0.00    +0.030 A 
ATOM      5  C   UNL     1       0.867  -2.661   0.040  0.00  0.00    +0.002 A 
ATOM      6  C   UNL     1       1.134  -4.011  -0.231  0.00  0.00    +0.026 A 
ATOM      7  C   UNL     1       1.369  -4.116  -1.558  0.00  0.00    +0.092 A 
ATOM      8  N   UNL     1       1.255  -2.871  -2.113  0.00  0.00    -0.320 N 
ATOM      9  C   UNL     1       0.547  -2.027   1.370  0.00  0.00    +0.147 C 
ATOM     10  C   UNL     1       0.743  -0.511   1.242  0.00  0.00    +0.043 C 
ATOM     11  C   UNL     1      -1.433  -0.533   0.013  0.00  0.00    +0.011 C 
ENDROOT
BRANCH   8  12
ATOM     12  C   UNL     1       1.427  -2.561  -3.469  0.00  0.00    +0.048 A 
ATOM     13  C   UNL     1       0.471  -1.808  -4.137  0.00  0.00    +0.026 A 
ATOM     14  C   UNL     1       0.644  -1.504  -5.473  0.00  0.00    +0.004 A 
ATOM     15  C   UNL     1       1.767  -1.950  -6.146  0.00  0.00    +0.033 A 
ATOM     16  C   UNL     1       2.721  -2.700  -5.483  0.00  0.00    +0.128 A 
ATOM     17  C   UNL     1       2.557  -3.002  -4.145  0.00  0.00    +0.058 A 
BRANCH  16  18
ATOM     18  N   UNL     1       3.921  -3.175  -6.206  0.00  0.00    +0.056 N 
ATOM     19  O   UNL     1       4.068  -2.908  -7.376  0.00  0.00    -0.126 OA
ATOM     20  O   UNL     1       4.756  -3.832  -5.627  0.00  0.00    -0.126 OA
ENDBRANCH  16  18
ENDBRANCH   8  12
BRANCH   9  21
ATOM     21  O   UNL     1       1.425  -2.543   2.373  0.00  0.00    -0.387 OA
ATOM     22  H   UNL     1       1.365  -3.501   2.493  0.00  0.00    +0.210 HD
ENDBRANCH   9  21
TORSDOF 3
