REMARK  Name = ZINC55749817
REMARK  10 active torsions:
REMARK  status: ('A' for Active; 'I' for Inactive)
REMARK    1  A    between atoms: C_1  and  C_2
REMARK    2  A    between atoms: C_5  and  C_29
REMARK    3  A    between atoms: N_8  and  C_10
REMARK    4  A    between atoms: C_10  and  C_11
REMARK    5  A    between atoms: C_11  and  C_13
REMARK    6  A    between atoms: C_11  and  N_14
REMARK    7  A    between atoms: C_15  and  C_17
REMARK    8  A    between atoms: C_17  and  C_18
REMARK    9  A    between atoms: C_18  and  C_20
REMARK   10  A    between atoms: C_18  and  N_25
REMARK                            x       y       z     vdW  Elec       q    Type
REMARK                         _______ _______ _______ _____ _____    ______ ____
ROOT
ATOM      1  N   UNL     1       2.109   1.674   3.488  0.00  0.00    -0.314 N 
ATOM      2  C   UNL     1       1.173   2.414   4.115  0.00  0.00    +0.215 C 
ATOM      3  O   UNL     1       0.353   1.876   4.829  0.00  0.00    -0.276 OA
ATOM      4  H   UNL     1       2.765   2.105   2.918  0.00  0.00    +0.149 HD
ENDROOT
BRANCH   1   5
ATOM      5  C   UNL     1       2.136   0.221   3.668  0.00  0.00    +0.053 C 
ATOM      6  C   UNL     1       2.924  -0.122   4.934  0.00  0.00    +0.026 C 
BRANCH   5   7
ATOM      7  C   UNL     1       2.808  -0.431   2.458  0.00  0.00    -0.057 C 
BRANCH   7  13
ATOM      8  C   UNL     1      -0.019   1.526   0.010  0.00  0.00    +0.005 C 
ATOM      9  C   UNL     1       0.002  -0.004   0.002  0.00  0.00    -0.031 C 
ATOM     10  C   UNL     1       0.721  -0.499  -1.257  0.00  0.00    +0.003 C 
ATOM     11  C   UNL     1       2.177  -0.027  -1.220  0.00  0.00    -0.031 C 
ATOM     12  C   UNL     1       2.839  -0.534   0.063  0.00  0.00    -0.076 C 
ATOM     13  N   UNL     1       2.123  -0.005   1.230  0.00  0.00    +0.381 N 
ATOM     14  C   UNL     1       0.744  -0.512   1.240  0.00  0.00    -0.076 C 
ATOM     15  C   UNL     1       2.924  -0.581  -2.434  0.00  0.00    +0.005 C 
ATOM     16  H   UNL     1       2.109   1.003   1.187  0.00  0.00    -0.082 HD
ENDBRANCH   7  13
ENDBRANCH   5   7
ENDBRANCH   1   5
BRANCH   2  17
ATOM     17  C   UNL     1       1.145   3.909   3.930  0.00  0.00    +0.123 C 
BRANCH  17  18
ATOM     18  C   UNL     1      -0.006   4.503   4.745  0.00  0.00    +0.120 C 
BRANCH  18  19
ATOM     19  N   UNL     1      -1.282   4.022   4.210  0.00  0.00    -0.292 N 
ATOM     20  C   UNL     1      -1.619   4.285   2.931  0.00  0.00    +0.298 C 
ATOM     21  O   UNL     1      -0.863   4.921   2.222  0.00  0.00    -0.253 OA
ATOM     22  N   UNL     1      -2.792   3.843   2.439  0.00  0.00    -0.313 N 
ATOM     23  H   UNL     1      -1.885   3.514   4.775  0.00  0.00    +0.151 HD
ATOM     24  H   UNL     1      -3.395   3.335   3.004  0.00  0.00    +0.146 HD
ATOM     25  H   UNL     1      -3.035   4.032   1.519  0.00  0.00    +0.146 HD
ENDBRANCH  18  19
BRANCH  18  26
ATOM     26  C   UNL     1       0.040   6.006   4.659  0.00  0.00    +0.010 A 
ATOM     27  C   UNL     1       0.533   6.898   5.553  0.00  0.00    +0.013 A 
ATOM     28  C   UNL     1       0.469   8.247   5.259  0.00  0.00    +0.008 A 
ATOM     29  C   UNL     1      -0.084   8.639   4.085  0.00  0.00    +0.045 A 
ATOM     30  S   UNL     1      -0.532   7.075   3.348  0.00  0.00    -0.100 S 
ENDBRANCH  18  26
ENDBRANCH  17  18
ENDBRANCH   2  17
TORSDOF 7
