REMARK  Name = ZINC01795163
REMARK  13 active torsions:
REMARK  status: ('A' for Active; 'I' for Inactive)
REMARK    1  A    between atoms: C_1  and  C_2
REMARK    2  A    between atoms: C_2  and  C_3
REMARK    3  A    between atoms: C_3  and  C_4
REMARK    4  A    between atoms: C_4  and  C_5
REMARK    5  A    between atoms: C_5  and  C_6
REMARK    6  A    between atoms: C_6  and  O_7
REMARK    7  A    between atoms: O_7  and  C_8
REMARK    8  A    between atoms: C_8  and  C_10
REMARK    9  A    between atoms: C_15  and  N_16
REMARK   10  A    between atoms: N_16  and  C_17
REMARK   11  A    between atoms: C_18  and  C_19
REMARK   12  A    between atoms: C_18  and  C_21
REMARK   13  A    between atoms: C_23  and  C_26
REMARK                            x       y       z     vdW  Elec       q    Type
REMARK                         _______ _______ _______ _____ _____    ______ ____
ROOT
ATOM      1  C   UNL     1       2.350 -10.029   4.514  0.00  0.00    +0.093 C 
ATOM      2  C   UNL     1       1.818 -10.879   3.591  0.00  0.00    +0.098 C 
ENDROOT
BRANCH   2   3
ATOM      3  C   UNL     1       1.210 -10.343   2.358  0.00  0.00    +0.120 A 
ATOM      4  N   UNL     1       0.244  -9.446   2.222  0.00  0.00    -0.238 NA
ATOM      5  C   UNL     1      -0.184  -9.077   1.027  0.00  0.00    +0.086 A 
ATOM      6  C   UNL     1       0.381  -9.632  -0.091  0.00  0.00    +0.075 A 
ATOM      7  S   UNL     1       1.585 -10.726   0.653  0.00  0.00    -0.074 S 
BRANCH   5   8
ATOM      8  C   UNL     1      -1.265  -8.072   0.897  0.00  0.00    +0.086 A 
ATOM      9  C   UNL     1      -1.843  -7.497   2.004  0.00  0.00    +0.028 A 
ATOM     10  C   UNL     1      -2.906  -6.514   1.776  0.00  0.00    +0.019 A 
ATOM     11  C   UNL     1      -3.359  -5.693   2.815  0.00  0.00    +0.026 A 
ATOM     12  C   UNL     1      -4.357  -4.776   2.571  0.00  0.00    +0.019 A 
ATOM     13  C   UNL     1      -4.913  -4.663   1.304  0.00  0.00    +0.019 A 
ATOM     14  C   UNL     1      -4.477  -5.467   0.271  0.00  0.00    +0.048 A 
ATOM     15  C   UNL     1      -3.474  -6.398   0.494  0.00  0.00    +0.139 A 
ATOM     16  O   UNL     1      -3.037  -7.199  -0.508  0.00  0.00    -0.422 OA
ATOM     17  C   UNL     1      -1.760  -7.644  -0.423  0.00  0.00    +0.347 A 
ATOM     18  O   UNL     1      -1.044  -7.693  -1.406  0.00  0.00    -0.244 OA
ATOM     19 BR   UNL     1      -4.975  -3.665   3.971  0.00  0.00    -0.050 Br
ENDBRANCH   5   8
ENDBRANCH   2   3
BRANCH   1  20
ATOM     20  N   UNL     1       2.417  -8.689   4.250  0.00  0.00    -0.319 N 
ATOM     21  H   UNL     1       2.018  -8.333   3.440  0.00  0.00    +0.152 HD
BRANCH  20  27
ATOM     22  C   UNL     1       3.022  -6.447   4.939  0.00  0.00    +0.080 A 
ATOM     23  C   UNL     1       3.664  -5.601   5.847  0.00  0.00    +0.017 A 
ATOM     24  C   UNL     1       4.329  -6.133   6.930  0.00  0.00    +0.001 A 
ATOM     25  C   UNL     1       4.365  -7.505   7.125  0.00  0.00    +0.002 A 
ATOM     26  C   UNL     1       3.736  -8.354   6.238  0.00  0.00    +0.024 A 
ATOM     27  C   UNL     1       3.056  -7.836   5.143  0.00  0.00    +0.045 A 
BRANCH  22  28
ATOM     28  C   UNL     1       2.309  -5.885   3.779  0.00  0.00    +0.341 C 
ATOM     29  O   UNL     1       1.843  -6.625   2.935  0.00  0.00    -0.245 OA
BRANCH  28  30
ATOM     30  O   UNL     1       2.173  -4.550   3.653  0.00  0.00    -0.461 OA
BRANCH  30  31
ATOM     31  C   UNL     1       1.470  -4.075   2.503  0.00  0.00    +0.232 C 
BRANCH  31  32
ATOM     32  C   UNL     1       1.418  -2.546   2.533  0.00  0.00    +0.041 C 
BRANCH  32  33
ATOM     33  C   UNL     1       0.665  -2.037   1.302  0.00  0.00    +0.003 C 
BRANCH  33  34
ATOM     34  C   UNL     1       0.613  -0.508   1.333  0.00  0.00    -0.000 C 
BRANCH  34  36
ATOM     35  C   UNL     1      -0.192   1.529   0.132  0.00  0.00    +0.004 C 
ATOM     36  C   UNL     1      -0.139   0.001   0.102  0.00  0.00    -0.003 C 
ENDBRANCH  34  36
ENDBRANCH  33  34
ENDBRANCH  32  33
ENDBRANCH  31  32
ENDBRANCH  30  31
ENDBRANCH  28  30
ENDBRANCH  22  28
ENDBRANCH  20  27
ENDBRANCH   1  20
BRANCH   2  37
ATOM     37  C   UNL     1       1.851 -12.293   3.817  0.00  0.00    +0.103 C 
ATOM     38  N   UNL     1       1.876 -13.414   3.997  0.00  0.00    -0.191 NA
ENDBRANCH   2  37
TORSDOF 12
