REMARK  Name = ZINC36524245
REMARK  12 active torsions:
REMARK  status: ('A' for Active; 'I' for Inactive)
REMARK    1  A    between atoms: C_1  and  C_2
REMARK    2  A    between atoms: C_5  and  S_8
REMARK    3  A    between atoms: S_8  and  C_11
REMARK    4  A    between atoms: C_11  and  N_12
REMARK    5  A    between atoms: C_13  and  C_15
REMARK    6  A    between atoms: C_15  and  C_17
REMARK    7  A    between atoms: C_15  and  N_26
REMARK    8  A    between atoms: C_18  and  O_25
REMARK    9  A    between atoms: C_20  and  O_24
REMARK   10  A    between atoms: C_22  and  O_23
REMARK   11  A    between atoms: N_26  and  C_27
REMARK   12  A    between atoms: C_28  and  C_30
REMARK                            x       y       z     vdW  Elec       q    Type
REMARK                         _______ _______ _______ _____ _____    ______ ____
ROOT
ATOM      1  C   UNL     1       3.379  -4.102   3.984  0.00  0.00    +0.199 C 
ENDROOT
BRANCH   1   2
ATOM      2  C   UNL     1       3.746  -2.695   4.380  0.00  0.00    +0.065 A 
ATOM      3  C   UNL     1       4.894  -2.460   5.120  0.00  0.00    +0.129 A 
ATOM      4  C   UNL     1       5.231  -1.165   5.485  0.00  0.00    +0.091 A 
ATOM      5  C   UNL     1       4.420  -0.105   5.109  0.00  0.00    +0.124 A 
ATOM      6  C   UNL     1       3.272  -0.340   4.368  0.00  0.00    +0.091 A 
ATOM      7  C   UNL     1       2.937  -1.634   4.000  0.00  0.00    +0.129 A 
BRANCH   7   8
ATOM      8  O   UNL     1       1.814  -1.864   3.269  0.00  0.00    -0.506 OA
ATOM      9  H   UNL     1       1.023  -2.019   3.803  0.00  0.00    +0.292 HD
ENDBRANCH   7   8
BRANCH   5  10
ATOM     10  O   UNL     1       4.750   1.164   5.467  0.00  0.00    -0.507 OA
ATOM     11  H   UNL     1       5.309   1.621   4.824  0.00  0.00    +0.292 HD
ENDBRANCH   5  10
BRANCH   3  12
ATOM     12  O   UNL     1       5.690  -3.498   5.489  0.00  0.00    -0.506 OA
ATOM     13  H   UNL     1       6.432  -3.657   4.890  0.00  0.00    +0.292 HD
ENDBRANCH   3  12
ENDBRANCH   1   2
BRANCH   1  15
ATOM     14  N   UNL     1       5.126  -4.254   2.239  0.00  0.00    -0.294 N 
ATOM     15  C   UNL     1       4.572  -4.772   3.353  0.00  0.00    +0.240 C 
ATOM     16  O   UNL     1       5.034  -5.779   3.847  0.00  0.00    -0.273 OA
ATOM     17  H   UNL     1       4.756  -3.449   1.843  0.00  0.00    +0.150 HD
BRANCH  14  18
ATOM     18  C   UNL     1       6.285  -4.906   1.625  0.00  0.00    +0.278 C 
BRANCH  18  19
ATOM     19  S   UNL     1       5.726  -6.020   0.307  0.00  0.00    +0.013 S 
ATOM     20  O   UNL     1       4.647  -6.821   0.768  0.00  0.00    -0.168 OA
ATOM     21  O   UNL     1       6.843  -6.612  -0.340  0.00  0.00    -0.168 OA
BRANCH  19  26
ATOM     22  C   UNL     1       3.281  -2.398  -3.853  0.00  0.00    +0.044 C 
ATOM     23  C   UNL     1       3.892  -3.302  -2.814  0.00  0.00    -0.050 A 
ATOM     24  C   UNL     1       5.237  -3.615  -2.875  0.00  0.00    +0.005 A 
ATOM     25  C   UNL     1       5.797  -4.445  -1.921  0.00  0.00    +0.027 A 
ATOM     26  C   UNL     1       5.012  -4.961  -0.907  0.00  0.00    +0.090 A 
ATOM     27  C   UNL     1       3.667  -4.648  -0.847  0.00  0.00    +0.027 A 
ATOM     28  C   UNL     1       3.108  -3.814  -1.797  0.00  0.00    +0.005 A 
ENDBRANCH  19  26
ENDBRANCH  18  19
ENDBRANCH  14  18
ENDBRANCH   1  15
BRANCH   1  29
ATOM     29  N   UNL     1       2.969  -4.853   5.173  0.00  0.00    -0.289 N 
ATOM     30  C   UNL     1       3.948  -5.161   6.218  0.00  0.00    +0.133 C 
ATOM     31  C   UNL     1       1.691  -5.260   5.305  0.00  0.00    +0.219 C 
ATOM     32  O   UNL     1       0.903  -5.089   4.399  0.00  0.00    -0.275 OA
BRANCH  31  33
ATOM     33  C   UNL     1       1.241  -5.929   6.578  0.00  0.00    +0.075 C 
ATOM     34  C   UNL     1       1.036  -7.424   6.324  0.00  0.00    +0.013 C 
ATOM     35  C   UNL     1       0.580  -8.102   7.617  0.00  0.00    +0.001 C 
ATOM     36  C   UNL     1      -0.738  -7.479   8.082  0.00  0.00    +0.000 C 
ATOM     37  C   UNL     1      -0.533  -5.984   8.336  0.00  0.00    +0.001 C 
ATOM     38  C   UNL     1      -0.076  -5.305   7.043  0.00  0.00    +0.013 C 
ENDBRANCH  31  33
ENDBRANCH   1  29
TORSDOF 10
