REMARK  Name = ZINC39909446
REMARK  9 active torsions:
REMARK  status: ('A' for Active; 'I' for Inactive)
REMARK    1  A    between atoms: C_1  and  C_2
REMARK    2  A    between atoms: C_2  and  C_3
REMARK    3  A    between atoms: C_3  and  S_4
REMARK    4  A    between atoms: S_4  and  C_7
REMARK    5  A    between atoms: C_11  and  C_13
REMARK    6  A    between atoms: N_15  and  C_16
REMARK    7  A    between atoms: C_17  and  C_24
REMARK    8  A    between atoms: N_26  and  C_27
REMARK    9  A    between atoms: C_27  and  C_28
REMARK                            x       y       z     vdW  Elec       q    Type
REMARK                         _______ _______ _______ _____ _____    ______ ____
ROOT
ATOM      1  C   UNL     1      -1.233  -3.541   7.364  0.00  0.00    +0.085 A 
ATOM      2  C   UNL     1      -2.598  -3.432   7.555  0.00  0.00    +0.069 A 
ATOM      3  C   UNL     1      -3.110  -3.689   8.899  0.00  0.00    -0.023 A 
ATOM      4  C   UNL     1      -2.159  -4.005   9.797  0.00  0.00    -0.004 A 
ATOM      5  S   UNL     1      -0.643  -3.968   8.875  0.00  0.00    -0.077 S 
ATOM      6  C   UNL     1      -2.738  -4.256  11.163  0.00  0.00    +0.043 C 
ATOM      7  C   UNL     1      -4.152  -3.635  11.108  0.00  0.00    +0.010 C 
ATOM      8  C   UNL     1      -4.467  -3.704   9.600  0.00  0.00    +0.037 C 
ENDROOT
BRANCH   1  11
ATOM      9  C   UNL     1       0.821  -3.504   6.189  0.00  0.00    +0.269 C 
ATOM     10  O   UNL     1       1.401  -3.814   7.210  0.00  0.00    -0.268 OA
ATOM     11  N   UNL     1      -0.518  -3.348   6.194  0.00  0.00    -0.274 N 
ATOM     12  H   UNL     1      -0.981  -3.101   5.378  0.00  0.00    +0.156 HD
BRANCH   9  17
ATOM     13  C   UNL     1       1.638  -2.774   2.696  0.00  0.00    +0.271 A 
ATOM     14  N   UNL     1       2.949  -2.915   2.642  0.00  0.00    -0.219 NA
ATOM     15  C   UNL     1       3.643  -3.250   3.716  0.00  0.00    +0.136 A 
ATOM     16  C   UNL     1       2.974  -3.456   4.917  0.00  0.00    +0.090 A 
ATOM     17  C   UNL     1       1.587  -3.297   4.935  0.00  0.00    +0.149 A 
ATOM     18  N   UNL     1       0.963  -2.953   3.810  0.00  0.00    -0.206 NA
ATOM     19 CL   UNL     1       3.840  -3.898   6.354  0.00  0.00    -0.080 Cl
BRANCH  13  20
ATOM     20  S   UNL     1       0.767  -2.325   1.232  0.00  0.00    +0.032 S 
ATOM     21  O   UNL     1      -0.547  -2.833   1.421  0.00  0.00    -0.166 OA
ATOM     22  O   UNL     1       1.580  -2.797   0.166  0.00  0.00    -0.166 OA
BRANCH  20  23
ATOM     23  C   UNL     1       0.742  -0.511   1.242  0.00  0.00    +0.175 C 
BRANCH  23  25
ATOM     24  C   UNL     1      -0.019   1.526   0.010  0.00  0.00    +0.005 C 
ATOM     25  C   UNL     1       0.002  -0.004   0.002  0.00  0.00    +0.020 C 
ENDBRANCH  23  25
ENDBRANCH  20  23
ENDBRANCH  13  20
ENDBRANCH   9  17
ENDBRANCH   1  11
BRANCH   2  26
ATOM     26  C   UNL     1      -3.496  -3.072   6.453  0.00  0.00    +0.247 C 
ATOM     27  O   UNL     1      -3.984  -3.943   5.756  0.00  0.00    -0.270 OA
ATOM     28  N   UNL     1      -3.781  -1.777   6.211  0.00  0.00    -0.309 N 
ATOM     29  H   UNL     1      -3.392  -1.083   6.766  0.00  0.00    +0.149 HD
BRANCH  28  30
ATOM     30  C   UNL     1      -4.678  -1.417   5.110  0.00  0.00    +0.136 C 
BRANCH  30  31
ATOM     31  C   UNL     1      -4.832   0.104   5.054  0.00  0.00    +0.135 C 
ATOM     32  C   UNL     1      -5.806   0.504   3.917  0.00  0.00    +0.035 C 
ATOM     33  C   UNL     1      -6.306   1.882   4.428  0.00  0.00    +0.031 C 
ATOM     34  C   UNL     1      -6.325   1.677   5.958  0.00  0.00    +0.160 C 
ATOM     35  O   UNL     1      -5.443   0.588   6.261  0.00  0.00    -0.375 OA
ENDBRANCH  30  31
ENDBRANCH  28  30
ENDBRANCH   2  26
TORSDOF 8
