REMARK  Name = ZINC06142116
REMARK  7 active torsions:
REMARK  status: ('A' for Active; 'I' for Inactive)
REMARK    1  A    between atoms: C_1  and  C_2
REMARK    2  A    between atoms: C_5  and  N_9
REMARK    3  A    between atoms: C_7  and  C_8
REMARK    4  A    between atoms: C_19  and  N_20
REMARK    5  A    between atoms: N_20  and  C_21
REMARK    6  A    between atoms: C_24  and  S_27
REMARK    7  A    between atoms: S_27  and  N_30
REMARK                            x       y       z     vdW  Elec       q    Type
REMARK                         _______ _______ _______ _____ _____    ______ ____
ROOT
ATOM      1  N   UNL     1      -0.047  -4.173  -0.014  0.00  0.00    -0.202 N 
ATOM      2  C   UNL     1       0.123  -4.816   1.153  0.00  0.00    +0.258 C 
ATOM      3  O   UNL     1       0.190  -4.176   2.185  0.00  0.00    -0.269 OA
ATOM      4  C   UNL     1       0.230  -6.280   1.204  0.00  0.00    +0.046 A 
ATOM      5  C   UNL     1       0.406  -6.955   2.412  0.00  0.00    +0.014 A 
ATOM      6  C   UNL     1       0.501  -8.330   2.418  0.00  0.00    +0.001 A 
ATOM      7  C   UNL     1       0.424  -9.051   1.235  0.00  0.00    +0.001 A 
ATOM      8  C   UNL     1       0.250  -8.403   0.029  0.00  0.00    +0.009 A 
ATOM      9  C   UNL     1       0.151  -7.016   0.003  0.00  0.00    +0.000 A 
ATOM     10  C   UNL     1      -0.036  -6.273  -1.260  0.00  0.00    +0.059 C 
ATOM     11  C   UNL     1      -0.120  -6.934  -2.466  0.00  0.00    +0.085 C 
ATOM     12  C   UNL     1      -0.135  -4.811  -1.192  0.00  0.00    +0.259 C 
ATOM     13  O   UNL     1      -0.295  -4.169  -2.214  0.00  0.00    -0.269 OA
ENDROOT
BRANCH   1  18
ATOM     14  C   UNL     1      -0.435   1.488   0.041  0.00  0.00    +0.044 C 
ATOM     15  C   UNL     1      -0.332  -0.015   0.026  0.00  0.00    -0.047 A 
ATOM     16  C   UNL     1       0.794  -0.635   0.537  0.00  0.00    +0.005 A 
ATOM     17  C   UNL     1       0.891  -2.012   0.526  0.00  0.00    +0.024 A 
ATOM     18  C   UNL     1      -0.143  -2.776   0.000  0.00  0.00    +0.045 A 
ATOM     19  C   UNL     1      -1.272  -2.151  -0.512  0.00  0.00    +0.027 A 
ATOM     20  C   UNL     1      -1.366  -0.773  -0.493  0.00  0.00    -0.046 A 
ATOM     21  C   UNL     1      -2.593  -0.094  -1.044  0.00  0.00    +0.044 C 
ENDBRANCH   1  18
BRANCH  11  22
ATOM     22  N   UNL     1      -0.129  -6.229  -3.629  0.00  0.00    -0.320 N 
ATOM     23  H   UNL     1       0.007  -5.269  -3.615  0.00  0.00    +0.152 HD
BRANCH  22  24
ATOM     24  C   UNL     1      -0.332  -6.888  -4.844  0.00  0.00    +0.031 A 
ATOM     25  C   UNL     1      -0.532  -8.263  -4.866  0.00  0.00    +0.025 A 
ATOM     26  C   UNL     1      -0.734  -8.911  -6.068  0.00  0.00    +0.030 A 
ATOM     27  C   UNL     1      -0.736  -8.193  -7.250  0.00  0.00    +0.106 A 
ATOM     28  C   UNL     1      -0.538  -6.825  -7.233  0.00  0.00    +0.030 A 
ATOM     29  C   UNL     1      -0.341  -6.170  -6.033  0.00  0.00    +0.025 A 
BRANCH  27  30
ATOM     30  S   UNL     1      -0.993  -9.024  -8.783  0.00  0.00    +0.061 S 
ATOM     31  O   UNL     1      -0.407  -8.210  -9.789  0.00  0.00    -0.153 OA
ATOM     32  O   UNL     1      -0.610 -10.378  -8.580  0.00  0.00    -0.153 OA
BRANCH  30  33
ATOM     33  N   UNL     1      -2.623  -9.032  -9.069  0.00  0.00    -0.172 NA
ATOM     34  C   UNL     1      -3.473 -10.130  -8.582  0.00  0.00    +0.137 C 
ATOM     35  C   UNL     1      -4.665  -9.523  -7.832  0.00  0.00    +0.177 C 
ATOM     36  O   UNL     1      -5.300  -8.551  -8.666  0.00  0.00    -0.377 OA
ATOM     37  C   UNL     1      -4.468  -7.440  -9.008  0.00  0.00    +0.177 C 
ATOM     38  C   UNL     1      -3.267  -7.937  -9.813  0.00  0.00    +0.137 C 
ENDBRANCH  30  33
ENDBRANCH  27  30
ENDBRANCH  22  24
ENDBRANCH  11  22
TORSDOF 5
