REMARK  Name = ZINC06242615
REMARK  10 active torsions:
REMARK  status: ('A' for Active; 'I' for Inactive)
REMARK    1  A    between atoms: C_1  and  C_2
REMARK    2  A    between atoms: C_2  and  O_3
REMARK    3  A    between atoms: O_3  and  C_4
REMARK    4  A    between atoms: C_4  and  C_6
REMARK    5  A    between atoms: C_9  and  N_12
REMARK    6  A    between atoms: C_22  and  N_23
REMARK    7  A    between atoms: N_23  and  C_24
REMARK    8  A    between atoms: C_27  and  S_30
REMARK    9  A    between atoms: S_30  and  N_33
REMARK   10  A    between atoms: N_33  and  C_34
REMARK                            x       y       z     vdW  Elec       q    Type
REMARK                         _______ _______ _______ _____ _____    ______ ____
ROOT
ATOM      1  N   UNL     1       3.391  -3.954   5.839  0.00  0.00    -0.202 N 
ATOM      2  C   UNL     1       4.038  -3.111   6.661  0.00  0.00    +0.258 C 
ATOM      3  O   UNL     1       3.974  -1.913   6.460  0.00  0.00    -0.269 OA
ATOM      4  C   UNL     1       4.820  -3.612   7.799  0.00  0.00    +0.046 A 
ATOM      5  C   UNL     1       5.493  -2.742   8.657  0.00  0.00    +0.014 A 
ATOM      6  C   UNL     1       6.216  -3.251   9.714  0.00  0.00    +0.001 A 
ATOM      7  C   UNL     1       6.282  -4.619   9.934  0.00  0.00    +0.001 A 
ATOM      8  C   UNL     1       5.624  -5.497   9.097  0.00  0.00    +0.009 A 
ATOM      9  C   UNL     1       4.889  -5.002   8.026  0.00  0.00    +0.000 A 
ATOM     10  C   UNL     1       4.165  -5.898   7.100  0.00  0.00    +0.059 C 
ATOM     11  C   UNL     1       4.192  -7.265   7.268  0.00  0.00    +0.085 C 
ATOM     12  C   UNL     1       3.410  -5.287   6.000  0.00  0.00    +0.259 C 
ATOM     13  O   UNL     1       2.798  -5.996   5.222  0.00  0.00    -0.269 OA
ENDROOT
BRANCH   1  17
ATOM     14  C   UNL     1       1.217  -2.360   2.661  0.00  0.00    +0.059 A 
ATOM     15  C   UNL     1       0.579  -3.156   3.616  0.00  0.00    +0.017 A 
ATOM     16  C   UNL     1       1.301  -3.681   4.665  0.00  0.00    +0.025 A 
ATOM     17  C   UNL     1       2.663  -3.420   4.774  0.00  0.00    +0.045 A 
ATOM     18  C   UNL     1       3.301  -2.628   3.825  0.00  0.00    +0.025 A 
ATOM     19  C   UNL     1       2.587  -2.104   2.771  0.00  0.00    +0.017 A 
BRANCH  14  20
ATOM     20  C   UNL     1       0.448  -1.795   1.536  0.00  0.00    +0.339 C 
ATOM     21  O   UNL     1       1.005  -1.107   0.704  0.00  0.00    -0.245 OA
BRANCH  20  22
ATOM     22  O   UNL     1      -0.873  -2.043   1.431  0.00  0.00    -0.461 OA
BRANCH  22  24
ATOM     23  C   UNL     1      -3.034  -1.853   0.367  0.00  0.00    +0.048 C 
ATOM     24  C   UNL     1      -1.555  -1.464   0.317  0.00  0.00    +0.229 C 
ENDBRANCH  22  24
ENDBRANCH  20  22
ENDBRANCH  14  20
ENDBRANCH   1  17
BRANCH  11  25
ATOM     25  N   UNL     1       3.659  -8.078   6.318  0.00  0.00    -0.320 N 
ATOM     26  H   UNL     1       3.333  -7.701   5.485  0.00  0.00    +0.152 HD
BRANCH  25  27
ATOM     27  C   UNL     1       3.581  -9.455   6.540  0.00  0.00    +0.031 A 
ATOM     28  C   UNL     1       4.042  -9.995   7.734  0.00  0.00    +0.025 A 
ATOM     29  C   UNL     1       3.963 -11.356   7.951  0.00  0.00    +0.030 A 
ATOM     30  C   UNL     1       3.425 -12.182   6.981  0.00  0.00    +0.105 A 
ATOM     31  C   UNL     1       2.966 -11.648   5.791  0.00  0.00    +0.030 A 
ATOM     32  C   UNL     1       3.036 -10.287   5.570  0.00  0.00    +0.025 A 
BRANCH  30  33
ATOM     33  S   UNL     1       3.327 -13.919   7.261  0.00  0.00    +0.058 S 
ATOM     34  O   UNL     1       3.286 -14.535   5.981  0.00  0.00    -0.153 OA
ATOM     35  O   UNL     1       4.322 -14.232   8.226  0.00  0.00    -0.153 OA
BRANCH  33  36
ATOM     36  N   UNL     1       1.864 -14.217   7.977  0.00  0.00    -0.193 NA
ATOM     37  C   UNL     1       0.623 -13.965   7.240  0.00  0.00    +0.127 C 
ATOM     38  H   UNL     1       1.829 -14.558   8.885  0.00  0.00    +0.148 HD
ENDBRANCH  33  36
ENDBRANCH  30  33
ENDBRANCH  25  27
ENDBRANCH  11  25
TORSDOF 8
