REMARK  Name = ZINC03572756
REMARK  6 active torsions:
REMARK  status: ('A' for Active; 'I' for Inactive)
REMARK    1  A    between atoms: C_10  and  C_11
REMARK    2  A    between atoms: C_11  and  C_12
REMARK    3  A    between atoms: C_15  and  S_23
REMARK    4  A    between atoms: N_16  and  C_17
REMARK    5  A    between atoms: S_23  and  C_24
REMARK    6  A    between atoms: C_24  and  C_25
REMARK                            x       y       z     vdW  Elec       q    Type
REMARK                         _______ _______ _______ _____ _____    ______ ____
ROOT
ATOM      1  C   UNL     1      -4.641   5.612   0.149  0.00  0.00    +0.139 A 
ATOM      2  N   UNL     1      -5.081   4.403  -0.054  0.00  0.00    -0.133 NA
ATOM      3  N   UNL     1      -4.094   3.583  -0.140  0.00  0.00    -0.122 NA
ATOM      4  C   UNL     1      -2.962   4.232   0.005  0.00  0.00    +0.192 A 
ATOM      5  N   UNL     1      -3.276   5.547   0.199  0.00  0.00    -0.303 N 
ENDROOT
BRANCH   5   6
ATOM      6  C   UNL     1      -2.344   6.656   0.414  0.00  0.00    +0.091 C 
ATOM      7  C   UNL     1      -1.408   6.776  -0.790  0.00  0.00    +0.025 C 
ATOM      8  C   UNL     1      -0.434   7.935  -0.566  0.00  0.00    +0.002 C 
ATOM      9  C   UNL     1       0.389   7.673   0.696  0.00  0.00    +0.000 C 
ATOM     10  C   UNL     1      -0.547   7.553   1.900  0.00  0.00    +0.002 C 
ATOM     11  C   UNL     1      -1.520   6.394   1.676  0.00  0.00    +0.025 C 
ENDBRANCH   5   6
BRANCH   1  12
ATOM     12  C   UNL     1      -5.481   6.854   0.305  0.00  0.00    +0.112 C 
BRANCH  12  22
ATOM     13  C   UNL     1      -9.023   5.888  -3.263  0.00  0.00    +0.001 A 
ATOM     14  C   UNL     1      -8.728   5.362  -2.006  0.00  0.00    +0.001 A 
ATOM     15  C   UNL     1      -7.688   5.843  -1.272  0.00  0.00    +0.009 A 
ATOM     16  C   UNL     1      -6.894   6.882  -1.787  0.00  0.00    -0.014 A 
ATOM     17  C   UNL     1      -7.197   7.420  -3.063  0.00  0.00    -0.018 A 
ATOM     18  C   UNL     1      -8.279   6.897  -3.792  0.00  0.00    +0.008 A 
ATOM     19  C   UNL     1      -6.407   8.461  -3.577  0.00  0.00    +0.008 A 
ATOM     20  C   UNL     1      -5.366   8.943  -2.842  0.00  0.00    +0.001 A 
ATOM     21  C   UNL     1      -5.072   8.417  -1.585  0.00  0.00    +0.004 A 
ATOM     22  C   UNL     1      -5.816   7.408  -1.056  0.00  0.00    -0.032 A 
ENDBRANCH  12  22
ENDBRANCH   1  12
BRANCH   4  23
ATOM     23  S   UNL     1      -1.343   3.537  -0.037  0.00  0.00    -0.077 S 
BRANCH  23  24
ATOM     24  C   UNL     1      -1.756   1.797  -0.320  0.00  0.00    +0.173 C 
BRANCH  24  25
ATOM     25  C   UNL     1      -0.488   0.986  -0.393  0.00  0.00    +0.231 C 
ATOM     26  O   UNL     1       0.588   1.531  -0.272  0.00  0.00    -0.274 OA
ATOM     27  N   UNL     1      -0.550  -0.344  -0.600  0.00  0.00    -0.240 N 
ATOM     28  C   UNL     1       0.584  -1.069  -0.671  0.00  0.00    +0.303 C 
ATOM     29  O   UNL     1       1.663  -0.523  -0.549  0.00  0.00    -0.253 OA
ATOM     30  N   UNL     1       0.521  -2.400  -0.877  0.00  0.00    -0.313 N 
ATOM     31  H   UNL     1      -1.411  -0.780  -0.697  0.00  0.00    +0.159 HD
ATOM     32  H   UNL     1      -0.340  -2.836  -0.975  0.00  0.00    +0.146 HD
ATOM     33  H   UNL     1       1.338  -2.921  -0.928  0.00  0.00    +0.146 HD
ENDBRANCH  24  25
ENDBRANCH  23  24
ENDBRANCH   4  23
TORSDOF 6
