REMARK  Name = ZINC14161375
REMARK  8 active torsions:
REMARK  status: ('A' for Active; 'I' for Inactive)
REMARK    1  A    between atoms: C_1  and  C_2
REMARK    2  A    between atoms: C_8  and  C_10
REMARK    3  A    between atoms: C_10  and  C_12
REMARK    4  A    between atoms: C_10  and  O_13
REMARK    5  A    between atoms: O_13  and  C_14
REMARK    6  A    between atoms: C_14  and  C_16
REMARK    7  A    between atoms: C_23  and  C_28
REMARK    8  A    between atoms: C_24  and  C_27
REMARK                            x       y       z     vdW  Elec       q    Type
REMARK                         _______ _______ _______ _____ _____    ______ ____
ROOT
ATOM      1  C   UNL     1       2.300   4.106   0.549  0.00  0.00    +0.102 A 
ATOM      2  C   UNL     1       3.537   3.461   0.539  0.00  0.00    +0.019 A 
ATOM      3  C   UNL     1       3.621   2.107   0.271  0.00  0.00    +0.002 A 
ATOM      4  C   UNL     1       2.481   1.374   0.009  0.00  0.00    +0.015 A 
ATOM      5  C   UNL     1       1.236   1.999   0.014  0.00  0.00    +0.065 A 
ATOM      6  C   UNL     1       1.134   3.372   0.284  0.00  0.00    +0.153 A 
ATOM      7  O   UNL     1      -0.073   3.968   0.286  0.00  0.00    -0.454 OA
ATOM      8  C   UNL     1      -1.207   3.295   0.037  0.00  0.00    +0.142 A 
ATOM      9  C   UNL     1      -1.221   1.963  -0.241  0.00  0.00    +0.040 A 
ATOM     10  C   UNL     1      -0.003   1.244  -0.262  0.00  0.00    +0.196 A 
ATOM     11  O   UNL     1       0.023   0.048  -0.504  0.00  0.00    -0.287 OA
ATOM     12  C   UNL     1      -2.524   1.259  -0.520  0.00  0.00    +0.051 C 
ENDROOT
BRANCH   8  13
ATOM     13  C   UNL     1      -2.489   4.029   0.059  0.00  0.00    +0.018 A 
ATOM     14  C   UNL     1      -2.643   5.194  -0.696  0.00  0.00    +0.011 A 
ATOM     15  C   UNL     1      -3.844   5.872  -0.673  0.00  0.00    +0.001 A 
ATOM     16  C   UNL     1      -4.891   5.406   0.102  0.00  0.00    +0.000 A 
ATOM     17  C   UNL     1      -4.743   4.255   0.856  0.00  0.00    +0.001 A 
ATOM     18  C   UNL     1      -3.550   3.564   0.840  0.00  0.00    +0.011 A 
ENDBRANCH   8  13
BRANCH   1  19
ATOM     19  C   UNL     1       2.219   5.550   0.835  0.00  0.00    +0.343 C 
ATOM     20  O   UNL     1       1.139   6.108   0.842  0.00  0.00    -0.245 OA
BRANCH  19  21
ATOM     21  O   UNL     1       3.341   6.251   1.089  0.00  0.00    -0.449 OA
BRANCH  21  22
ATOM     22  C   UNL     1       3.185   7.668   1.362  0.00  0.00    +0.259 C 
ATOM     23  C   UNL     1       3.270   8.453   0.051  0.00  0.00    +0.062 C 
BRANCH  22  31
ATOM     24  C   UNL     1       8.340   9.593   5.652  0.00  0.00    +0.089 C 
ATOM     25  C   UNL     1       7.075   9.890   4.889  0.00  0.00    +0.136 A 
ATOM     26  C   UNL     1       6.391   9.036   4.095  0.00  0.00    +0.091 A 
ATOM     27  C   UNL     1       5.295   9.807   3.626  0.00  0.00    +0.168 A 
ATOM     28  N   UNL     1       5.429  10.994   4.158  0.00  0.00    -0.063 NA
ATOM     29  O   UNL     1       6.409  11.053   4.865  0.00  0.00    -0.358 OA
ATOM     30  N   UNL     1       4.280   9.386   2.766  0.00  0.00    -0.265 N 
ATOM     31  C   UNL     1       4.281   8.124   2.291  0.00  0.00    +0.259 C 
ATOM     32  O   UNL     1       5.162   7.356   2.613  0.00  0.00    -0.271 OA
ATOM     33  H   UNL     1       3.575  10.000   2.509  0.00  0.00    +0.156 HD
ENDBRANCH  22  31
ENDBRANCH  21  22
ENDBRANCH  19  21
ENDBRANCH   1  19
TORSDOF 5
