REMARK  Name = ZINC08919215
REMARK  7 active torsions:
REMARK  status: ('A' for Active; 'I' for Inactive)
REMARK    1  A    between atoms: C_1  and  C_2
REMARK    2  A    between atoms: C_8  and  C_9
REMARK    3  A    between atoms: C_8  and  N_58
REMARK    4  A    between atoms: C_9  and  C_10
REMARK    5  A    between atoms: N_12  and  C_13
REMARK    6  A    between atoms: C_14  and  C_21
REMARK    7  A    between atoms: N_23  and  C_24
REMARK                            x       y       z     vdW  Elec       q    Type
REMARK                         _______ _______ _______ _____ _____    ______ ____
ROOT
ATOM      1  C   UNL     1       3.778   0.672   5.323  0.00  0.00    +0.084 A 
ATOM      2  C   UNL     1       5.046   0.888   5.835  0.00  0.00    +0.069 A 
ATOM      3  C   UNL     1       5.406   0.191   7.069  0.00  0.00    -0.023 A 
ATOM      4  C   UNL     1       4.445  -0.601   7.579  0.00  0.00    -0.004 A 
ATOM      5  S   UNL     1       3.077  -0.429   6.459  0.00  0.00    -0.077 S 
ATOM      6  C   UNL     1       4.890  -1.285   8.843  0.00  0.00    +0.043 C 
ATOM      7  C   UNL     1       6.429  -1.151   8.838  0.00  0.00    +0.010 C 
ATOM      8  C   UNL     1       6.630   0.115   7.982  0.00  0.00    +0.037 C 
ENDROOT
BRANCH   1  11
ATOM      9  C   UNL     1       1.946   0.880   3.837  0.00  0.00    +0.216 C 
ATOM     10  O   UNL     1       1.312   0.111   4.527  0.00  0.00    -0.276 OA
ATOM     11  N   UNL     1       3.207   1.211   4.180  0.00  0.00    -0.279 N 
ATOM     12  H   UNL     1       3.714   1.826   3.628  0.00  0.00    +0.155 HD
BRANCH   9  13
ATOM     13  C   UNL     1       1.325   1.466   2.595  0.00  0.00    +0.077 C 
BRANCH  13  14
ATOM     14  C   UNL     1      -0.100   0.931   2.436  0.00  0.00    -0.069 C 
BRANCH  14  21
ATOM     15  C   UNL     1      -1.403   3.421   2.577  0.00  0.00    -0.013 C 
ATOM     16  C   UNL     1      -0.718   2.969   1.286  0.00  0.00    -0.072 C 
ATOM     17  C   UNL     1      -1.483   3.524   0.082  0.00  0.00    -0.016 C 
ATOM     18  C   UNL     1      -0.805   3.053  -1.208  0.00  0.00    -0.003 C 
ATOM     19  C   UNL     1      -0.761   1.523  -1.223  0.00  0.00    -0.019 C 
ATOM     20  C   UNL     1      -0.017   1.026   0.019  0.00  0.00    -0.078 C 
ATOM     21  N   UNL     1      -0.733   1.492   1.225  0.00  0.00    +0.382 N 
ATOM     22  H   UNL     1      -1.707   1.171   1.179  0.00  0.00    -0.081 HD
ENDBRANCH  14  21
ENDBRANCH  13  14
ENDBRANCH   9  13
ENDBRANCH   1  11
BRANCH   2  23
ATOM     23  C   UNL     1       5.993   1.784   5.165  0.00  0.00    +0.251 C 
ATOM     24  O   UNL     1       6.019   2.967   5.452  0.00  0.00    -0.270 OA
ATOM     25  N   UNL     1       6.835   1.298   4.231  0.00  0.00    -0.281 N 
ATOM     26  H   UNL     1       6.861   0.346   4.050  0.00  0.00    +0.155 HD
BRANCH  25  27
ATOM     27  C   UNL     1       7.671   2.168   3.523  0.00  0.00    +0.034 A 
ATOM     28  C   UNL     1       7.972   1.913   2.191  0.00  0.00    +0.024 A 
ATOM     29  C   UNL     1       8.794   2.776   1.493  0.00  0.00    +0.017 A 
ATOM     30  C   UNL     1       9.325   3.888   2.122  0.00  0.00    +0.018 A 
ATOM     31  C   UNL     1       9.032   4.141   3.450  0.00  0.00    +0.017 A 
ATOM     32  C   UNL     1       8.206   3.285   4.152  0.00  0.00    +0.024 A 
ATOM     33 BR   UNL     1      10.455   5.064   1.164  0.00  0.00    -0.050 Br
ENDBRANCH  25  27
ENDBRANCH   2  23
TORSDOF 6
