REMARK  Name = ZINC06078218
REMARK  16 active torsions:
REMARK  status: ('A' for Active; 'I' for Inactive)
REMARK    1  A    between atoms: C_1  and  C_2
REMARK    2  A    between atoms: C_2  and  N_69
REMARK    3  A    between atoms: C_3  and  C_4
REMARK    4  A    between atoms: C_3  and  N_69
REMARK    5  A    between atoms: C_5  and  C_6
REMARK    6  A    between atoms: C_5  and  N_69
REMARK    7  A    between atoms: C_6  and  C_7
REMARK    8  A    between atoms: C_7  and  N_8
REMARK    9  A    between atoms: N_8  and  C_9
REMARK   10  A    between atoms: N_8  and  C_25
REMARK   11  A    between atoms: C_9  and  C_10
REMARK   12  A    between atoms: C_25  and  N_27
REMARK   13  A    between atoms: N_27  and  C_28
REMARK   14  A    between atoms: C_33  and  C_34
REMARK   15  A    between atoms: C_34  and  O_36
REMARK   16  A    between atoms: O_36  and  C_37
REMARK                            x       y       z     vdW  Elec       q    Type
REMARK                         _______ _______ _______ _____ _____    ______ ____
ROOT
ATOM      1  N   UNL     1      -0.269   1.449  -0.252  0.00  0.00    -0.308 N 
ENDROOT
BRANCH   1   2
ATOM      2  C   UNL     1      -0.235   0.108  -0.384  0.00  0.00    +0.137 C 
ATOM      3  S   UNL     1       1.109  -0.644  -1.132  0.00  0.00    -0.018 S 
BRANCH   2   4
ATOM      4  N   UNL     1      -1.258  -0.641   0.073  0.00  0.00    -0.296 N 
ATOM      5  H   UNL     1      -2.048  -0.212   0.437  0.00  0.00    +0.154 HD
BRANCH   4   6
ATOM      6  C   UNL     1      -1.180  -2.030   0.023  0.00  0.00    +0.047 A 
ATOM      7  C   UNL     1       0.012  -2.674   0.326  0.00  0.00    +0.024 A 
ATOM      8  C   UNL     1       0.085  -4.051   0.280  0.00  0.00    +0.002 A 
ATOM      9  C   UNL     1      -1.024  -4.801  -0.077  0.00  0.00    +0.001 A 
ATOM     10  C   UNL     1      -2.214  -4.180  -0.387  0.00  0.00    +0.017 A 
ATOM     11  C   UNL     1      -2.305  -2.786  -0.340  0.00  0.00    +0.080 A 
BRANCH  11  12
ATOM     12  C   UNL     1      -3.575  -2.115  -0.670  0.00  0.00    +0.341 C 
ATOM     13  O   UNL     1      -3.624  -0.902  -0.729  0.00  0.00    -0.245 OA
BRANCH  12  14
ATOM     14  O   UNL     1      -4.682  -2.846  -0.906  0.00  0.00    -0.464 OA
ATOM     15  C   UNL     1      -5.897  -2.118  -1.226  0.00  0.00    +0.280 C 
ENDBRANCH  12  14
ENDBRANCH  11  12
ENDBRANCH   4   6
ENDBRANCH   2   4
ENDBRANCH   1   2
BRANCH   1  16
ATOM     16  C   UNL     1      -1.467   2.101   0.284  0.00  0.00    +0.105 C 
BRANCH  16  17
ATOM     17  C   UNL     1      -1.350   2.211   1.805  0.00  0.00    +0.000 C 
BRANCH  17  18
ATOM     18  C   UNL     1      -2.600   2.893   2.365  0.00  0.00    -0.077 C 
BRANCH  18  19
ATOM     19  N   UNL     1      -2.430   3.073   3.822  0.00  0.00    +0.379 N 
ATOM     20  H   UNL     1      -2.011   2.222   4.216  0.00  0.00    -0.082 HD
BRANCH  19  22
ATOM     21  C   UNL     1      -1.195   4.243   5.580  0.00  0.00    -0.017 C 
ATOM     22  C   UNL     1      -1.532   4.217   4.088  0.00  0.00    -0.082 C 
ENDBRANCH  19  22
BRANCH  19  23
ATOM     23  C   UNL     1      -3.743   3.302   4.460  0.00  0.00    -0.082 C 
ATOM     24  C   UNL     1      -4.473   1.962   4.575  0.00  0.00    -0.017 C 
ENDBRANCH  19  23
ENDBRANCH  18  19
ENDBRANCH  17  18
ENDBRANCH  16  17
ENDBRANCH   1  16
BRANCH   1  25
ATOM     25  C   UNL     1       0.888   2.254  -0.650  0.00  0.00    +0.147 C 
BRANCH  25  26
ATOM     26  C   UNL     1       1.839   2.376   0.512  0.00  0.00    +0.035 A 
ATOM     27  C   UNL     1       2.890   1.522   0.618  0.00  0.00    +0.020 A 
ATOM     28  C   UNL     1       3.796   1.666   1.756  0.00  0.00    +0.003 A 
ATOM     29  C   UNL     1       4.897   0.815   1.915  0.00  0.00    +0.059 A 
ATOM     30  C   UNL     1       5.733   0.975   2.998  0.00  0.00    +0.167 A 
ATOM     31  C   UNL     1       5.486   1.984   3.938  0.00  0.00    +0.168 A 
ATOM     32  C   UNL     1       4.401   2.829   3.788  0.00  0.00    +0.075 A 
ATOM     33  C   UNL     1       3.548   2.680   2.702  0.00  0.00    +0.053 A 
ATOM     34  N   UNL     1       2.462   3.515   2.536  0.00  0.00    -0.322 N 
ATOM     35  H   UNL     1       2.284   4.232   3.210  0.00  0.00    +0.169 HD
ATOM     36  C   UNL     1       1.639   3.378   1.482  0.00  0.00    +0.254 A 
ATOM     37  O   UNL     1       0.692   4.137   1.365  0.00  0.00    -0.268 OA
ATOM     38  O   UNL     1       6.452   1.926   4.899  0.00  0.00    -0.453 OA
ATOM     39  C   UNL     1       7.520   1.149   4.326  0.00  0.00    +0.466 C 
ATOM     40  O   UNL     1       6.854   0.294   3.379  0.00  0.00    -0.453 OA
ENDBRANCH  25  26
ENDBRANCH   1  25
TORSDOF 13
