REMARK  Name = ZINC54672193
REMARK  6 active torsions:
REMARK  status: ('A' for Active; 'I' for Inactive)
REMARK    1  A    between atoms: C_2  and  N_9
REMARK    2  A    between atoms: C_10  and  C_12
REMARK    3  A    between atoms: C_12  and  C_13
REMARK    4  A    between atoms: N_26  and  C_27
REMARK    5  A    between atoms: C_27  and  C_28
REMARK    6  A    between atoms: C_33  and  C_36
REMARK                            x       y       z     vdW  Elec       q    Type
REMARK                         _______ _______ _______ _____ _____    ______ ____
ROOT
ATOM      1  C   UNL     1       3.313   5.813  -0.450  0.00  0.00    +0.153 C 
ATOM      2  C   UNL     1       3.141   7.298  -0.314  0.00  0.00    +0.231 C 
ATOM      3  O   UNL     1       2.224   7.713   0.362  0.00  0.00    -0.274 OA
ATOM      4  N   UNL     1       3.951   8.188  -0.904  0.00  0.00    -0.310 N 
ATOM      5  C   UNL     1       5.033   7.777  -1.788  0.00  0.00    +0.090 C 
ATOM      6  C   UNL     1       6.269   8.656  -1.609  0.00  0.00    +0.024 C 
ATOM      7  C   UNL     1       7.342   8.211  -2.609  0.00  0.00    +0.002 C 
ATOM      8  C   UNL     1       7.702   6.745  -2.371  0.00  0.00    +0.002 C 
ATOM      9  C   UNL     1       6.454   5.868  -2.521  0.00  0.00    +0.021 C 
ATOM     10  C   UNL     1       5.418   6.326  -1.494  0.00  0.00    +0.078 C 
ATOM     11  N   UNL     1       4.211   5.496  -1.571  0.00  0.00    -0.278 NA
ATOM     12  H   UNL     1       3.812   9.133  -0.738  0.00  0.00    +0.149 HD
ENDROOT
BRANCH   1  13
ATOM     13  C   UNL     1       1.949   5.167  -0.699  0.00  0.00    +0.124 C 
BRANCH  13  15
ATOM     14  N   UNL     1       0.153   5.303  -2.395  0.00  0.00    -0.285 N 
ATOM     15  C   UNL     1       1.405   5.637  -2.023  0.00  0.00    +0.219 C 
ATOM     16  O   UNL     1       2.094   6.317  -2.755  0.00  0.00    -0.275 OA
ATOM     17  H   UNL     1      -0.407   4.783  -1.798  0.00  0.00    +0.155 HD
BRANCH  14  19
ATOM     18  C   UNL     1      -1.158   4.858  -4.373  0.00  0.00    +0.043 A 
ATOM     19  C   UNL     1      -0.338   5.706  -3.641  0.00  0.00    +0.036 A 
ATOM     20  C   UNL     1      -0.007   6.956  -4.148  0.00  0.00    +0.043 A 
ATOM     21  C   UNL     1      -0.494   7.352  -5.380  0.00  0.00    +0.044 A 
ATOM     22  C   UNL     1      -1.311   6.505  -6.107  0.00  0.00    +0.040 A 
ATOM     23  C   UNL     1      -1.642   5.259  -5.604  0.00  0.00    +0.044 A 
ATOM     24 CL   UNL     1      -2.667   4.198  -6.521  0.00  0.00    -0.083 Cl
ATOM     25 CL   UNL     1      -0.080   8.914  -6.014  0.00  0.00    -0.083 Cl
ENDBRANCH  14  19
ENDBRANCH  13  15
ENDBRANCH   1  13
BRANCH  11  26
ATOM     26  C   UNL     1       4.555   4.068  -1.582  0.00  0.00    +0.181 C 
BRANCH  26  27
ATOM     27  C   UNL     1       5.378   3.739  -0.364  0.00  0.00    +0.230 C 
ATOM     28  O   UNL     1       5.643   4.607   0.441  0.00  0.00    -0.274 OA
ATOM     29  N   UNL     1       5.821   2.481  -0.168  0.00  0.00    -0.300 N 
ATOM     30  C   UNL     1       5.614   1.448  -1.192  0.00  0.00    +0.108 C 
ATOM     31  C   UNL     1       6.966   0.809  -1.527  0.00  0.00    +0.032 C 
ATOM     32  C   UNL     1       7.616   0.297  -0.240  0.00  0.00    +0.078 C 
ATOM     33  C   UNL     1       7.860   1.470   0.712  0.00  0.00    +0.032 C 
ATOM     34  C   UNL     1       6.524   2.119   1.070  0.00  0.00    +0.108 C 
BRANCH  32  35
ATOM     35  C   UNL     1       8.931  -0.363  -0.569  0.00  0.00    +0.214 C 
ATOM     36  O   UNL     1       9.396  -0.263  -1.685  0.00  0.00    -0.276 OA
ATOM     37  N   UNL     1       9.588  -1.064   0.376  0.00  0.00    -0.329 N 
ATOM     38  H   UNL     1       9.182  -1.205   1.245  0.00  0.00    +0.145 HD
ATOM     39  H   UNL     1      10.467  -1.427   0.186  0.00  0.00    +0.145 HD
ENDBRANCH  32  35
ENDBRANCH  26  27
ENDBRANCH  11  26
TORSDOF 6
