REMARK  Name = ZINC09431251
REMARK  4 active torsions:
REMARK  status: ('A' for Active; 'I' for Inactive)
REMARK    1  A    between atoms: C_5  and  C_7
REMARK    2  A    between atoms: C_9  and  C_12
REMARK    3  A    between atoms: C_13  and  N_25
REMARK    4  A    between atoms: N_14  and  C_17
REMARK                            x       y       z     vdW  Elec       q    Type
REMARK                         _______ _______ _______ _____ _____    ______ ____
ROOT
ATOM      1  C   UNL     1      -6.051   0.821   0.134  0.00  0.00    +0.191 A 
ATOM      2  C   UNL     1      -6.913  -0.266   0.170  0.00  0.00    +0.153 A 
ATOM      3  N   UNL     1      -8.170   0.239   0.020  0.00  0.00    -0.196 N 
ATOM      4  N   UNL     1      -8.035   1.628  -0.103  0.00  0.00    -0.058 NA
ATOM      5  N   UNL     1      -6.788   1.934  -0.027  0.00  0.00    -0.122 NA
ENDROOT
BRANCH   3   6
ATOM      6  C   UNL     1      -9.368  -0.492  -0.006  0.00  0.00    +0.104 A 
ATOM      7  C   UNL     1      -9.473  -1.627  -0.798  0.00  0.00    +0.032 A 
ATOM      8  C   UNL     1     -10.651  -2.347  -0.819  0.00  0.00    +0.017 A 
ATOM      9  C   UNL     1     -11.731  -1.933  -0.059  0.00  0.00    +0.021 A 
ATOM     10  C   UNL     1     -11.632  -0.800   0.729  0.00  0.00    +0.055 A 
ATOM     11  C   UNL     1     -10.453  -0.078   0.758  0.00  0.00    +0.150 A 
ATOM     12  F   UNL     1     -10.356   1.029   1.527  0.00  0.00    -0.203 F 
ATOM     13 BR   UNL     1     -13.345  -2.918  -0.096  0.00  0.00    -0.050 Br
ENDBRANCH   3   6
BRANCH   1  16
ATOM     14  C   UNL     1      -2.521   1.262   0.377  0.00  0.00    +0.205 A 
ATOM     15  N   UNL     1      -3.752   1.793   0.226  0.00  0.00    -0.185 NA
ATOM     16  C   UNL     1      -4.586   0.766   0.258  0.00  0.00    +0.282 A 
ATOM     17  O   UNL     1      -3.837  -0.337   0.425  0.00  0.00    -0.331 OA
ATOM     18  N   UNL     1      -2.665  -0.035   0.486  0.00  0.00    -0.056 NA
BRANCH  14  23
ATOM     19  C   UNL     1      -0.042   4.087   0.301  0.00  0.00    +0.001 A 
ATOM     20  C   UNL     1       1.152   3.405   0.459  0.00  0.00    +0.003 A 
ATOM     21  C   UNL     1       1.157   2.029   0.594  0.00  0.00    +0.039 A 
ATOM     22  C   UNL     1      -0.034   1.326   0.572  0.00  0.00    +0.134 A 
ATOM     23  C   UNL     1      -1.240   2.009   0.408  0.00  0.00    +0.058 A 
ATOM     24  C   UNL     1      -1.236   3.397   0.278  0.00  0.00    +0.014 A 
ATOM     25  F   UNL     1      -0.030  -0.018   0.703  0.00  0.00    -0.205 F 
ENDBRANCH  14  23
ENDBRANCH   1  16
BRANCH   2  26
ATOM     26  N   UNL     1      -6.566  -1.595   0.327  0.00  0.00    -0.341 N 
ATOM     27  H   UNL     1      -5.631  -1.854   0.337  0.00  0.00    +0.144 HD
ATOM     28  H   UNL     1      -7.257  -2.268   0.425  0.00  0.00    +0.144 HD
ENDBRANCH   2  26
TORSDOF 4
