REMARK  Name = ZINC08173156
REMARK  10 active torsions:
REMARK  status: ('A' for Active; 'I' for Inactive)
REMARK    1  A    between atoms: C_1  and  C_2
REMARK    2  A    between atoms: C_6  and  C_29
REMARK    3  A    between atoms: C_7  and  N_8
REMARK    4  A    between atoms: C_9  and  S_13
REMARK    5  A    between atoms: S_13  and  C_14
REMARK    6  A    between atoms: C_14  and  C_16
REMARK    7  A    between atoms: C_14  and  C_17
REMARK    8  A    between atoms: N_19  and  C_20
REMARK    9  A    between atoms: C_25  and  C_26
REMARK   10  A    between atoms: C_26  and  C_28
REMARK                            x       y       z     vdW  Elec       q    Type
REMARK                         _______ _______ _______ _____ _____    ______ ____
ROOT
ATOM      1  C   UNL     1       0.550  -2.595   5.864  0.00  0.00    +0.137 C 
ATOM      2  C   UNL     1      -0.863  -2.326   6.385  0.00  0.00    +0.029 C 
ENDROOT
BRANCH   1   3
ATOM      3  C   UNL     1       0.959  -4.000   6.223  0.00  0.00    +0.230 C 
ATOM      4  O   UNL     1       0.889  -4.883   5.393  0.00  0.00    -0.274 OA
ATOM      5  N   UNL     1       1.400  -4.277   7.465  0.00  0.00    -0.284 N 
ATOM      6  H   UNL     1       1.528  -3.560   8.106  0.00  0.00    +0.155 HD
BRANCH   5   7
ATOM      7  C   UNL     1       1.674  -5.592   7.830  0.00  0.00    +0.044 A 
ATOM      8  C   UNL     1       0.987  -6.640   7.231  0.00  0.00    +0.024 A 
ATOM      9  C   UNL     1       1.259  -7.943   7.594  0.00  0.00    +0.002 A 
ATOM     10  C   UNL     1       2.218  -8.219   8.557  0.00  0.00    +0.001 A 
ATOM     11  C   UNL     1       2.911  -7.195   9.163  0.00  0.00    +0.013 A 
ATOM     12  C   UNL     1       2.651  -5.867   8.802  0.00  0.00    +0.038 A 
BRANCH  12  13
ATOM     13  C   UNL     1       3.389  -4.771   9.439  0.00  0.00    +0.162 C 
ATOM     14  O   UNL     1       3.095  -3.619   9.194  0.00  0.00    -0.292 OA
ATOM     15  C   UNL     1       4.512  -5.075  10.398  0.00  0.00    +0.091 C 
ENDBRANCH  12  13
ENDBRANCH   5   7
ENDBRANCH   1   3
BRANCH   1  16
ATOM     16  S   UNL     1       0.577  -2.399   4.061  0.00  0.00    -0.072 S 
BRANCH  16  18
ATOM     17  N   UNL     1       0.138  -0.050   2.619  0.00  0.00    -0.187 N 
ATOM     18  C   UNL     1       0.227  -0.690   3.812  0.00  0.00    +0.215 A 
ATOM     19  N   UNL     1       0.003   0.207   4.749  0.00  0.00    -0.101 NA
ATOM     20  N   UNL     1      -0.219   1.358   4.225  0.00  0.00    -0.022 NA
ATOM     21  N   UNL     1      -0.149   1.288   2.940  0.00  0.00    -0.038 NA
BRANCH  17  28
ATOM     22  C   UNL     1       2.171   1.021   0.940  0.00  0.00    +0.046 C 
ATOM     23  C   UNL     1       1.282  -0.110   0.491  0.00  0.00    -0.025 A 
ATOM     24  C   UNL     1       1.446  -0.661  -0.765  0.00  0.00    +0.005 A 
ATOM     25  C   UNL     1       0.630  -1.699  -1.178  0.00  0.00    +0.001 A 
ATOM     26  C   UNL     1      -0.351  -2.188  -0.335  0.00  0.00    +0.005 A 
ATOM     27  C   UNL     1      -0.519  -1.642   0.922  0.00  0.00    -0.025 A 
ATOM     28  C   UNL     1       0.302  -0.604   1.341  0.00  0.00    +0.076 A 
ATOM     29  C   UNL     1      -1.588  -2.175   1.840  0.00  0.00    +0.046 C 
ENDBRANCH  17  28
ENDBRANCH  16  18
ENDBRANCH   1  16
TORSDOF 6
