REMARK  Name = ZINC44878030
REMARK  11 active torsions:
REMARK  status: ('A' for Active; 'I' for Inactive)
REMARK    1  A    between atoms: C_1  and  C_2
REMARK    2  A    between atoms: N_7  and  C_9
REMARK    3  A    between atoms: C_9  and  C_10
REMARK    4  A    between atoms: C_13  and  C_16
REMARK    5  A    between atoms: C_16  and  N_17
REMARK    6  A    between atoms: C_18  and  C_20
REMARK    7  A    between atoms: C_23  and  N_26
REMARK    8  A    between atoms: N_26  and  C_27
REMARK    9  A    between atoms: N_26  and  S_34
REMARK   10  A    between atoms: C_27  and  C_28
REMARK   11  A    between atoms: S_34  and  C_37
REMARK                            x       y       z     vdW  Elec       q    Type
REMARK                         _______ _______ _______ _____ _____    ______ ____
ROOT
ATOM      1  N   UNL     1       1.614  -8.756   0.778  0.00  0.00    -0.307 N 
ATOM      2  C   UNL     1       1.230 -10.044   0.687  0.00  0.00    +0.244 C 
ATOM      3  O   UNL     1       1.425 -10.804   1.616  0.00  0.00    -0.270 OA
ATOM      4  H   UNL     1       1.458  -8.150   0.037  0.00  0.00    +0.149 HD
ENDROOT
BRANCH   2   5
ATOM      5  C   UNL     1       0.571 -10.533  -0.539  0.00  0.00    +0.037 A 
ATOM      6  C   UNL     1       0.350  -9.662  -1.610  0.00  0.00    +0.015 A 
ATOM      7  C   UNL     1      -0.264 -10.121  -2.753  0.00  0.00    +0.025 A 
ATOM      8  C   UNL     1      -0.665 -11.451  -2.843  0.00  0.00    +0.051 A 
ATOM      9  C   UNL     1      -0.448 -12.320  -1.778  0.00  0.00    +0.025 A 
ATOM     10  C   UNL     1       0.172 -11.869  -0.635  0.00  0.00    +0.015 A 
BRANCH   8  11
ATOM     11  N   UNL     1      -1.286 -11.911  -3.999  0.00  0.00    -0.203 N 
BRANCH  11  12
ATOM     12  S   UNL     1      -2.573 -11.085  -4.633  0.00  0.00    +0.043 S 
ATOM     13  O   UNL     1      -3.364 -12.078  -5.270  0.00  0.00    -0.155 OA
ATOM     14  O   UNL     1      -3.092 -10.332  -3.545  0.00  0.00    -0.155 OA
ATOM     15  C   UNL     1      -1.849  -9.974  -5.871  0.00  0.00    +0.218 C 
ENDBRANCH  11  12
BRANCH  11  16
ATOM     16  C   UNL     1      -0.802 -13.128  -4.655  0.00  0.00    +0.166 C 
BRANCH  16  17
ATOM     17  C   UNL     1       0.390 -12.795  -5.515  0.00  0.00    -0.028 A 
ATOM     18  C   UNL     1       0.203 -12.315  -6.798  0.00  0.00    +0.005 A 
ATOM     19  C   UNL     1       1.296 -12.009  -7.588  0.00  0.00    +0.000 A 
ATOM     20  C   UNL     1       2.576 -12.182  -7.093  0.00  0.00    +0.000 A 
ATOM     21  C   UNL     1       2.762 -12.661  -5.810  0.00  0.00    +0.000 A 
ATOM     22  C   UNL     1       1.669 -12.963  -5.019  0.00  0.00    +0.005 A 
ENDBRANCH  16  17
ENDBRANCH  11  16
ENDBRANCH   8  11
ENDBRANCH   2   5
BRANCH   1  23
ATOM     23  C   UNL     1       2.268  -8.271   1.996  0.00  0.00    +0.139 C 
BRANCH  23  27
ATOM     24  C   UNL     1       3.194  -4.123   1.562  0.00  0.00    -0.064 A 
ATOM     25  C   UNL     1       1.976  -4.508   2.090  0.00  0.00    +0.002 A 
ATOM     26  C   UNL     1       1.677  -5.850   2.231  0.00  0.00    +0.005 A 
ATOM     27  C   UNL     1       2.595  -6.807   1.842  0.00  0.00    -0.030 A 
ATOM     28  C   UNL     1       3.812  -6.423   1.312  0.00  0.00    +0.005 A 
ATOM     29  C   UNL     1       4.110  -5.080   1.168  0.00  0.00    +0.002 A 
BRANCH  24  30
ATOM     30  C   UNL     1       3.521  -2.660   1.409  0.00  0.00    -0.043 C 
BRANCH  30  36
ATOM     31  C   UNL     1       3.560   1.108  -1.717  0.00  0.00    +0.005 C 
ATOM     32  C   UNL     1       3.111  -0.340  -1.513  0.00  0.00    -0.031 C 
ATOM     33  C   UNL     1       1.590  -0.430  -1.667  0.00  0.00    -0.001 C 
ATOM     34  C   UNL     1       1.142  -1.867  -1.384  0.00  0.00    -0.018 C 
ATOM     35  C   UNL     1       1.609  -2.275   0.015  0.00  0.00    -0.078 C 
ATOM     36  N   UNL     1       3.072  -2.193   0.090  0.00  0.00    +0.383 N 
ATOM     37  C   UNL     1       3.506  -0.805  -0.110  0.00  0.00    -0.075 C 
ATOM     38  H   UNL     1       3.478  -2.777  -0.627  0.00  0.00    -0.081 HD
ENDBRANCH  30  36
ENDBRANCH  24  30
ENDBRANCH  23  27
ENDBRANCH   1  23
TORSDOF 9
