REMARK  Name = ZINC06301698
REMARK  7 active torsions:
REMARK  status: ('A' for Active; 'I' for Inactive)
REMARK    1  A    between atoms: C_1  and  C_2
REMARK    2  A    between atoms: C_4  and  C_37
REMARK    3  A    between atoms: C_7  and  C_14
REMARK    4  A    between atoms: C_14  and  C_16
REMARK    5  A    between atoms: C_14  and  N_65
REMARK    6  A    between atoms: N_20  and  C_21
REMARK    7  A    between atoms: C_21  and  C_22
REMARK                            x       y       z     vdW  Elec       q    Type
REMARK                         _______ _______ _______ _____ _____    ______ ____
ROOT
ATOM      1  C   UNL     1      -0.018   1.465   0.010  0.00  0.00    +0.039 C 
ENDROOT
BRANCH   1   8
ATOM      2  C   UNL     1      -4.337   4.541   5.969  0.00  0.00    +0.044 C 
ATOM      3  C   UNL     1      -3.662   4.081   4.702  0.00  0.00    -0.048 A 
ATOM      4  C   UNL     1      -4.128   4.530   3.474  0.00  0.00    +0.007 A 
ATOM      5  C   UNL     1      -3.531   4.125   2.314  0.00  0.00    -0.041 A 
ATOM      6  C   UNL     1      -2.440   3.252   2.364  0.00  0.00    +0.002 A 
ATOM      7  C   UNL     1      -1.776   2.798   1.140  0.00  0.00    +0.018 A 
ATOM      8  C   UNL     1      -0.723   1.951   1.250  0.00  0.00    +0.011 A 
ATOM      9  C   UNL     1      -0.289   1.518   2.521  0.00  0.00    +0.251 A 
ATOM     10  O   UNL     1       0.656   0.752   2.597  0.00  0.00    -0.268 OA
ATOM     11  N   UNL     1      -0.889   1.933   3.651  0.00  0.00    -0.322 N 
ATOM     12  H   UNL     1      -0.562   1.619   4.508  0.00  0.00    +0.169 HD
ATOM     13  C   UNL     1      -1.964   2.795   3.607  0.00  0.00    +0.050 A 
ATOM     14  C   UNL     1      -2.588   3.220   4.775  0.00  0.00    +0.029 A 
ATOM     15  C   UNL     1      -4.046   4.618   0.986  0.00  0.00    +0.044 C 
ENDBRANCH   1   8
BRANCH   1  25
ATOM     16  C   UNL     1       0.578  -0.517  -1.252  0.00  0.00    -0.072 C 
ATOM     17  C   UNL     1       0.912  -1.997  -1.062  0.00  0.00    +0.017 C 
ATOM     18  C   UNL     1      -0.280  -2.725  -0.497  0.00  0.00    -0.048 A 
ATOM     19  C   UNL     1      -0.309  -4.109  -0.579  0.00  0.00    +0.004 A 
ATOM     20  C   UNL     1      -1.379  -4.816  -0.070  0.00  0.00    +0.000 A 
ATOM     21  C   UNL     1      -2.429  -4.141   0.525  0.00  0.00    +0.000 A 
ATOM     22  C   UNL     1      -2.402  -2.763   0.606  0.00  0.00    +0.002 A 
ATOM     23  C   UNL     1      -1.327  -2.051   0.094  0.00  0.00    -0.061 A 
ATOM     24  C   UNL     1      -1.345  -0.549   0.202  0.00  0.00    -0.041 C 
ATOM     25  N   UNL     1       0.016  -0.015   0.019  0.00  0.00    +0.392 N 
ATOM     26  H   UNL     1       0.608  -0.332   0.796  0.00  0.00    -0.080 HD
ENDBRANCH   1  25
BRANCH   1  27
ATOM     27  C   UNL     1       1.396   1.986  -0.001  0.00  0.00    +0.143 A 
ATOM     28  N   UNL     1       2.395   1.556   0.731  0.00  0.00    -0.115 NA
ATOM     29  N   UNL     1       3.436   2.253   0.433  0.00  0.00    -0.023 NA
ATOM     30  N   UNL     1       3.128   3.118  -0.470  0.00  0.00    -0.044 NA
ATOM     31  N   UNL     1       1.880   2.981  -0.767  0.00  0.00    -0.228 N 
BRANCH  31  32
ATOM     32  C   UNL     1       1.129   3.765  -1.752  0.00  0.00    +0.178 C 
BRANCH  32  33
ATOM     33  C   UNL     1       0.523   4.994  -1.071  0.00  0.00    +0.140 C 
ATOM     34  C   UNL     1      -0.364   5.763  -2.073  0.00  0.00    +0.035 C 
ATOM     35  C   UNL     1      -0.048   7.243  -1.723  0.00  0.00    +0.031 C 
ATOM     36  C   UNL     1       1.446   7.139  -1.326  0.00  0.00    +0.160 C 
ATOM     37  O   UNL     1       1.567   5.879  -0.648  0.00  0.00    -0.375 OA
ENDBRANCH  32  33
ENDBRANCH  31  32
ENDBRANCH   1  27
TORSDOF 5
