REMARK  Name = ZINC37357950
REMARK  6 active torsions:
REMARK  status: ('A' for Active; 'I' for Inactive)
REMARK    1  A    between atoms: C_6  and  C_7
REMARK    2  A    between atoms: C_9  and  N_31
REMARK    3  A    between atoms: N_10  and  C_24
REMARK    4  A    between atoms: N_16  and  C_17
REMARK    5  A    between atoms: C_17  and  C_18
REMARK    6  A    between atoms: C_18  and  N_19
REMARK                            x       y       z     vdW  Elec       q    Type
REMARK                         _______ _______ _______ _____ _____    ______ ____
ROOT
ATOM      1  C   UNL     1      -1.355  -0.632  -0.195  0.00  0.00    +0.089 A 
ATOM      2  C   UNL     1      -1.457  -1.874  -0.861  0.00  0.00    +0.086 A 
ATOM      3  C   UNL     1      -0.617  -2.655  -1.646  0.00  0.00    +0.131 A 
ATOM      4  N   UNL     1      -1.303  -3.760  -1.998  0.00  0.00    -0.216 N 
ATOM      5  N   UNL     1      -2.591  -3.716  -1.451  0.00  0.00    -0.144 NA
ATOM      6  C   UNL     1      -2.733  -2.605  -0.760  0.00  0.00    +0.189 A 
ATOM      7  N   UNL     1      -3.725  -2.046  -0.041  0.00  0.00    -0.193 NA
ATOM      8  C   UNL     1      -3.543  -0.882   0.549  0.00  0.00    +0.218 A 
ATOM      9  N   UNL     1      -2.407  -0.195   0.486  0.00  0.00    -0.214 NA
ATOM     10  N   UNL     1      -4.591  -0.348   1.277  0.00  0.00    -0.315 N 
ATOM     11  H   UNL     1      -4.486   0.508   1.722  0.00  0.00    +0.149 HD
ENDROOT
BRANCH   1  17
ATOM     12  C   UNL     1       0.549   0.351  -1.468  0.00  0.00    +0.011 A 
ATOM     13  C   UNL     1       1.714   1.089  -1.513  0.00  0.00    +0.020 A 
ATOM     14  C   UNL     1       2.234   1.638  -0.353  0.00  0.00    +0.041 A 
ATOM     15  C   UNL     1       1.590   1.450   0.858  0.00  0.00    +0.020 A 
ATOM     16  C   UNL     1       0.425   0.714   0.915  0.00  0.00    +0.011 A 
ATOM     17  C   UNL     1      -0.104   0.158  -0.250  0.00  0.00    +0.001 A 
ATOM     18 CL   UNL     1       3.701   2.564  -0.418  0.00  0.00    -0.084 Cl
ENDBRANCH   1  17
BRANCH   4  19
ATOM     19  C   UNL     1      -0.802  -4.798  -2.793  0.00  0.00    +0.068 A 
ATOM     20  C   UNL     1       0.082  -4.518  -3.827  0.00  0.00    +0.029 A 
ATOM     21  C   UNL     1       0.574  -5.543  -4.609  0.00  0.00    +0.022 A 
ATOM     22  C   UNL     1       0.189  -6.850  -4.364  0.00  0.00    +0.041 A 
ATOM     23  C   UNL     1      -0.692  -7.131  -3.334  0.00  0.00    +0.022 A 
ATOM     24  C   UNL     1      -1.183  -6.110  -2.545  0.00  0.00    +0.029 A 
ATOM     25 CL   UNL     1       0.810  -8.137  -5.349  0.00  0.00    -0.084 Cl
ENDBRANCH   4  19
BRANCH   3  26
ATOM     26  N   UNL     1       0.684  -2.352  -2.001  0.00  0.00    -0.342 N 
ATOM     27  H   UNL     1       1.144  -1.614  -1.573  0.00  0.00    +0.144 HD
ATOM     28  H   UNL     1       1.137  -2.879  -2.678  0.00  0.00    +0.144 HD
ENDBRANCH   3  26
BRANCH  10  29
ATOM     29  C   UNL     1      -5.860  -1.074   1.376  0.00  0.00    +0.086 C 
BRANCH  29  30
ATOM     30  C   UNL     1      -6.842  -0.270   2.231  0.00  0.00    -0.060 C 
BRANCH  30  31
ATOM     31  N   UNL     1      -8.114  -0.998   2.331  0.00  0.00    +0.381 N 
ATOM     32  C   UNL     1      -7.936  -2.230   3.141  0.00  0.00    -0.079 C 
ATOM     33  C   UNL     1      -9.375  -2.551   3.617  0.00  0.00    -0.020 C 
ATOM     34  C   UNL     1      -9.971  -1.151   3.887  0.00  0.00    -0.020 C 
ATOM     35  C   UNL     1      -9.113  -0.181   3.052  0.00  0.00    -0.079 C 
ATOM     36  H   UNL     1      -8.454  -1.232   1.410  0.00  0.00    -0.082 HD
ENDBRANCH  30  31
ENDBRANCH  29  30
ENDBRANCH  10  29
TORSDOF 6
