REMARK  Name = ZINC35071397
REMARK  13 active torsions:
REMARK  status: ('A' for Active; 'I' for Inactive)
REMARK    1  A    between atoms: C_1  and  C_2
REMARK    2  A    between atoms: C_2  and  C_3
REMARK    3  A    between atoms: C_3  and  C_5
REMARK    4  A    between atoms: C_3  and  N_24
REMARK    5  A    between atoms: N_15  and  C_16
REMARK    6  A    between atoms: C_21  and  C_22
REMARK    7  A    between atoms: N_24  and  C_25
REMARK    8  A    between atoms: C_25  and  C_26
REMARK    9  A    between atoms: C_26  and  C_27
REMARK   10  A    between atoms: C_26  and  C_28
REMARK   11  A    between atoms: N_31  and  C_32
REMARK   12  A    between atoms: C_33  and  C_39
REMARK   13  A    between atoms: C_37  and  C_38
REMARK                            x       y       z     vdW  Elec       q    Type
REMARK                         _______ _______ _______ _____ _____    ______ ____
ROOT
ATOM      1  C   UNL     1       1.457   0.538  -0.019  0.00  0.00    +0.144 C 
ENDROOT
BRANCH   1   2
ATOM      2  C   UNL     1       0.703  -0.756  -0.190  0.00  0.00    +0.138 A 
ATOM      3  N   UNL     1       1.260  -1.853   0.227  0.00  0.00    -0.231 NA
ATOM      4  C   UNL     1       0.642  -3.054   0.107  0.00  0.00    +0.078 A 
ATOM      5  C   UNL     1       1.240  -4.233   0.556  0.00  0.00    +0.028 A 
ATOM      6  C   UNL     1       0.576  -5.431   0.414  0.00  0.00    +0.002 A 
ATOM      7  C   UNL     1      -0.683  -5.482  -0.170  0.00  0.00    +0.001 A 
ATOM      8  C   UNL     1      -1.294  -4.332  -0.621  0.00  0.00    +0.015 A 
ATOM      9  C   UNL     1      -0.639  -3.110  -0.487  0.00  0.00    +0.065 A 
ATOM     10  C   UNL     1      -1.241  -1.851  -0.949  0.00  0.00    +0.266 A 
ATOM     11  O   UNL     1      -2.342  -1.830  -1.469  0.00  0.00    -0.267 OA
ATOM     12  N   UNL     1      -0.527  -0.715  -0.769  0.00  0.00    -0.263 N 
BRANCH  12  13
ATOM     13  C   UNL     1      -1.058   0.512  -1.187  0.00  0.00    +0.054 A 
ATOM     14  C   UNL     1      -0.768   1.000  -2.454  0.00  0.00    +0.028 A 
ATOM     15  C   UNL     1      -1.292   2.210  -2.864  0.00  0.00    +0.022 A 
ATOM     16  C   UNL     1      -2.105   2.937  -2.011  0.00  0.00    +0.041 A 
ATOM     17  C   UNL     1      -2.395   2.454  -0.748  0.00  0.00    +0.025 A 
ATOM     18  C   UNL     1      -1.878   1.241  -0.336  0.00  0.00    -0.025 A 
ATOM     19  C   UNL     1      -2.200   0.712   1.038  0.00  0.00    +0.046 C 
ATOM     20 CL   UNL     1      -2.762   4.458  -2.529  0.00  0.00    -0.084 Cl
ENDBRANCH  12  13
ENDBRANCH   1   2
BRANCH   1  21
ATOM     21  N   UNL     1       2.657   0.519  -0.859  0.00  0.00    -0.275 N 
ATOM     22  C   UNL     1       2.858   1.492  -1.770  0.00  0.00    +0.307 C 
ATOM     23  O   UNL     1       2.043   2.385  -1.895  0.00  0.00    -0.252 OA
ATOM     24  N   UNL     1       3.962   1.474  -2.542  0.00  0.00    -0.269 N 
ATOM     25  H   UNL     1       4.593   0.741  -2.470  0.00  0.00    +0.156 HD
BRANCH  24  26
ATOM     26  C   UNL     1       4.199   2.514  -3.448  0.00  0.00    +0.041 A 
ATOM     27  C   UNL     1       5.361   3.270  -3.352  0.00  0.00    -0.029 A 
ATOM     28  C   UNL     1       5.592   4.295  -4.247  0.00  0.00    +0.005 A 
ATOM     29  C   UNL     1       4.668   4.570  -5.240  0.00  0.00    +0.001 A 
ATOM     30  C   UNL     1       3.511   3.820  -5.338  0.00  0.00    +0.005 A 
ATOM     31  C   UNL     1       3.277   2.789  -4.449  0.00  0.00    -0.029 A 
ATOM     32  C   UNL     1       2.018   1.967  -4.561  0.00  0.00    +0.045 C 
ATOM     33  C   UNL     1       6.367   2.972  -2.270  0.00  0.00    +0.045 C 
ENDBRANCH  24  26
BRANCH  21  34
ATOM     34  C   UNL     1       3.639  -0.558  -0.709  0.00  0.00    +0.113 C 
BRANCH  34  35
ATOM     35  C   UNL     1       4.628  -0.195   0.401  0.00  0.00    +0.000 C 
ATOM     36  C   UNL     1       5.571  -1.374   0.649  0.00  0.00    +0.009 C 
ATOM     37  C   UNL     1       5.443   1.029  -0.023  0.00  0.00    +0.009 C 
ENDBRANCH  34  35
ENDBRANCH  21  34
ENDBRANCH   1  21
BRANCH   1  39
ATOM     38  C   UNL     1       2.561   2.051   1.635  0.00  0.00    +0.006 C 
ATOM     39  C   UNL     1       1.862   0.702   1.447  0.00  0.00    +0.027 C 
ENDBRANCH   1  39
TORSDOF 7
