REMARK  Name = ZINC58945538
REMARK  15 active torsions:
REMARK  status: ('A' for Active; 'I' for Inactive)
REMARK    1  A    between atoms: C_1  and  C_2
REMARK    2  A    between atoms: C_2  and  C_3
REMARK    3  A    between atoms: C_3  and  O_4
REMARK    4  A    between atoms: O_4  and  C_5
REMARK    5  A    between atoms: C_8  and  N_11
REMARK    6  A    between atoms: C_12  and  C_14
REMARK    7  A    between atoms: N_19  and  C_34
REMARK    8  A    between atoms: N_21  and  C_22
REMARK    9  A    between atoms: C_25  and  C_28
REMARK   10  A    between atoms: C_28  and  O_30
REMARK   11  A    between atoms: O_30  and  C_31
REMARK   12  A    between atoms: C_31  and  C_32
REMARK   13  A    between atoms: C_34  and  C_35
REMARK   14  A    between atoms: C_35  and  O_37
REMARK   15  A    between atoms: O_37  and  C_38
REMARK                            x       y       z     vdW  Elec       q    Type
REMARK                         _______ _______ _______ _____ _____    ______ ____
ROOT
ATOM      1  C   UNL     1       4.099  -6.380  -6.708  0.00  0.00    +0.149 C 
ATOM      2  C   UNL     1       4.734  -7.677  -6.204  0.00  0.00    +0.120 C 
ATOM      3  C   UNL     1       5.329  -8.486  -7.305  0.00  0.00    +0.223 C 
ATOM      4  O   UNL     1       6.257  -9.199  -6.991  0.00  0.00    -0.275 OA
ATOM      5  N   UNL     1       4.978  -8.528  -8.582  0.00  0.00    -0.240 N 
ATOM      6  C   UNL     1       4.044  -7.691  -9.160  0.00  0.00    +0.164 C 
ATOM      7  N   UNL     1       3.960  -7.557 -10.466  0.00  0.00    -0.226 NA
ATOM      8  S   UNL     1       2.964  -6.802  -8.071  0.00  0.00    -0.077 S 
ENDROOT
BRANCH   7   9
ATOM      9  C   UNL     1       3.027  -6.722 -11.007  0.00  0.00    +0.067 A 
ATOM     10  C   UNL     1       1.713  -6.735 -10.525  0.00  0.00    +0.028 A 
ATOM     11  C   UNL     1       0.780  -5.900 -11.066  0.00  0.00    +0.017 A 
ATOM     12  C   UNL     1       1.137  -5.030 -12.104  0.00  0.00    +0.059 A 
ATOM     13  C   UNL     1       2.451  -5.018 -12.586  0.00  0.00    +0.017 A 
ATOM     14  C   UNL     1       3.385  -5.849 -12.041  0.00  0.00    +0.028 A 
BRANCH  12  15
ATOM     15  C   UNL     1       0.130  -4.129 -12.688  0.00  0.00    +0.339 C 
ATOM     16  O   UNL     1      -1.011  -4.140 -12.270  0.00  0.00    -0.245 OA
BRANCH  15  17
ATOM     17  O   UNL     1       0.473  -3.292 -13.688  0.00  0.00    -0.461 OA
BRANCH  17  18
ATOM     18  C   UNL     1      -0.555  -2.446 -14.207  0.00  0.00    +0.229 C 
ATOM     19  C   UNL     1       0.020  -1.574 -15.325  0.00  0.00    +0.048 C 
ENDBRANCH  17  18
ENDBRANCH  15  17
ENDBRANCH  12  15
ENDBRANCH   7   9
BRANCH   1  21
ATOM     20  N   UNL     1       3.194  -4.380  -5.569  0.00  0.00    -0.285 N 
ATOM     21  C   UNL     1       3.331  -5.721  -5.592  0.00  0.00    +0.231 C 
ATOM     22  O   UNL     1       2.837  -6.396  -4.714  0.00  0.00    -0.274 OA
ATOM     23  H   UNL     1       3.522  -3.846  -6.309  0.00  0.00    +0.155 HD
BRANCH  20  27
ATOM     24  C   UNL     1       1.359  -2.528  -2.314  0.00  0.00    +0.121 A 
ATOM     25  C   UNL     1       2.112  -3.677  -2.124  0.00  0.00    +0.047 A 
ATOM     26  C   UNL     1       2.720  -4.291  -3.201  0.00  0.00    +0.027 A 
ATOM     27  C   UNL     1       2.577  -3.758  -4.475  0.00  0.00    +0.034 A 
ATOM     28  C   UNL     1       1.823  -2.607  -4.665  0.00  0.00    +0.027 A 
ATOM     29  C   UNL     1       1.211  -1.998  -3.588  0.00  0.00    +0.047 A 
BRANCH  24  30
ATOM     30  O   UNL     1       0.760  -1.924  -1.253  0.00  0.00    -0.492 OA
BRANCH  30  31
ATOM     31  C   UNL     1       0.955  -2.523   0.029  0.00  0.00    +0.229 C 
BRANCH  31  33
ATOM     32  C   UNL     1       0.420  -2.352   2.464  0.00  0.00    +0.007 C 
ATOM     33  C   UNL     1       0.212  -1.710   1.091  0.00  0.00    +0.038 C 
ENDBRANCH  31  33
ENDBRANCH  30  31
ENDBRANCH  24  30
ENDBRANCH  20  27
ENDBRANCH   1  21
BRANCH   5  34
ATOM     34  C   UNL     1       5.623  -9.528  -9.436  0.00  0.00    +0.236 C 
BRANCH  34  35
ATOM     35  C   UNL     1       4.817 -10.801  -9.416  0.00  0.00    +0.325 C 
ATOM     36  O   UNL     1       3.807 -10.867  -8.755  0.00  0.00    -0.249 OA
BRANCH  35  37
ATOM     37  O   UNL     1       5.221 -11.863 -10.131  0.00  0.00    -0.467 OA
ATOM     38  C   UNL     1       4.408 -13.037 -10.066  0.00  0.00    +0.280 C 
ENDBRANCH  35  37
ENDBRANCH  34  35
ENDBRANCH   5  34
TORSDOF 12
