REMARK  Name = ZINC36610387
REMARK  11 active torsions:
REMARK  status: ('A' for Active; 'I' for Inactive)
REMARK    1  A    between atoms: C_1  and  C_2
REMARK    2  A    between atoms: C_5  and  S_8
REMARK    3  A    between atoms: S_8  and  C_11
REMARK    4  A    between atoms: C_11  and  N_12
REMARK    5  A    between atoms: C_13  and  C_15
REMARK    6  A    between atoms: C_15  and  C_17
REMARK    7  A    between atoms: C_15  and  N_22
REMARK    8  A    between atoms: N_22  and  C_23
REMARK    9  A    between atoms: C_29  and  C_31
REMARK   10  A    between atoms: C_35  and  O_38
REMARK   11  A    between atoms: C_36  and  O_37
REMARK                            x       y       z     vdW  Elec       q    Type
REMARK                         _______ _______ _______ _____ _____    ______ ____
ROOT
ATOM      1  C   UNL     1       2.624  -5.283   3.360  0.00  0.00    +0.233 C 
ENDROOT
BRANCH   1   2
ATOM      2  C   UNL     1       3.998  -5.177   2.749  0.00  0.00    +0.135 A 
ATOM      3  C   UNL     1       4.563  -4.053   2.274  0.00  0.00    +0.047 A 
ATOM      4  C   UNL     1       5.846  -4.408   1.798  0.00  0.00    +0.041 A 
ATOM      5  C   UNL     1       5.989  -5.729   2.012  0.00  0.00    +0.195 A 
ATOM      6  O   UNL     1       4.869  -6.188   2.593  0.00  0.00    -0.465 OA
ENDBRANCH   1   2
BRANCH   1   8
ATOM      7  N   UNL     1       1.623  -6.338   1.359  0.00  0.00    -0.294 N 
ATOM      8  C   UNL     1       1.859  -6.392   2.685  0.00  0.00    +0.243 C 
ATOM      9  O   UNL     1       1.456  -7.333   3.335  0.00  0.00    -0.273 OA
ATOM     10  H   UNL     1       1.946  -5.585   0.840  0.00  0.00    +0.150 HD
BRANCH   7  11
ATOM     11  C   UNL     1       0.879  -7.416   0.703  0.00  0.00    +0.278 C 
BRANCH  11  12
ATOM     12  S   UNL     1      -0.874  -6.963   0.596  0.00  0.00    +0.013 S 
ATOM     13  O   UNL     1      -1.331  -6.472   1.849  0.00  0.00    -0.168 OA
ATOM     14  O   UNL     1      -1.599  -7.971  -0.095  0.00  0.00    -0.168 OA
BRANCH  12  19
ATOM     15  C   UNL     1      -1.018  -2.176  -3.075  0.00  0.00    +0.044 C 
ATOM     16  C   UNL     1      -0.982  -3.372  -2.159  0.00  0.00    -0.050 A 
ATOM     17  C   UNL     1      -1.095  -4.647  -2.680  0.00  0.00    +0.005 A 
ATOM     18  C   UNL     1      -1.061  -5.743  -1.839  0.00  0.00    +0.027 A 
ATOM     19  C   UNL     1      -0.915  -5.565  -0.476  0.00  0.00    +0.090 A 
ATOM     20  C   UNL     1      -0.801  -4.290   0.045  0.00  0.00    +0.027 A 
ATOM     21  C   UNL     1      -0.830  -3.193  -0.796  0.00  0.00    +0.005 A 
ENDBRANCH  12  19
ENDBRANCH  11  12
ENDBRANCH   7  11
ENDBRANCH   1   8
BRANCH   1  22
ATOM     22  N   UNL     1       2.747  -5.575   4.790  0.00  0.00    -0.248 N 
ATOM     23  C   UNL     1       2.341  -4.667   5.700  0.00  0.00    +0.256 C 
ATOM     24  O   UNL     1       1.987  -3.561   5.340  0.00  0.00    -0.269 OA
BRANCH  22  25
ATOM     25  C   UNL     1       3.285  -6.795   5.212  0.00  0.00    +0.038 A 
ATOM     26  C   UNL     1       4.626  -7.079   4.985  0.00  0.00    +0.023 A 
ATOM     27  C   UNL     1       5.154  -8.285   5.403  0.00  0.00    +0.002 A 
ATOM     28  C   UNL     1       4.351  -9.209   6.045  0.00  0.00    +0.000 A 
ATOM     29  C   UNL     1       3.016  -8.929   6.272  0.00  0.00    +0.002 A 
ATOM     30  C   UNL     1       2.482  -7.722   5.863  0.00  0.00    +0.023 A 
ENDBRANCH  22  25
BRANCH  23  31
ATOM     31  C   UNL     1       2.326  -5.016   7.134  0.00  0.00    +0.082 A 
ATOM     32  C   UNL     1       3.298  -5.872   7.659  0.00  0.00    +0.017 A 
ATOM     33  C   UNL     1       3.281  -6.196   8.998  0.00  0.00    +0.005 A 
ATOM     34  C   UNL     1       2.303  -5.676   9.831  0.00  0.00    +0.049 A 
ATOM     35  C   UNL     1       1.334  -4.827   9.326  0.00  0.00    +0.159 A 
ATOM     36  C   UNL     1       1.342  -4.486   7.976  0.00  0.00    +0.171 A 
BRANCH  36  37
ATOM     37  O   UNL     1       0.396  -3.649   7.479  0.00  0.00    -0.503 OA
ATOM     38  H   UNL     1      -0.399  -4.098   7.161  0.00  0.00    +0.292 HD
ENDBRANCH  36  37
BRANCH  35  39
ATOM     39  O   UNL     1       0.377  -4.321  10.149  0.00  0.00    -0.503 OA
ATOM     40  H   UNL     1       0.618  -3.480  10.562  0.00  0.00    +0.292 HD
ENDBRANCH  35  39
ENDBRANCH  23  31
ENDBRANCH   1  22
TORSDOF 10
