REMARK  Name = ZINC43211541
REMARK  10 active torsions:
REMARK  status: ('A' for Active; 'I' for Inactive)
REMARK    1  A    between atoms: C_1  and  C_2
REMARK    2  A    between atoms: C_7  and  N_8
REMARK    3  A    between atoms: C_13  and  C_28
REMARK    4  A    between atoms: C_16  and  C_21
REMARK    5  A    between atoms: C_16  and  C_25
REMARK    6  A    between atoms: C_21  and  C_22
REMARK    7  A    between atoms: C_22  and  C_23
REMARK    8  A    between atoms: C_22  and  C_24
REMARK    9  A    between atoms: C_31  and  O_34
REMARK   10  A    between atoms: O_34  and  C_35
REMARK                            x       y       z     vdW  Elec       q    Type
REMARK                         _______ _______ _______ _____ _____    ______ ____
ROOT
ATOM      1  N   UNL     1      -0.050   2.690   1.730  0.00  0.00    -0.210 N 
ATOM      2  C   UNL     1      -1.114   2.645   2.596  0.00  0.00    +0.229 C 
ATOM      3  O   UNL     1      -2.275   2.418   2.331  0.00  0.00    -0.275 OA
ATOM      4  C   UNL     1      -0.546   2.926   3.891  0.00  0.00    +0.077 C 
ATOM      5  C   UNL     1      -0.839   2.750   5.324  0.00  0.00    -0.027 C 
ATOM      6  N   UNL     1       0.466   3.138   5.963  0.00  0.00    +0.395 N 
ATOM      7  C   UNL     1       1.544   2.960   4.944  0.00  0.00    +0.048 C 
ATOM      8  C   UNL     1       0.866   2.226   3.777  0.00  0.00    +0.086 C 
ATOM      9  C   UNL     1       1.155   2.679   2.373  0.00  0.00    +0.229 C 
ATOM     10  O   UNL     1       2.235   2.975   1.909  0.00  0.00    -0.275 OA
ATOM     11  H   UNL     1       0.429   4.103   6.256  0.00  0.00    -0.083 HD
ATOM     12  H   UNL     1       0.646   2.545   6.759  0.00  0.00    -0.083 HD
ENDROOT
BRANCH   1  19
ATOM     13  C   UNL     1      -0.203   5.240   0.475  0.00  0.00    +0.045 C 
ATOM     14  C   UNL     1      -0.263   3.959  -0.316  0.00  0.00    -0.029 A 
ATOM     15  C   UNL     1      -0.391   4.001  -1.691  0.00  0.00    +0.005 A 
ATOM     16  C   UNL     1      -0.447   2.826  -2.418  0.00  0.00    +0.000 A 
ATOM     17  C   UNL     1      -0.374   1.606  -1.771  0.00  0.00    +0.002 A 
ATOM     18  C   UNL     1      -0.247   1.558  -0.397  0.00  0.00    +0.024 A 
ATOM     19  C   UNL     1      -0.185   2.736   0.335  0.00  0.00    +0.047 A 
ENDBRANCH   1  19
BRANCH   5  20
ATOM     20  C   UNL     1      -1.949   3.670   5.763  0.00  0.00    -0.060 A 
ATOM     21  C   UNL     1      -1.688   5.011   5.980  0.00  0.00    +0.005 A 
ATOM     22  C   UNL     1      -2.704   5.856   6.382  0.00  0.00    +0.046 A 
ATOM     23  C   UNL     1      -3.986   5.360   6.569  0.00  0.00    +0.128 A 
ATOM     24  C   UNL     1      -4.244   4.014   6.351  0.00  0.00    +0.046 A 
ATOM     25  C   UNL     1      -3.226   3.173   5.944  0.00  0.00    +0.005 A 
BRANCH  23  26
ATOM     26  O   UNL     1      -4.986   6.189   6.965  0.00  0.00    -0.456 OA
BRANCH  26  27
ATOM     27  C   UNL     1      -4.712   7.516   7.066  0.00  0.00    +0.128 A 
ATOM     28  C   UNL     1      -4.627   8.297   5.922  0.00  0.00    +0.046 A 
ATOM     29  C   UNL     1      -4.348   9.646   6.027  0.00  0.00    +0.004 A 
ATOM     30  C   UNL     1      -4.153  10.218   7.271  0.00  0.00    +0.000 A 
ATOM     31  C   UNL     1      -4.237   9.442   8.412  0.00  0.00    +0.004 A 
ATOM     32  C   UNL     1      -4.523   8.094   8.313  0.00  0.00    +0.046 A 
ENDBRANCH  26  27
ENDBRANCH  23  26
ENDBRANCH   5  20
BRANCH   7  33
ATOM     33  C   UNL     1       2.655   2.110   5.505  0.00  0.00    +0.346 C 
ATOM     34  O   UNL     1       2.592   1.703   6.652  0.00  0.00    -0.248 OA
ATOM     35  O   UNL     1       3.617   1.830   4.810  0.00  0.00    -0.248 OA
ENDBRANCH   7  33
BRANCH   7  36
ATOM     36  C   UNL     1       2.086   4.321   4.503  0.00  0.00    +0.002 C 
BRANCH  36  37
ATOM     37  C   UNL     1       2.833   4.974   5.668  0.00  0.00    -0.018 C 
ATOM     38  C   UNL     1       3.530   6.245   5.179  0.00  0.00    +0.007 C 
ATOM     39  C   UNL     1       1.838   5.331   6.775  0.00  0.00    +0.007 C 
ENDBRANCH  36  37
ENDBRANCH   7  36
TORSDOF 7
