REMARK  Name = ZINC31601476
REMARK  7 active torsions:
REMARK  status: ('A' for Active; 'I' for Inactive)
REMARK    1  A    between atoms: C_4  and  C_7
REMARK    2  A    between atoms: C_7  and  S_8
REMARK    3  A    between atoms: S_8  and  N_11
REMARK    4  A    between atoms: N_14  and  C_17
REMARK    5  A    between atoms: C_17  and  C_18
REMARK    6  A    between atoms: N_20  and  C_21
REMARK    7  A    between atoms: C_21  and  C_28
REMARK                            x       y       z     vdW  Elec       q    Type
REMARK                         _______ _______ _______ _____ _____    ______ ____
ROOT
ATOM      1  N   UNL     1       5.850   7.949  -0.520  0.00  0.00    -0.184 NA
ATOM      2  C   UNL     1       5.211   7.973  -1.845  0.00  0.00    +0.090 C 
ATOM      3  C   UNL     1       3.764   7.492  -1.696  0.00  0.00    -0.061 C 
ATOM      4  N   UNL     1       3.751   6.186  -1.024  0.00  0.00    +0.387 N 
ATOM      5  C   UNL     1       4.291   6.283   0.339  0.00  0.00    -0.061 C 
ATOM      6  C   UNL     1       5.760   6.714   0.274  0.00  0.00    +0.090 C 
ATOM      7  H   UNL     1       4.404   5.510  -1.596  0.00  0.00    -0.081 HD
ENDROOT
BRANCH   1   8
ATOM      8  S   UNL     1       6.649   9.277   0.062  0.00  0.00    +0.036 S 
ATOM      9  O   UNL     1       7.604   8.754   0.976  0.00  0.00    -0.158 OA
ATOM     10  O   UNL     1       7.067   9.986  -1.096  0.00  0.00    -0.158 OA
BRANCH   8  11
ATOM     11  C   UNL     1       5.387  10.227   0.954  0.00  0.00    +0.220 C 
BRANCH  11  15
ATOM     12  C   UNL     1       7.152  13.755   2.593  0.00  0.00    +0.000 A 
ATOM     13  C   UNL     1       6.607  13.781   1.323  0.00  0.00    +0.000 A 
ATOM     14  C   UNL     1       6.035  12.639   0.792  0.00  0.00    +0.005 A 
ATOM     15  C   UNL     1       6.010  11.472   1.532  0.00  0.00    -0.025 A 
ATOM     16  C   UNL     1       6.550  11.447   2.804  0.00  0.00    +0.005 A 
ATOM     17  C   UNL     1       7.126  12.587   3.332  0.00  0.00    +0.000 A 
ENDBRANCH  11  15
ENDBRANCH   8  11
ENDBRANCH   1   8
BRANCH   4  18
ATOM     18  C   UNL     1       2.400   5.612  -1.016  0.00  0.00    +0.019 C 
BRANCH  18  19
ATOM     19  C   UNL     1       2.465   4.181  -0.546  0.00  0.00    +0.198 C 
ATOM     20  O   UNL     1       3.532   3.689  -0.247  0.00  0.00    -0.278 OA
ATOM     21  N   UNL     1       1.337   3.449  -0.457  0.00  0.00    -0.299 N 
ATOM     22  H   UNL     1       0.369   3.895  -0.728  0.00  0.00    +0.150 HD
BRANCH  21  23
ATOM     23  C   UNL     1       1.400   2.058  -0.000  0.00  0.00    +0.121 C 
ATOM     24  C   UNL     1      -0.018   1.451   0.010  0.00  0.00    +0.041 C 
ATOM     25  C   UNL     1       0.002  -0.004   0.002  0.00  0.00    +0.003 C 
ATOM     26  C   UNL     1       0.693  -0.590   1.251  0.00  0.00    +0.000 C 
ATOM     27  C   UNL     1       2.182  -0.521   1.049  0.00  0.00    +0.000 C 
ATOM     28  C   UNL     1       2.802   0.752   1.656  0.00  0.00    +0.003 C 
ATOM     29  C   UNL     1       1.951   2.011   1.399  0.00  0.00    +0.041 C 
BRANCH  23  30
ATOM     30  C   UNL     1       2.266   1.278  -0.899  0.00  0.00    +0.088 C 
ATOM     31  N   UNL     1       2.934   0.675  -1.593  0.00  0.00    -0.194 NA
ENDBRANCH  23  30
ENDBRANCH  21  23
ENDBRANCH  18  19
ENDBRANCH   4  18
TORSDOF 7
