REMARK  Name = ZINC09087206
REMARK  11 active torsions:
REMARK  status: ('A' for Active; 'I' for Inactive)
REMARK    1  A    between atoms: C_1  and  C_2
REMARK    2  A    between atoms: C_2  and  C_3
REMARK    3  A    between atoms: C_3  and  C_4
REMARK    4  A    between atoms: C_7  and  C_10
REMARK    5  A    between atoms: C_10  and  C_12
REMARK    6  A    between atoms: C_14  and  C_38
REMARK    7  A    between atoms: C_23  and  C_37
REMARK    8  A    between atoms: C_38  and  C_40
REMARK    9  A    between atoms: C_40  and  C_41
REMARK   10  A    between atoms: C_40  and  C_42
REMARK   11  A    between atoms: C_40  and  C_43
REMARK                            x       y       z     vdW  Elec       q    Type
REMARK                         _______ _______ _______ _____ _____    ______ ____
ROOT
ATOM      1  C   UNL     1       2.511  -2.949  -0.066  0.00  0.00    +0.109 C 
ATOM      2  C   UNL     1       2.949  -3.464   1.331  0.00  0.00    +0.153 C 
ATOM      3  N   UNL     1       3.062  -4.914   1.205  0.00  0.00    -0.311 N 
ATOM      4  C   UNL     1       2.907  -5.715   2.308  0.00  0.00    +0.038 A 
ATOM      5  C   UNL     1       2.920  -5.234   3.602  0.00  0.00    +0.024 A 
ATOM      6  C   UNL     1       2.725  -6.102   4.662  0.00  0.00    +0.002 A 
ATOM      7  C   UNL     1       2.517  -7.452   4.436  0.00  0.00    +0.001 A 
ATOM      8  C   UNL     1       2.505  -7.951   3.148  0.00  0.00    +0.010 A 
ATOM      9  C   UNL     1       2.702  -7.093   2.075  0.00  0.00    -0.001 A 
ATOM     10  C   UNL     1       2.704  -7.583   0.676  0.00  0.00    -0.044 C 
ATOM     11  C   UNL     1       2.396  -6.702  -0.292  0.00  0.00    +0.000 C 
ATOM     12  C   UNL     1       2.082  -5.307   0.156  0.00  0.00    +0.118 C 
ATOM     13  C   UNL     1       2.289  -4.227  -0.901  0.00  0.00    +0.108 C 
ATOM     14  C   UNL     1       1.136  -4.094  -1.832  0.00  0.00    -0.008 A 
ATOM     15  C   UNL     1      -0.200  -3.835  -1.617  0.00  0.00    +0.006 A 
ATOM     16  C   UNL     1      -1.022  -3.779  -2.737  0.00  0.00    +0.000 A 
ATOM     17  C   UNL     1      -0.520  -3.974  -4.008  0.00  0.00    +0.002 A 
ATOM     18  C   UNL     1       0.822  -4.234  -4.234  0.00  0.00    +0.023 A 
ATOM     19  C   UNL     1       1.659  -4.293  -3.119  0.00  0.00    +0.038 A 
ATOM     20  N   UNL     1       3.021  -4.533  -3.054  0.00  0.00    -0.284 N 
ATOM     21  C   UNL     1       3.478  -4.512  -1.781  0.00  0.00    +0.231 C 
ATOM     22  O   UNL     1       4.622  -4.689  -1.418  0.00  0.00    -0.274 OA
ATOM     23  C   UNL     1       3.041  -9.016   0.351  0.00  0.00    +0.044 C 
ATOM     24  H   UNL     1       3.581  -4.696  -3.829  0.00  0.00    +0.155 HD
ENDROOT
BRANCH   1  25
ATOM     25  C   UNL     1       1.230  -2.163   0.042  0.00  0.00    +0.170 C 
ATOM     26  O   UNL     1       0.458  -2.383   0.952  0.00  0.00    -0.292 OA
BRANCH  25  30
ATOM     27  C   UNL     1       0.321   0.819  -2.834  0.00  0.00    -0.047 A 
ATOM     28  C   UNL     1      -0.601   0.508  -1.850  0.00  0.00    +0.004 A 
ATOM     29  C   UNL     1      -0.313  -0.461  -0.912  0.00  0.00    +0.011 A 
ATOM     30  C   UNL     1       0.914  -1.129  -0.956  0.00  0.00    +0.018 A 
ATOM     31  C   UNL     1       1.841  -0.808  -1.953  0.00  0.00    +0.011 A 
ATOM     32  C   UNL     1       1.539   0.163  -2.884  0.00  0.00    +0.004 A 
BRANCH  27  33
ATOM     33  C   UNL     1      -0.001   1.879  -3.856  0.00  0.00    +0.035 C 
BRANCH  33  35
ATOM     34  C   UNL     1       0.139   4.317  -4.380  0.00  0.00    +0.004 C 
ATOM     35  C   UNL     1       0.466   3.242  -3.343  0.00  0.00    +0.001 C 
ENDBRANCH  33  35
ENDBRANCH  27  33
ENDBRANCH  25  30
ENDBRANCH   1  25
BRANCH   2  36
ATOM     36  C   UNL     1       4.282  -2.870   1.709  0.00  0.00    +0.160 C 
ATOM     37  O   UNL     1       5.297  -3.497   1.521  0.00  0.00    -0.295 OA
BRANCH  36  38
ATOM     38  C   UNL     1       4.348  -1.495   2.322  0.00  0.00    +0.022 C 
ATOM     39  C   UNL     1       5.788  -1.191   2.739  0.00  0.00    +0.018 C 
ATOM     40  C   UNL     1       3.884  -0.457   1.298  0.00  0.00    +0.018 C 
ATOM     41  C   UNL     1       3.438  -1.440   3.551  0.00  0.00    +0.018 C 
ENDBRANCH  36  38
ENDBRANCH   2  36
TORSDOF 6
