REMARK  Name = ZINC21008145
REMARK  3 active torsions:
REMARK  status: ('A' for Active; 'I' for Inactive)
REMARK    1  A    between atoms: C_9  and  C_11
REMARK    2  A    between atoms: N_13  and  N_14
REMARK    3  A    between atoms: C_15  and  C_17
REMARK                            x       y       z     vdW  Elec       q    Type
REMARK                         _______ _______ _______ _____ _____    ______ ____
ROOT
ATOM      1  N   UNL     1       1.193   1.683  -0.000  0.00  0.00    -0.230 N 
ATOM      2  C   UNL     1       2.369   1.025  -0.015  0.00  0.00    +0.267 C 
ATOM      3  O   UNL     1       2.385  -0.191  -0.022  0.00  0.00    -0.268 OA
ATOM      4  H   UNL     1       1.178   2.783   0.006  0.00  0.00    +0.173 HD
ENDROOT
BRANCH   2   5
ATOM      5  C   UNL     1       3.634   1.778  -0.023  0.00  0.00    +0.123 A 
ATOM      6  C   UNL     1       3.630   3.163  -0.016  0.00  0.00    +0.031 A 
ATOM      7  C   UNL     1       4.871   3.848  -0.024  0.00  0.00    +0.018 A 
ATOM      8  C   UNL     1       4.903   5.250  -0.017  0.00  0.00    +0.011 A 
ATOM      9  C   UNL     1       6.102   5.903  -0.026  0.00  0.00    +0.001 A 
ATOM     10  C   UNL     1       7.292   5.189  -0.041  0.00  0.00    +0.004 A 
ATOM     11  C   UNL     1       7.284   3.811  -0.048  0.00  0.00    +0.047 A 
ATOM     12  C   UNL     1       6.076   3.122  -0.039  0.00  0.00    +0.139 A 
ATOM     13  O   UNL     1       6.071   1.772  -0.046  0.00  0.00    -0.422 OA
ATOM     14  C   UNL     1       4.922   1.076  -0.033  0.00  0.00    +0.350 A 
ATOM     15  O   UNL     1       4.949  -0.141  -0.034  0.00  0.00    -0.244 OA
ENDBRANCH   2   5
BRANCH   1  18
ATOM     16  C   UNL     1      -1.187   1.624   0.017  0.00  0.00    +0.278 C 
ATOM     17  O   UNL     1      -1.204   2.839   0.023  0.00  0.00    -0.267 OA
ATOM     18  N   UNL     1      -0.011   0.966   0.007  0.00  0.00    -0.229 N 
ATOM     19  H   UNL     1       0.004  -0.134   0.006  0.00  0.00    +0.173 HD
BRANCH  16  28
ATOM     20  C   UNL     1      -5.897  -2.656   0.013  0.00  0.00    +0.001 A 
ATOM     21  C   UNL     1      -4.659  -3.296   0.003  0.00  0.00    +0.002 A 
ATOM     22  C   UNL     1      -3.500  -2.584   0.003  0.00  0.00    +0.028 A 
ATOM     23  C   UNL     1      -3.545  -1.176   0.011  0.00  0.00    +0.072 A 
ATOM     24  C   UNL     1      -4.808  -0.527   0.021  0.00  0.00    +0.000 A 
ATOM     25  C   UNL     1      -5.982  -1.297   0.021  0.00  0.00    +0.010 A 
ATOM     26  C   UNL     1      -4.856   0.879   0.029  0.00  0.00    +0.012 A 
ATOM     27  C   UNL     1      -3.676   1.566   0.028  0.00  0.00    +0.034 A 
ATOM     28  C   UNL     1      -2.461   0.865   0.018  0.00  0.00    +0.127 A 
ATOM     29  N   UNL     1      -2.426  -0.454   0.006  0.00  0.00    -0.242 NA
ENDBRANCH  16  28
ENDBRANCH   1  18
TORSDOF 3
