REMARK  Name = ZINC35930137
REMARK  8 active torsions:
REMARK  status: ('A' for Active; 'I' for Inactive)
REMARK    1  A    between atoms: C_1  and  N_2
REMARK    2  A    between atoms: N_2  and  C_3
REMARK    3  A    between atoms: N_2  and  C_4
REMARK    4  A    between atoms: C_4  and  C_5
REMARK    5  A    between atoms: C_5  and  N_6
REMARK    6  A    between atoms: C_9  and  C_24
REMARK    7  A    between atoms: C_11  and  N_23
REMARK    8  A    between atoms: N_12  and  C_16
REMARK                            x       y       z     vdW  Elec       q    Type
REMARK                         _______ _______ _______ _____ _____    ______ ____
ROOT
ATOM      1  N   UNL     1      -3.197  -1.266  -1.718  0.00  0.00    -0.315 N 
ATOM      2  C   UNL     1      -4.131  -0.773  -2.611  0.00  0.00    +0.218 A 
ATOM      3  N   UNL     1      -5.359  -1.281  -2.579  0.00  0.00    -0.214 NA
ATOM      4  C   UNL     1      -6.316  -0.866  -3.400  0.00  0.00    +0.089 A 
ATOM      5  C   UNL     1      -6.005   0.150  -4.332  0.00  0.00    +0.086 A 
ATOM      6  C   UNL     1      -6.694   0.834  -5.326  0.00  0.00    +0.131 A 
ATOM      7  N   UNL     1      -5.834   1.706  -5.888  0.00  0.00    -0.216 N 
ATOM      8  N   UNL     1      -4.581   1.603  -5.273  0.00  0.00    -0.144 NA
ATOM      9  C   UNL     1      -4.631   0.684  -4.333  0.00  0.00    +0.189 A 
ATOM     10  N   UNL     1      -3.756   0.177  -3.443  0.00  0.00    -0.193 NA
ATOM     11  H   UNL     1      -3.445  -1.966  -1.094  0.00  0.00    +0.149 HD
ENDROOT
BRANCH   7  12
ATOM     12  C   UNL     1      -6.147   2.585  -6.932  0.00  0.00    +0.070 A 
ATOM     13  C   UNL     1      -7.043   2.199  -7.921  0.00  0.00    +0.028 A 
ATOM     14  C   UNL     1      -7.351   3.066  -8.950  0.00  0.00    +0.005 A 
ATOM     15  C   UNL     1      -6.769   4.319  -8.998  0.00  0.00    +0.038 A 
ATOM     16  C   UNL     1      -5.875   4.708  -8.014  0.00  0.00    +0.125 A 
ATOM     17  C   UNL     1      -5.567   3.845  -6.978  0.00  0.00    +0.066 A 
ATOM     18  F   UNL     1      -5.306   5.933  -8.065  0.00  0.00    -0.205 F 
ENDBRANCH   7  12
BRANCH   4  19
ATOM     19  C   UNL     1      -7.674  -1.450  -3.340  0.00  0.00    +0.001 A 
ATOM     20  C   UNL     1      -8.323  -1.836  -4.514  0.00  0.00    +0.013 A 
ATOM     21  C   UNL     1      -9.588  -2.380  -4.454  0.00  0.00    +0.039 A 
ATOM     22  C   UNL     1     -10.216  -2.545  -3.229  0.00  0.00    +0.123 A 
ATOM     23  C   UNL     1      -9.576  -2.164  -2.060  0.00  0.00    +0.039 A 
ATOM     24  C   UNL     1      -8.309  -1.624  -2.109  0.00  0.00    +0.013 A 
ATOM     25  F   UNL     1     -11.456  -3.079  -3.174  0.00  0.00    -0.205 F 
ENDBRANCH   4  19
BRANCH   6  26
ATOM     26  N   UNL     1      -8.019   0.653  -5.674  0.00  0.00    -0.342 N 
ATOM     27  H   UNL     1      -8.598   0.113  -5.115  0.00  0.00    +0.144 HD
ATOM     28  H   UNL     1      -8.369   1.066  -6.479  0.00  0.00    +0.144 HD
ENDBRANCH   6  26
BRANCH   1  29
ATOM     29  C   UNL     1      -1.833  -0.731  -1.715  0.00  0.00    +0.086 C 
BRANCH  29  30
ATOM     30  C   UNL     1      -1.008  -1.443  -0.640  0.00  0.00    -0.061 C 
BRANCH  30  32
ATOM     31  C   UNL     1       0.330   0.506  -0.234  0.00  0.00    -0.097 C 
ATOM     32  N   UNL     1       0.359  -0.906  -0.637  0.00  0.00    +0.377 N 
ATOM     33  C   UNL     1       1.183  -1.669   0.310  0.00  0.00    -0.097 C 
ATOM     34  H   UNL     1       0.753  -0.983  -1.563  0.00  0.00    -0.083 HD
ENDBRANCH  30  32
ENDBRANCH  29  30
ENDBRANCH   1  29
TORSDOF 6
