REMARK  Name = ZINC06302044
REMARK  5 active torsions:
REMARK  status: ('A' for Active; 'I' for Inactive)
REMARK    1  A    between atoms: C_1  and  C_2
REMARK    2  A    between atoms: C_8  and  C_22
REMARK    3  A    between atoms: C_10  and  C_12
REMARK    4  A    between atoms: C_10  and  N_13
REMARK    5  A    between atoms: C_22  and  O_23
REMARK                            x       y       z     vdW  Elec       q    Type
REMARK                         _______ _______ _______ _____ _____    ______ ____
ROOT
ATOM      1  C   UNL     1       0.385   8.919   1.915  0.00  0.00    +0.044 C 
ATOM      2  C   UNL     1       0.972   7.536   1.797  0.00  0.00    -0.050 A 
ATOM      3  C   UNL     1       2.116   7.205   2.500  0.00  0.00    +0.007 A 
ATOM      4  C   UNL     1       2.656   5.940   2.398  0.00  0.00    +0.046 A 
ATOM      5  C   UNL     1       2.052   4.984   1.585  0.00  0.00    +0.127 A 
ATOM      6  C   UNL     1       0.907   5.329   0.879  0.00  0.00    +0.006 A 
ATOM      7  C   UNL     1       0.368   6.592   0.985  0.00  0.00    +0.011 A 
ATOM      8  C   UNL     1       0.490   4.108   0.084  0.00  0.00    +0.114 C 
ATOM      9  C   UNL     1       1.764   3.233   0.149  0.00  0.00    +0.212 C 
ATOM     10  O   UNL     1       2.405   3.687   1.354  0.00  0.00    -0.464 OA
ATOM     11  C   UNL     1       2.657   3.483  -1.067  0.00  0.00    +0.084 C 
ENDROOT
BRANCH   9  12
ATOM     12  N   UNL     1       1.414   1.814   0.251  0.00  0.00    -0.202 N 
ATOM     13  C   UNL     1       1.600   0.997   1.341  0.00  0.00    +0.093 A 
ATOM     14  C   UNL     1       2.128   1.187   2.613  0.00  0.00    +0.030 A 
ATOM     15  C   UNL     1       2.173   0.143   3.494  0.00  0.00    +0.002 A 
ATOM     16  C   UNL     1       1.694  -1.109   3.130  0.00  0.00    +0.002 A 
ATOM     17  C   UNL     1       1.171  -1.322   1.888  0.00  0.00    +0.032 A 
ATOM     18  C   UNL     1       1.114  -0.268   0.967  0.00  0.00    +0.113 A 
ATOM     19  N   UNL     1       0.664  -0.175  -0.301  0.00  0.00    -0.129 NA
ATOM     20  N   UNL     1       0.824   1.021  -0.745  0.00  0.00    -0.061 NA
ENDBRANCH   9  12
BRANCH   8  21
ATOM     21  C   UNL     1      -0.694   3.401   0.747  0.00  0.00    +0.170 C 
BRANCH  21  22
ATOM     22  O   UNL     1      -1.870   4.199   0.598  0.00  0.00    -0.394 OA
ATOM     23  H   UNL     1      -2.661   3.812   0.996  0.00  0.00    +0.209 HD
ENDBRANCH  21  22
ENDBRANCH   8  21
TORSDOF 3
