REMARK  Name = ZINC05994241
REMARK  9 active torsions:
REMARK  status: ('A' for Active; 'I' for Inactive)
REMARK    1  A    between atoms: C_1  and  C_2
REMARK    2  A    between atoms: C_4  and  O_9
REMARK    3  A    between atoms: O_9  and  C_10
REMARK    4  A    between atoms: C_10  and  C_11
REMARK    5  A    between atoms: C_11  and  O_13
REMARK    6  A    between atoms: O_13  and  C_14
REMARK    7  A    between atoms: C_14  and  C_15
REMARK    8  A    between atoms: C_27  and  C_28
REMARK    9  A    between atoms: C_27  and  C_29
REMARK                            x       y       z     vdW  Elec       q    Type
REMARK                         _______ _______ _______ _____ _____    ______ ____
ROOT
ATOM      1  C   UNL     1       0.264  -8.044  -5.310  0.00  0.00    +0.258 C 
ATOM      2  O   UNL     1       0.375  -8.636  -4.257  0.00  0.00    -0.271 OA
ATOM      3  N   UNL     1       0.086  -8.733  -6.455  0.00  0.00    -0.253 N 
ATOM      4  C   UNL     1       0.084  -8.083  -7.699  0.00  0.00    +0.059 A 
ATOM      5  C   UNL     1      -0.332  -6.769  -7.817  0.00  0.00    +0.025 A 
ATOM      6  C   UNL     1      -0.326  -6.156  -9.058  0.00  0.00    +0.002 A 
ATOM      7  C   UNL     1       0.092  -6.854 -10.176  0.00  0.00    +0.002 A 
ATOM      8  C   UNL     1       0.510  -8.168 -10.064  0.00  0.00    +0.025 A 
ATOM      9  C   UNL     1       0.510  -8.789  -8.825  0.00  0.00    +0.055 A 
ATOM     10  N   UNL     1       0.940 -10.113  -8.688  0.00  0.00    -0.282 N 
ATOM     11  C   UNL     1       0.687 -10.805  -7.561  0.00  0.00    +0.241 C 
ATOM     12  O   UNL     1       1.107 -11.937  -7.447  0.00  0.00    -0.273 OA
ATOM     13  C   UNL     1      -0.105 -10.191  -6.441  0.00  0.00    +0.113 C 
ATOM     14  C   UNL     1       0.376 -10.758  -5.104  0.00  0.00    +0.042 C 
ATOM     15  C   UNL     1      -1.589 -10.514  -6.632  0.00  0.00    +0.042 C 
ATOM     16  H   UNL     1       1.425 -10.537  -9.413  0.00  0.00    +0.155 HD
ENDROOT
BRANCH   1  17
ATOM     17  C   UNL     1       0.325  -6.539  -5.339  0.00  0.00    +0.328 C 
BRANCH  17  18
ATOM     18  O   UNL     1       0.767  -6.056  -4.069  0.00  0.00    -0.453 OA
BRANCH  18  19
ATOM     19  C   UNL     1       0.876  -4.725  -3.927  0.00  0.00    +0.346 C 
ATOM     20  O   UNL     1       0.605  -3.995  -4.851  0.00  0.00    -0.247 OA
BRANCH  19  21
ATOM     21  C   UNL     1       1.336  -4.143  -2.615  0.00  0.00    +0.349 C 
BRANCH  21  22
ATOM     22  O   UNL     1       1.370  -2.717  -2.713  0.00  0.00    -0.481 OA
BRANCH  22  26
ATOM     23  C   UNL     1       2.288   1.554  -0.536  0.00  0.00    +0.045 C 
ATOM     24  C   UNL     1       2.226   0.048  -0.509  0.00  0.00    -0.029 A 
ATOM     25  C   UNL     1       1.823  -0.647  -1.634  0.00  0.00    +0.050 A 
ATOM     26  C   UNL     1       1.767  -2.032  -1.608  0.00  0.00    +0.122 A 
ATOM     27  C   UNL     1       2.115  -2.718  -0.454  0.00  0.00    +0.047 A 
ATOM     28  C   UNL     1       2.517  -2.020   0.668  0.00  0.00    +0.024 A 
ATOM     29  C   UNL     1       2.578  -0.638   0.639  0.00  0.00    +0.044 A 
ATOM     30 CL   UNL     1       3.091   0.237   2.048  0.00  0.00    -0.083 Cl
ENDBRANCH  22  26
ENDBRANCH  21  22
ENDBRANCH  19  21
ENDBRANCH  18  19
ENDBRANCH  17  18
ENDBRANCH   1  17
TORSDOF 6
