REMARK  Name = ZINC00291136
REMARK  3 active torsions:
REMARK  status: ('A' for Active; 'I' for Inactive)
REMARK    1  A    between atoms: C_10  and  C_11
REMARK    2  A    between atoms: N_12  and  N_13
REMARK    3  A    between atoms: C_14  and  C_16
REMARK                            x       y       z     vdW  Elec       q    Type
REMARK                         _______ _______ _______ _____ _____    ______ ____
ROOT
ATOM      1  N   UNL     1      -2.226   8.130   0.358  0.00  0.00    -0.204 N 
ATOM      2  C   UNL     1      -1.217   7.306   0.012  0.00  0.00    +0.276 C 
ATOM      3  O   UNL     1      -0.266   7.737  -0.606  0.00  0.00    -0.270 OA
ATOM      4  H   UNL     1      -2.986   7.786   0.852  0.00  0.00    +0.177 HD
ENDROOT
BRANCH   2   5
ATOM      5  C   UNL     1      -1.270   5.849   0.394  0.00  0.00    +0.297 C 
ATOM      6  C   UNL     1      -2.437   5.166  -0.332  0.00  0.00    +0.283 C 
ATOM      7  O   UNL     1      -2.450   3.784   0.042  0.00  0.00    -0.484 OA
ATOM      8  C   UNL     1      -1.255   3.133   0.016  0.00  0.00    +0.162 A 
ATOM      9  C   UNL     1      -1.236   1.746   0.003  0.00  0.00    +0.049 A 
ATOM     10  C   UNL     1      -0.030   1.071  -0.014  0.00  0.00    +0.004 A 
ATOM     11  C   UNL     1       1.159   1.775  -0.029  0.00  0.00    +0.004 A 
ATOM     12  C   UNL     1       1.147   3.157  -0.023  0.00  0.00    +0.049 A 
ATOM     13  C   UNL     1      -0.059   3.841  -0.001  0.00  0.00    +0.163 A 
ATOM     14  O   UNL     1      -0.056   5.202  -0.002  0.00  0.00    -0.472 OA
ENDBRANCH   2   5
BRANCH   1  16
ATOM     15  C   UNL     1      -3.149  10.279   0.336  0.00  0.00    +0.139 C 
ATOM     16  N   UNL     1      -2.177   9.485   0.003  0.00  0.00    -0.188 NA
BRANCH  15  26
ATOM     17  C   UNL     1       0.304  13.384  -1.910  0.00  0.00    +0.001 A 
ATOM     18  C   UNL     1       0.293  12.033  -1.572  0.00  0.00    +0.001 A 
ATOM     19  C   UNL     1      -0.792  11.471  -0.967  0.00  0.00    +0.009 A 
ATOM     20  C   UNL     1      -1.912  12.261  -0.683  0.00  0.00    -0.009 A 
ATOM     21  C   UNL     1      -1.904  13.635  -1.026  0.00  0.00    -0.017 A 
ATOM     22  C   UNL     1      -0.768  14.181  -1.647  0.00  0.00    +0.008 A 
ATOM     23  C   UNL     1      -3.030  14.425  -0.737  0.00  0.00    +0.008 A 
ATOM     24  C   UNL     1      -4.123  13.883  -0.134  0.00  0.00    +0.001 A 
ATOM     25  C   UNL     1      -4.177  12.540   0.213  0.00  0.00    +0.010 A 
ATOM     26  C   UNL     1      -3.097  11.701  -0.037  0.00  0.00    +0.002 A 
ENDBRANCH  15  26
ENDBRANCH   1  16
TORSDOF 3
