REMARK  Name = ZINC49522708
REMARK  8 active torsions:
REMARK  status: ('A' for Active; 'I' for Inactive)
REMARK    1  A    between atoms: C_1  and  C_2
REMARK    2  A    between atoms: C_2  and  C_3
REMARK    3  A    between atoms: C_2  and  C_4
REMARK    4  A    between atoms: C_2  and  N_5
REMARK    5  A    between atoms: C_11  and  C_14
REMARK    6  A    between atoms: C_14  and  N_15
REMARK    7  A    between atoms: C_16  and  C_18
REMARK    8  A    between atoms: C_18  and  C_24
REMARK                            x       y       z     vdW  Elec       q    Type
REMARK                         _______ _______ _______ _____ _____    ______ ____
ROOT
ATOM      1  N   UNL     1       6.234  -3.569  -4.830  0.00  0.00    -0.314 N 
ATOM      2  C   UNL     1       7.144  -4.562  -4.810  0.00  0.00    +0.224 C 
ATOM      3  O   UNL     1       6.806  -5.688  -4.508  0.00  0.00    -0.275 OA
ATOM      4  H   UNL     1       6.486  -2.686  -5.144  0.00  0.00    +0.149 HD
ENDROOT
BRANCH   2   5
ATOM      5  C   UNL     1       8.581  -4.276  -5.162  0.00  0.00    +0.076 C 
ATOM      6  C   UNL     1       9.360  -5.592  -5.249  0.00  0.00    +0.049 C 
ATOM      7  C   UNL     1       8.779  -6.446  -6.378  0.00  0.00    +0.161 C 
ATOM      8  O   UNL     1       8.840  -5.717  -7.605  0.00  0.00    -0.380 OA
ATOM      9  C   UNL     1       8.091  -4.500  -7.599  0.00  0.00    +0.161 C 
ATOM     10  C   UNL     1       8.645  -3.567  -6.519  0.00  0.00    +0.049 C 
BRANCH   5  11
ATOM     11  C   UNL     1       9.193  -3.394  -4.104  0.00  0.00    -0.032 A 
ATOM     12  C   UNL     1       9.592  -2.109  -4.421  0.00  0.00    +0.007 A 
ATOM     13  C   UNL     1      10.153  -1.300  -3.452  0.00  0.00    +0.038 A 
ATOM     14  C   UNL     1      10.315  -1.776  -2.162  0.00  0.00    +0.123 A 
ATOM     15  C   UNL     1       9.915  -3.063  -1.845  0.00  0.00    +0.038 A 
ATOM     16  C   UNL     1       9.350  -3.869  -2.815  0.00  0.00    +0.007 A 
ATOM     17  F   UNL     1      10.864  -0.986  -1.214  0.00  0.00    -0.205 F 
ENDBRANCH   5  11
ENDBRANCH   2   5
BRANCH   1  18
ATOM     18  C   UNL     1       4.864  -3.821  -4.378  0.00  0.00    +0.107 C 
BRANCH  18  25
ATOM     19  N   UNL     1       0.367  -0.168  -2.342  0.00  0.00    -0.294 N 
ATOM     20  C   UNL     1       1.639   0.199  -2.600  0.00  0.00    +0.303 C 
ATOM     21  O   UNL     1       2.127   1.148  -2.018  0.00  0.00    -0.253 OA
ATOM     22  N   UNL     1       2.368  -0.487  -3.502  0.00  0.00    -0.286 N 
ATOM     23  C   UNL     1       1.754  -1.551  -4.308  0.00  0.00    +0.109 C 
ATOM     24  C   UNL     1       2.581  -2.830  -4.149  0.00  0.00    +0.024 C 
ATOM     25  C   UNL     1       4.041  -2.537  -4.503  0.00  0.00    +0.009 C 
ATOM     26  C   UNL     1       4.597  -1.480  -3.546  0.00  0.00    +0.024 C 
ATOM     27  C   UNL     1       3.791  -0.181  -3.702  0.00  0.00    +0.109 C 
ATOM     28  H   UNL     1      -0.047  -0.877  -2.859  0.00  0.00    +0.151 HD
BRANCH  19  30
ATOM     29  C   UNL     1      -0.491   1.998  -1.599  0.00  0.00    +0.031 C 
ATOM     30  C   UNL     1      -0.389   0.505  -1.283  0.00  0.00    +0.028 C 
ATOM     31  C   UNL     1       0.329   0.315   0.055  0.00  0.00    +0.031 C 
ATOM     32  C   UNL     1      -1.793  -0.096  -1.199  0.00  0.00    +0.031 C 
ENDBRANCH  19  30
ENDBRANCH  18  25
ENDBRANCH   1  18
TORSDOF 5
