REMARK  Name = ZINC08882172
REMARK  7 active torsions:
REMARK  status: ('A' for Active; 'I' for Inactive)
REMARK    1  A    between atoms: C_1  and  C_2
REMARK    2  A    between atoms: C_4  and  C_7
REMARK    3  A    between atoms: C_10  and  C_12
REMARK    4  A    between atoms: C_12  and  N_13
REMARK    5  A    between atoms: C_14  and  C_16
REMARK    6  A    between atoms: C_16  and  N_17
REMARK    7  A    between atoms: C_25  and  C_27
REMARK                            x       y       z     vdW  Elec       q    Type
REMARK                         _______ _______ _______ _____ _____    ______ ____
ROOT
ATOM      1  N   UNL     1      -4.235  -2.765   2.700  0.00  0.00    -0.309 N 
ATOM      2  C   UNL     1      -3.259  -1.887   2.394  0.00  0.00    +0.231 C 
ATOM      3  O   UNL     1      -2.347  -2.223   1.669  0.00  0.00    -0.274 OA
ATOM      4  H   UNL     1      -4.965  -2.496   3.280  0.00  0.00    +0.149 HD
ENDROOT
BRANCH   1   5
ATOM      5  C   UNL     1      -4.195  -4.124   2.155  0.00  0.00    +0.146 C 
BRANCH   5   9
ATOM      6  C   UNL     1      -7.254  -6.404   3.886  0.00  0.00    +0.038 A 
ATOM      7  C   UNL     1      -7.577  -5.783   2.710  0.00  0.00    +0.018 A 
ATOM      8  C   UNL     1      -6.620  -5.014   2.082  0.00  0.00    +0.013 A 
ATOM      9  C   UNL     1      -5.392  -4.897   2.645  0.00  0.00    +0.007 A 
ATOM     10  S   UNL     1      -5.556  -5.901   4.112  0.00  0.00    -0.090 S 
BRANCH   6  14
ATOM     11  C   UNL     1     -11.524  -8.742   4.959  0.00  0.00    +0.073 C 
ATOM     12  C   UNL     1     -10.092  -8.321   5.169  0.00  0.00    +0.076 A 
ATOM     13  N   UNL     1      -9.344  -7.552   4.416  0.00  0.00    -0.244 NA
ATOM     14  C   UNL     1      -8.091  -7.273   4.742  0.00  0.00    +0.085 A 
ATOM     15  C   UNL     1      -7.593  -7.820   5.896  0.00  0.00    +0.075 A 
ATOM     16  S   UNL     1      -9.018  -8.731   6.470  0.00  0.00    -0.080 S 
ENDBRANCH   6  14
ENDBRANCH   5   9
ENDBRANCH   1   5
BRANCH   2  17
ATOM     17  C   UNL     1      -3.300  -0.489   2.954  0.00  0.00    +0.213 C 
BRANCH  17  18
ATOM     18  N   UNL     1      -2.136   0.263   2.478  0.00  0.00    -0.215 N 
ATOM     19  C   UNL     1      -2.117   0.991   1.342  0.00  0.00    +0.247 C 
ATOM     20  O   UNL     1      -3.023   1.142   0.552  0.00  0.00    -0.273 OA
ATOM     21  C   UNL     1      -0.726   1.577   1.263  0.00  0.00    +0.115 C 
ATOM     22  C   UNL     1      -0.013   1.086   0.008  0.00  0.00    +0.035 C 
ATOM     23  C   UNL     1      -0.753   1.593  -1.233  0.00  0.00    +0.003 C 
ATOM     24  C   UNL     1      -0.790   3.122  -1.213  0.00  0.00    +0.000 C 
ATOM     25  C   UNL     1      -1.527   3.600   0.040  0.00  0.00    +0.006 C 
ATOM     26  C   UNL     1      -0.790   3.101   1.286  0.00  0.00    +0.018 C 
ATOM     27  C   UNL     1      -1.536   3.561   2.539  0.00  0.00    +0.010 C 
ATOM     28  N   UNL     1      -0.056   1.072   2.468  0.00  0.00    -0.285 N 
ATOM     29  C   UNL     1      -0.960   0.312   3.115  0.00  0.00    +0.310 C 
ATOM     30  O   UNL     1      -0.734  -0.264   4.161  0.00  0.00    -0.252 OA
ATOM     31  H   UNL     1       0.857   1.250   2.743  0.00  0.00    +0.151 HD
ENDBRANCH  17  18
ENDBRANCH   2  17
TORSDOF 5
