REMARK  Name = ZINC12371637
REMARK  7 active torsions:
REMARK  status: ('A' for Active; 'I' for Inactive)
REMARK    1  A    between atoms: C_1  and  O_2
REMARK    2  A    between atoms: O_2  and  C_3
REMARK    3  A    between atoms: C_7  and  C_11
REMARK    4  A    between atoms: C_8  and  O_9
REMARK    5  A    between atoms: O_9  and  C_10
REMARK    6  A    between atoms: N_21  and  C_31
REMARK    7  A    between atoms: C_31  and  C_32
REMARK                            x       y       z     vdW  Elec       q    Type
REMARK                         _______ _______ _______ _____ _____    ______ ____
ROOT
ATOM      1  C   UNL     1      -0.729   1.579   1.267  0.00  0.00    +0.070 C 
ATOM      2  C   UNL     1      -0.013   1.086   0.008  0.00  0.00    +0.109 C 
ATOM      3  C   UNL     1      -0.741   1.585  -1.212  0.00  0.00    +0.219 C 
ATOM      4  O   UNL     1      -0.116   1.870  -2.212  0.00  0.00    -0.275 OA
ATOM      5  N   UNL     1      -2.080   1.716  -1.202  0.00  0.00    -0.271 N 
ATOM      6  C   UNL     1      -2.812   1.400  -0.079  0.00  0.00    +0.121 A 
ATOM      7  C   UNL     1      -2.207   1.320   1.137  0.00  0.00    +0.064 A 
ATOM      8  C   UNL     1      -2.967   0.994   2.274  0.00  0.00    +0.261 A 
ATOM      9  O   UNL     1      -2.430   0.920   3.366  0.00  0.00    -0.267 OA
ATOM     10  N   UNL     1      -4.288   0.763   2.156  0.00  0.00    -0.274 N 
ATOM     11  C   UNL     1      -4.903   0.847   0.923  0.00  0.00    +0.221 A 
ATOM     12  N   UNL     1      -4.165   1.165  -0.185  0.00  0.00    -0.265 N 
ATOM     13  C   UNL     1      -5.028   1.182  -1.269  0.00  0.00    +0.076 A 
ATOM     14  C   UNL     1      -4.868   1.435  -2.623  0.00  0.00    +0.028 A 
ATOM     15  C   UNL     1      -5.957   1.370  -3.467  0.00  0.00    +0.002 A 
ATOM     16  C   UNL     1      -7.213   1.053  -2.971  0.00  0.00    +0.002 A 
ATOM     17  C   UNL     1      -7.390   0.799  -1.629  0.00  0.00    +0.030 A 
ATOM     18  C   UNL     1      -6.297   0.860  -0.761  0.00  0.00    +0.092 A 
ATOM     19  N   UNL     1      -6.157   0.668   0.576  0.00  0.00    -0.212 NA
ATOM     20  H   UNL     1      -2.535   2.037  -1.996  0.00  0.00    +0.156 HD
ENDROOT
BRANCH   1  25
ATOM     21  C   UNL     1       0.357   4.900   2.723  0.00  0.00    +0.162 A 
ATOM     22  C   UNL     1      -0.055   5.778   1.733  0.00  0.00    +0.049 A 
ATOM     23  C   UNL     1      -0.682   5.296   0.599  0.00  0.00    +0.004 A 
ATOM     24  C   UNL     1      -0.894   3.938   0.447  0.00  0.00    +0.008 A 
ATOM     25  C   UNL     1      -0.491   3.058   1.433  0.00  0.00    +0.006 A 
ATOM     26  C   UNL     1       0.138   3.534   2.572  0.00  0.00    +0.165 A 
BRANCH  21  28
ATOM     27  C   UNL     1       1.164   6.787   3.926  0.00  0.00    +0.277 C 
ATOM     28  O   UNL     1       0.973   5.373   3.839  0.00  0.00    -0.491 OA
ENDBRANCH  21  28
BRANCH  26  29
ATOM     29  O   UNL     1       0.540   2.669   3.541  0.00  0.00    -0.491 OA
ATOM     30  C   UNL     1       1.862   2.138   3.429  0.00  0.00    +0.277 C 
ENDBRANCH  26  29
ENDBRANCH   1  25
BRANCH  10  31
ATOM     31  C   UNL     1      -5.077   0.422   3.343  0.00  0.00    +0.163 C 
BRANCH  31  32
ATOM     32  C   UNL     1      -5.087  -1.074   3.526  0.00  0.00    -0.027 A 
ATOM     33  C   UNL     1      -6.080  -1.835   2.938  0.00  0.00    +0.008 A 
ATOM     34  C   UNL     1      -6.088  -3.208   3.101  0.00  0.00    +0.038 A 
ATOM     35  C   UNL     1      -5.106  -3.819   3.863  0.00  0.00    +0.123 A 
ATOM     36  C   UNL     1      -4.116  -3.055   4.456  0.00  0.00    +0.038 A 
ATOM     37  C   UNL     1      -4.107  -1.683   4.287  0.00  0.00    +0.008 A 
ATOM     38  F   UNL     1      -5.116  -5.160   4.027  0.00  0.00    -0.205 F 
ENDBRANCH  31  32
ENDBRANCH  10  31
TORSDOF 5
