REMARK  Name = ZINC52522887
REMARK  10 active torsions:
REMARK  status: ('A' for Active; 'I' for Inactive)
REMARK    1  A    between atoms: C_1  and  C_2
REMARK    2  A    between atoms: C_7  and  C_9
REMARK    3  A    between atoms: C_7  and  N_25
REMARK    4  A    between atoms: C_9  and  N_10
REMARK    5  A    between atoms: N_13  and  C_14
REMARK    6  A    between atoms: C_20  and  C_22
REMARK    7  A    between atoms: C_22  and  C_23
REMARK    8  A    between atoms: C_22  and  C_24
REMARK    9  A    between atoms: N_25  and  C_26
REMARK   10  A    between atoms: N_25  and  C_27
REMARK                            x       y       z     vdW  Elec       q    Type
REMARK                         _______ _______ _______ _____ _____    ______ ____
ROOT
ATOM      1  N   UNL     1       1.600  -4.815   1.062  0.00  0.00    -0.301 N 
ATOM      2  C   UNL     1       1.967  -5.516   2.154  0.00  0.00    +0.300 C 
ATOM      3  O   UNL     1       2.410  -4.937   3.127  0.00  0.00    -0.253 OA
ATOM      4  N   UNL     1       1.842  -6.857   2.167  0.00  0.00    -0.296 N 
ATOM      5  H   UNL     1       1.247  -5.276   0.286  0.00  0.00    +0.150 HD
ATOM      6  H   UNL     1       1.488  -7.319   1.390  0.00  0.00    +0.151 HD
ENDROOT
BRANCH   4   7
ATOM      7  C   UNL     1       2.240  -7.619   3.353  0.00  0.00    +0.077 C 
ATOM      8  C   UNL     1       3.742  -7.905   3.295  0.00  0.00    +0.041 C 
ATOM      9  C   UNL     1       4.161  -8.671   4.554  0.00  0.00    +0.109 C 
ATOM     10  N   UNL     1       3.323  -9.871   4.677  0.00  0.00    -0.301 N 
ATOM     11  C   UNL     1       1.862  -9.719   4.653  0.00  0.00    +0.109 C 
ATOM     12  C   UNL     1       1.469  -8.940   3.393  0.00  0.00    +0.041 C 
ATOM     13  C   UNL     1       3.884 -11.090   4.810  0.00  0.00    +0.218 C 
ATOM     14  O   UNL     1       5.090 -11.210   4.767  0.00  0.00    -0.275 OA
BRANCH  13  15
ATOM     15  C   UNL     1       3.012 -12.302   5.013  0.00  0.00    +0.069 C 
ATOM     16  C   UNL     1       3.876 -13.565   4.966  0.00  0.00    +0.017 C 
ATOM     17  C   UNL     1       2.318 -12.210   6.373  0.00  0.00    +0.017 C 
ENDBRANCH  13  15
ENDBRANCH   4   7
BRANCH   1  18
ATOM     18  C   UNL     1       1.736  -3.356   1.049  0.00  0.00    +0.094 C 
BRANCH  18  24
ATOM     19  C   UNL     1       2.067  -3.350  -3.937  0.00  0.00    +0.007 C 
ATOM     20  C   UNL     1       1.298  -2.797  -2.736  0.00  0.00    -0.015 C 
ATOM     21  C   UNL     1      -0.170  -3.214  -2.834  0.00  0.00    +0.003 C 
ATOM     22  C   UNL     1      -0.939  -2.661  -1.632  0.00  0.00    -0.001 C 
ATOM     23  C   UNL     1      -0.336  -3.217  -0.341  0.00  0.00    -0.010 C 
ATOM     24  C   UNL     1       1.133  -2.800  -0.243  0.00  0.00    -0.050 C 
ATOM     25  C   UNL     1       1.902  -3.353  -1.444  0.00  0.00    -0.007 C 
BRANCH  24  26
ATOM     26  N   UNL     1       1.226  -1.334  -0.235  0.00  0.00    +0.381 N 
ATOM     27  C   UNL     1       0.519  -0.805   0.940  0.00  0.00    -0.096 C 
ATOM     28  C   UNL     1       2.638  -0.933  -0.178  0.00  0.00    -0.096 C 
ATOM     29  H   UNL     1       0.805  -0.966  -1.075  0.00  0.00    -0.082 HD
ENDBRANCH  24  26
ENDBRANCH  18  24
ENDBRANCH   1  18
TORSDOF 5
