REMARK  Name = ZINC36033881
REMARK  8 active torsions:
REMARK  status: ('A' for Active; 'I' for Inactive)
REMARK    1  A    between atoms: C_1  and  C_2
REMARK    2  A    between atoms: C_2  and  C_3
REMARK    3  A    between atoms: C_2  and  C_4
REMARK    4  A    between atoms: C_4  and  C_5
REMARK    5  A    between atoms: C_5  and  C_33
REMARK    6  A    between atoms: C_10  and  C_13
REMARK    7  A    between atoms: C_18  and  O_19
REMARK    8  A    between atoms: N_23  and  C_26
REMARK                            x       y       z     vdW  Elec       q    Type
REMARK                         _______ _______ _______ _____ _____    ______ ____
ROOT
ATOM      1  C   UNL     1       0.353  -0.162   3.552  0.00  0.00    +0.048 C 
ATOM      2  C   UNL     1       0.531  -0.618   5.015  0.00  0.00    +0.086 C 
ATOM      3  C   UNL     1      -0.831  -1.254   5.403  0.00  0.00    +0.077 C 
ATOM      4  C   UNL     1      -1.709  -1.108   4.143  0.00  0.00    -0.023 C 
ATOM      5  N   UNL     1      -0.733  -1.024   3.018  0.00  0.00    +0.396 N 
ATOM      6  C   UNL     1      -0.487  -2.710   5.622  0.00  0.00    +0.229 C 
ATOM      7  O   UNL     1      -1.273  -3.575   5.943  0.00  0.00    -0.275 OA
ATOM      8  N   UNL     1       0.820  -2.895   5.405  0.00  0.00    -0.210 N 
ATOM      9  C   UNL     1       1.501  -1.777   5.061  0.00  0.00    +0.229 C 
ATOM     10  O   UNL     1       2.688  -1.707   4.825  0.00  0.00    -0.275 OA
ATOM     11  H   UNL     1      -1.163  -0.593   2.214  0.00  0.00    -0.083 HD
ATOM     12  H   UNL     1      -0.374  -1.937   2.781  0.00  0.00    -0.083 HD
ENDROOT
BRANCH   4  13
ATOM     13  C   UNL     1      -2.586  -2.321   3.971  0.00  0.00    -0.018 A 
ATOM     14  C   UNL     1      -2.238  -3.302   3.062  0.00  0.00    +0.020 A 
ATOM     15  C   UNL     1      -3.043  -4.416   2.903  0.00  0.00    +0.018 A 
ATOM     16  C   UNL     1      -4.197  -4.551   3.655  0.00  0.00    +0.019 A 
ATOM     17  C   UNL     1      -4.547  -3.574   4.565  0.00  0.00    +0.047 A 
ATOM     18  C   UNL     1      -3.739  -2.458   4.729  0.00  0.00    +0.119 A 
ATOM     19 BR   UNL     1      -2.565  -5.756   1.657  0.00  0.00    -0.050 Br
BRANCH  18  20
ATOM     20  O   UNL     1      -4.080  -1.497   5.628  0.00  0.00    -0.507 OA
ATOM     21  H   UNL     1      -4.639  -0.798   5.263  0.00  0.00    +0.292 HD
ENDBRANCH  18  20
ENDBRANCH   4  13
BRANCH   8  22
ATOM     22  C   UNL     1       1.440  -4.146   5.531  0.00  0.00    +0.045 A 
ATOM     23  C   UNL     1       2.005  -4.757   4.419  0.00  0.00    +0.024 A 
ATOM     24  C   UNL     1       2.615  -5.989   4.545  0.00  0.00    +0.003 A 
ATOM     25  C   UNL     1       2.665  -6.615   5.777  0.00  0.00    +0.020 A 
ATOM     26  C   UNL     1       2.104  -6.009   6.887  0.00  0.00    +0.043 A 
ATOM     27  C   UNL     1       1.496  -4.773   6.768  0.00  0.00    +0.044 A 
ATOM     28 CL   UNL     1       2.168  -6.798   8.432  0.00  0.00    -0.083 Cl
ENDBRANCH   8  22
BRANCH   1  29
ATOM     29  C   UNL     1      -0.053   1.288   3.497  0.00  0.00    +0.346 C 
ATOM     30  O   UNL     1      -1.176   1.593   3.131  0.00  0.00    -0.248 OA
ATOM     31  O   UNL     1       0.740   2.156   3.818  0.00  0.00    -0.248 OA
ENDBRANCH   1  29
BRANCH   1  32
ATOM     32  C   UNL     1       1.645  -0.383   2.764  0.00  0.00    +0.002 C 
BRANCH  32  34
ATOM     33  C   UNL     1       1.031   1.270   0.994  0.00  0.00    +0.007 C 
ATOM     34  C   UNL     1       1.370  -0.196   1.270  0.00  0.00    -0.018 C 
ATOM     35  C   UNL     1       2.612  -0.593   0.469  0.00  0.00    +0.007 C 
ENDBRANCH  32  34
ENDBRANCH   1  32
TORSDOF 6
