REMARK  Name = ZINC19741455
REMARK  5 active torsions:
REMARK  status: ('A' for Active; 'I' for Inactive)
REMARK    1  A    between atoms: C_3  and  C_6
REMARK    2  A    between atoms: C_6  and  N_7
REMARK    3  A    between atoms: N_10  and  C_13
REMARK    4  A    between atoms: C_13  and  C_14
REMARK    5  A    between atoms: C_16  and  C_19
REMARK                            x       y       z     vdW  Elec       q    Type
REMARK                         _______ _______ _______ _____ _____    ______ ____
ROOT
ATOM      1  C   UNL     1      -0.062   1.031   2.429  0.00  0.00    +0.022 C 
ENDROOT
BRANCH   1   5
ATOM      2  N   UNL     1      -0.806   3.062  -1.200  0.00  0.00    -0.301 NA
ATOM      3  C   UNL     1      -0.754   1.593  -1.231  0.00  0.00    +0.066 C 
ATOM      4  C   UNL     1      -0.013   1.086   0.008  0.00  0.00    -0.063 C 
ATOM      5  N   UNL     1      -0.701   1.560   1.216  0.00  0.00    +0.387 N 
ATOM      6  C   UNL     1      -0.754   3.029   1.247  0.00  0.00    -0.063 C 
ATOM      7  C   UNL     1      -1.495   3.536   0.008  0.00  0.00    +0.066 C 
ATOM      8  H   UNL     1      -1.735   1.184   1.189  0.00  0.00    -0.081 HD
BRANCH   2   9
ATOM      9  C   UNL     1      -1.445   3.591  -2.413  0.00  0.00    +0.126 C 
BRANCH   9  12
ATOM     10  C   UNL     1      -1.351   7.398  -2.302  0.00  0.00    +0.008 A 
ATOM     11  C   UNL     1      -0.899   6.114  -2.545  0.00  0.00    +0.012 A 
ATOM     12  C   UNL     1      -1.703   5.066  -2.241  0.00  0.00    +0.004 A 
ATOM     13  S   UNL     1      -3.144   5.885  -1.578  0.00  0.00    -0.100 S 
ATOM     14  C   UNL     1      -2.580   7.570  -1.758  0.00  0.00    +0.045 A 
ENDBRANCH   9  12
ENDBRANCH   2   9
ENDBRANCH   1   5
BRANCH   1  15
ATOM     15  C   UNL     1      -0.631   1.724   3.640  0.00  0.00    +0.211 A 
ATOM     16  N   UNL     1      -1.673   1.343   4.337  0.00  0.00    -0.193 NA
ATOM     17  C   UNL     1      -1.808   2.261   5.320  0.00  0.00    +0.202 A 
ATOM     18  N   UNL     1      -0.850   3.138   5.163  0.00  0.00    -0.056 NA
ATOM     19  O   UNL     1      -0.164   2.840   4.208  0.00  0.00    -0.340 OA
BRANCH  17  20
ATOM     20  C   UNL     1      -2.848   2.273   6.378  0.00  0.00    +0.026 A 
ATOM     21  C   UNL     1      -3.815   1.270   6.417  0.00  0.00    +0.015 A 
ATOM     22  C   UNL     1      -4.778   1.277   7.404  0.00  0.00    +0.050 A 
ATOM     23  C   UNL     1      -4.796   2.289   8.353  0.00  0.00    +0.166 A 
ATOM     24  C   UNL     1      -3.834   3.298   8.315  0.00  0.00    +0.167 A 
ATOM     25  C   UNL     1      -2.864   3.290   7.330  0.00  0.00    +0.061 A 
ATOM     26  O   UNL     1      -4.068   4.161   9.347  0.00  0.00    -0.453 OA
ATOM     27  C   UNL     1      -4.928   3.450  10.256  0.00  0.00    +0.466 C 
ATOM     28  O   UNL     1      -5.630   2.522   9.408  0.00  0.00    -0.453 OA
ENDBRANCH  17  20
ENDBRANCH   1  15
TORSDOF 5
