REMARK  Name = ZINC12378282
REMARK  10 active torsions:
REMARK  status: ('A' for Active; 'I' for Inactive)
REMARK    1  A    between atoms: C_1  and  C_2
REMARK    2  A    between atoms: N_4  and  C_5
REMARK    3  A    between atoms: C_7  and  O_37
REMARK    4  A    between atoms: C_15  and  C_18
REMARK    5  A    between atoms: C_24  and  O_26
REMARK    6  A    between atoms: O_26  and  C_27
REMARK    7  A    between atoms: C_30  and  C_33
REMARK    8  A    between atoms: C_33  and  C_34
REMARK    9  A    between atoms: C_33  and  C_35
REMARK   10  A    between atoms: C_33  and  C_36
REMARK                            x       y       z     vdW  Elec       q    Type
REMARK                         _______ _______ _______ _____ _____    ______ ____
ROOT
ATOM      1  C   UNL     1       0.002  -0.004   0.002  0.00  0.00    +0.173 C 
ATOM      2  C   UNL     1       0.710  -0.560  -1.237  0.00  0.00    +0.172 C 
ATOM      3  C   UNL     1       2.146  -0.036  -1.276  0.00  0.00    +0.183 C 
ATOM      4  C   UNL     1       2.136   1.496  -1.243  0.00  0.00    +0.179 C 
ATOM      5  C   UNL     1       3.585   1.993  -1.161  0.00  0.00    +0.197 C 
ATOM      6  O   UNL     1       4.219   1.381  -0.034  0.00  0.00    -0.342 OA
ATOM      7  C   UNL     1       4.217  -0.048  -0.073  0.00  0.00    +0.319 C 
ATOM      8  O   UNL     1       2.869  -0.522  -0.142  0.00  0.00    -0.336 OA
ATOM      9  O   UNL     1       1.426   1.944  -0.086  0.00  0.00    -0.332 OA
ATOM     10  C   UNL     1       0.061   1.526  -0.035  0.00  0.00    +0.331 C 
ENDROOT
BRANCH   1  14
ATOM     11  C   UNL     1       1.009  -2.180   2.987  0.00  0.00    +0.109 C 
ATOM     12  C   UNL     1       0.319  -1.678   1.744  0.00  0.00    +0.210 C 
ATOM     13  O   UNL     1      -0.553  -2.341   1.225  0.00  0.00    -0.276 OA
ATOM     14  N   UNL     1       0.672  -0.492   1.210  0.00  0.00    -0.304 N 
ATOM     15  H   UNL     1       1.370   0.039   1.625  0.00  0.00    +0.149 HD
ENDBRANCH   1  14
BRANCH   7  16
ATOM     16  C   UNL     1       4.977  -0.518  -1.287  0.00  0.00    +0.161 A 
ATOM     17  C   UNL     1       6.270  -0.260  -1.553  0.00  0.00    +0.050 A 
ATOM     18  C   UNL     1       6.568  -0.888  -2.784  0.00  0.00    +0.041 A 
ATOM     19  C   UNL     1       5.439  -1.492  -3.196  0.00  0.00    +0.195 A 
ATOM     20  O   UNL     1       4.480  -1.269  -2.283  0.00  0.00    -0.463 OA
ENDBRANCH   7  16
BRANCH   2  21
ATOM     21  O   UNL     1       0.016  -0.138  -2.413  0.00  0.00    -0.387 OA
ATOM     22  H   UNL     1      -0.904  -0.433  -2.454  0.00  0.00    +0.210 HD
ENDBRANCH   2  21
BRANCH  10  23
ATOM     23  O   UNL     1      -0.556   2.055   1.141  0.00  0.00    -0.462 OA
BRANCH  23  24
ATOM     24  C   UNL     1      -0.776   3.396   1.171  0.00  0.00    +0.124 A 
ATOM     25  C   UNL     1      -0.401   4.186   0.095  0.00  0.00    +0.046 A 
ATOM     26  C   UNL     1      -0.632   5.548   0.126  0.00  0.00    +0.008 A 
ATOM     27  C   UNL     1      -1.225   6.125   1.234  0.00  0.00    -0.042 A 
ATOM     28  C   UNL     1      -1.594   5.340   2.310  0.00  0.00    +0.008 A 
ATOM     29  C   UNL     1      -1.371   3.977   2.282  0.00  0.00    +0.046 A 
BRANCH  27  30
ATOM     30  C   UNL     1      -1.469   7.611   1.268  0.00  0.00    -0.013 C 
ATOM     31  C   UNL     1      -0.716   8.225   2.449  0.00  0.00    +0.015 C 
ATOM     32  C   UNL     1      -0.972   8.240  -0.036  0.00  0.00    +0.015 C 
ATOM     33  C   UNL     1      -2.968   7.878   1.424  0.00  0.00    +0.015 C 
ENDBRANCH  27  30
ENDBRANCH  23  24
ENDBRANCH  10  23
TORSDOF 6
