REMARK  Name = ZINC33366754
REMARK  8 active torsions:
REMARK  status: ('A' for Active; 'I' for Inactive)
REMARK    1  A    between atoms: C_1  and  O_2
REMARK    2  A    between atoms: O_2  and  C_3
REMARK    3  A    between atoms: C_3  and  C_5
REMARK    4  A    between atoms: C_8  and  C_11
REMARK    5  A    between atoms: N_19  and  C_22
REMARK    6  A    between atoms: C_26  and  N_28
REMARK    7  A    between atoms: C_31  and  C_33
REMARK    8  A    between atoms: C_31  and  C_39
REMARK                            x       y       z     vdW  Elec       q    Type
REMARK                         _______ _______ _______ _____ _____    ______ ____
ROOT
ATOM      1  C   UNL     1       0.851  -6.357   1.260  0.00  0.00    -0.026 C 
ATOM      2  C   UNL     1      -0.089  -6.893   2.336  0.00  0.00    +0.078 C 
ATOM      3  C   UNL     1       0.790  -6.493   3.581  0.00  0.00    +0.090 C 
ATOM      4  C   UNL     1      -0.167  -6.566   4.659  0.00  0.00    +0.229 C 
ATOM      5  O   UNL     1       0.038  -6.898   5.806  0.00  0.00    -0.275 OA
ATOM      6  N   UNL     1      -1.360  -6.179   4.101  0.00  0.00    -0.210 N 
ATOM      7  C   UNL     1      -1.326  -6.144   2.722  0.00  0.00    +0.229 C 
ATOM      8  O   UNL     1      -2.121  -5.616   1.975  0.00  0.00    -0.275 OA
ATOM      9  C   UNL     1       2.128  -6.984   3.227  0.00  0.00    +0.074 C 
ATOM     10  N   UNL     1       2.201  -6.816   1.726  0.00  0.00    +0.398 N 
ATOM     11  H   UNL     1       2.428  -7.701   1.299  0.00  0.00    -0.083 HD
ATOM     12  H   UNL     1       2.898  -6.128   1.482  0.00  0.00    -0.083 HD
ENDROOT
BRANCH   1  16
ATOM     13  C   UNL     1       0.680  -2.088   1.091  0.00  0.00    +0.059 A 
ATOM     14  C   UNL     1       1.597  -2.720   1.933  0.00  0.00    +0.015 A 
ATOM     15  C   UNL     1       1.647  -4.098   1.983  0.00  0.00    +0.003 A 
ATOM     16  C   UNL     1       0.791  -4.853   1.200  0.00  0.00    -0.061 A 
ATOM     17  C   UNL     1      -0.120  -4.233   0.363  0.00  0.00    +0.003 A 
ATOM     18  C   UNL     1      -0.185  -2.856   0.309  0.00  0.00    +0.015 A 
BRANCH  13  19
ATOM     19  C   UNL     1       0.620  -0.613   1.032  0.00  0.00    +0.339 C 
ATOM     20  O   UNL     1      -0.182  -0.066   0.302  0.00  0.00    -0.245 OA
BRANCH  19  22
ATOM     21  C   UNL     1       1.343   1.546   1.682  0.00  0.00    +0.280 C 
ATOM     22  O   UNL     1       1.456   0.125   1.788  0.00  0.00    -0.464 OA
ENDBRANCH  19  22
ENDBRANCH  13  19
ENDBRANCH   1  16
BRANCH   6  23
ATOM     23  C   UNL     1      -2.502  -5.864   4.851  0.00  0.00    +0.046 A 
ATOM     24  C   UNL     1      -2.463  -5.929   6.237  0.00  0.00    +0.024 A 
ATOM     25  C   UNL     1      -3.589  -5.618   6.974  0.00  0.00    +0.004 A 
ATOM     26  C   UNL     1      -4.754  -5.241   6.332  0.00  0.00    +0.033 A 
ATOM     27  C   UNL     1      -4.796  -5.176   4.951  0.00  0.00    +0.128 A 
ATOM     28  C   UNL     1      -3.671  -5.480   4.210  0.00  0.00    +0.056 A 
BRANCH  27  29
ATOM     29  N   UNL     1      -6.046  -4.773   4.268  0.00  0.00    +0.056 N 
ATOM     30  O   UNL     1      -7.029  -4.501   4.916  0.00  0.00    -0.126 OA
ATOM     31  O   UNL     1      -6.083  -4.715   3.061  0.00  0.00    -0.126 OA
ENDBRANCH  27  29
ENDBRANCH   6  23
BRANCH   9  32
ATOM     32  C   UNL     1       3.188  -6.144   3.890  0.00  0.00    -0.047 A 
ATOM     33  C   UNL     1       2.932  -5.542   5.108  0.00  0.00    +0.003 A 
ATOM     34  C   UNL     1       3.905  -4.771   5.716  0.00  0.00    +0.000 A 
ATOM     35  C   UNL     1       5.134  -4.602   5.106  0.00  0.00    +0.000 A 
ATOM     36  C   UNL     1       5.391  -5.205   3.889  0.00  0.00    +0.000 A 
ATOM     37  C   UNL     1       4.419  -5.979   3.283  0.00  0.00    +0.003 A 
ENDBRANCH   9  32
BRANCH   9  38
ATOM     38  C   UNL     1       2.278  -8.430   3.623  0.00  0.00    +0.350 C 
ATOM     39  O   UNL     1       2.521  -9.272   2.776  0.00  0.00    -0.248 OA
ATOM     40  O   UNL     1       2.156  -8.758   4.791  0.00  0.00    -0.248 OA
ENDBRANCH   9  38
TORSDOF 7
