REMARK  Name = ZINC63491597
REMARK  4 active torsions:
REMARK  status: ('A' for Active; 'I' for Inactive)
REMARK    1  A    between atoms: C_6  and  S_10
REMARK    2  A    between atoms: S_10  and  C_11
REMARK    3  A    between atoms: C_11  and  C_12
REMARK    4  A    between atoms: C_20  and  C_23
REMARK                            x       y       z     vdW  Elec       q    Type
REMARK                         _______ _______ _______ _____ _____    ______ ____
ROOT
ATOM      1  C   UNL     1       3.313  -2.560  -4.211  0.00  0.00    +0.059 A 
ATOM      2  C   UNL     1       2.404  -3.266  -4.944  0.00  0.00    +0.096 A 
ATOM      3  C   UNL     1       2.790  -3.844  -6.158  0.00  0.00    +0.272 A 
ATOM      4  O   UNL     1       1.978  -4.467  -6.822  0.00  0.00    -0.266 OA
ATOM      5  N   UNL     1       4.078  -3.711  -6.601  0.00  0.00    -0.205 N 
ATOM      6  C   UNL     1       4.911  -2.952  -5.821  0.00  0.00    +0.191 A 
ATOM      7  N   UNL     1       4.551  -2.417  -4.683  0.00  0.00    -0.226 NA
ATOM      8  S   UNL     1       6.444  -2.896  -6.733  0.00  0.00    -0.057 S 
ATOM      9  C   UNL     1       5.782  -3.613  -8.299  0.00  0.00    +0.189 C 
ATOM     10  N   UNL     1       4.579  -4.282  -7.737  0.00  0.00    -0.261 N 
ATOM     11  H   UNL     1       4.743  -5.268  -7.604  0.00  0.00    +0.168 HD
ENDROOT
BRANCH   9  12
ATOM     12  C   UNL     1       6.740  -4.607  -8.902  0.00  0.00    +0.022 A 
ATOM     13  C   UNL     1       7.727  -4.400  -9.808  0.00  0.00    +0.014 A 
ATOM     14  C   UNL     1       8.492  -5.474 -10.224  0.00  0.00    +0.008 A 
ATOM     15  C   UNL     1       8.232  -6.703  -9.713  0.00  0.00    +0.045 A 
ATOM     16  S   UNL     1       6.876  -6.362  -8.604  0.00  0.00    -0.099 S 
ENDBRANCH   9  12
BRANCH   1  17
ATOM     17  C   UNL     1       2.921  -1.946  -2.892  0.00  0.00    +0.128 C 
BRANCH  17  18
ATOM     18  S   UNL     1       3.629  -2.921  -1.536  0.00  0.00    -0.109 S 
BRANCH  18  24
ATOM     19  C   UNL     1      -0.016   1.344   0.009  0.00  0.00    +0.002 A 
ATOM     20  C   UNL     1       1.158   2.118   0.002  0.00  0.00    +0.002 A 
ATOM     21  C   UNL     1       2.389   1.570  -0.013  0.00  0.00    +0.027 A 
ATOM     22  C   UNL     1       2.533   0.108  -0.022  0.00  0.00    +0.061 A 
ATOM     23  N   UNL     1       3.569  -0.680  -0.036  0.00  0.00    -0.355 N 
ATOM     24  C   UNL     1       3.071  -2.062  -0.039  0.00  0.00    +0.236 C 
ATOM     25  N   UNL     1       1.606  -1.974  -0.024  0.00  0.00    -0.355 N 
ATOM     26  C   UNL     1       1.290  -0.712  -0.014  0.00  0.00    +0.061 A 
ATOM     27  C   UNL     1       0.002  -0.004   0.002  0.00  0.00    +0.027 A 
ATOM     28  H   UNL     1       4.499  -0.405  -0.045  0.00  0.00    +0.162 HD
ATOM     29  H   UNL     1       0.987  -2.721  -0.022  0.00  0.00    +0.162 HD
ENDBRANCH  18  24
ENDBRANCH  17  18
ENDBRANCH   1  17
TORSDOF 4
