REMARK  Name = ZINC36648986
REMARK  13 active torsions:
REMARK  status: ('A' for Active; 'I' for Inactive)
REMARK    1  A    between atoms: C_1  and  C_2
REMARK    2  A    between atoms: C_2  and  N_3
REMARK    3  A    between atoms: N_3  and  C_4
REMARK    4  A    between atoms: N_3  and  C_6
REMARK    5  A    between atoms: C_4  and  C_5
REMARK    6  A    between atoms: C_6  and  C_7
REMARK    7  A    between atoms: C_7  and  N_8
REMARK    8  A    between atoms: N_17  and  C_18
REMARK    9  A    between atoms: C_18  and  C_20
REMARK   10  A    between atoms: C_21  and  C_30
REMARK   11  A    between atoms: C_22  and  C_27
REMARK   12  A    between atoms: C_23  and  C_26
REMARK   13  A    between atoms: C_27  and  C_29
REMARK                            x       y       z     vdW  Elec       q    Type
REMARK                         _______ _______ _______ _____ _____    ______ ____
ROOT
ATOM      1  N   UNL     1      -0.611  -3.768   2.099  0.00  0.00    -0.314 N 
ATOM      2  C   UNL     1      -1.573  -4.475   2.813  0.00  0.00    +0.068 A 
ATOM      3  C   UNL     1      -2.768  -4.104   3.414  0.00  0.00    +0.028 A 
ATOM      4  C   UNL     1      -3.531  -5.049   4.069  0.00  0.00    +0.002 A 
ATOM      5  C   UNL     1      -3.109  -6.367   4.131  0.00  0.00    +0.002 A 
ATOM      6  C   UNL     1      -1.921  -6.746   3.538  0.00  0.00    +0.028 A 
ATOM      7  C   UNL     1      -1.148  -5.803   2.875  0.00  0.00    +0.066 A 
ATOM      8  N   UNL     1       0.065  -5.878   2.197  0.00  0.00    -0.326 N 
ATOM      9  C   UNL     1       0.370  -4.637   1.730  0.00  0.00    +0.201 A 
ATOM     10  N   UNL     1       1.452  -4.323   1.030  0.00  0.00    -0.141 NA
ATOM     11  H   UNL     1       0.599  -6.679   2.075  0.00  0.00    +0.169 HD
ENDROOT
BRANCH  10  12
ATOM     12  C   UNL     1       2.290  -5.286   0.624  0.00  0.00    +0.287 C 
ATOM     13  O   UNL     1       2.011  -6.458   0.815  0.00  0.00    -0.266 OA
BRANCH  12  14
ATOM     14  C   UNL     1       3.548  -4.931  -0.054  0.00  0.00    +0.108 A 
ATOM     15  C   UNL     1       4.478  -5.809  -0.519  0.00  0.00    -0.010 A 
ATOM     16  C   UNL     1       5.520  -5.043  -1.096  0.00  0.00    +0.041 A 
ATOM     17  C   UNL     1       5.168  -3.710  -0.953  0.00  0.00    +0.024 A 
ATOM     18  N   UNL     1       3.980  -3.653  -0.331  0.00  0.00    -0.354 N 
ATOM     19  H   UNL     1       3.502  -2.838  -0.109  0.00  0.00    +0.166 HD
ATOM     20  C   UNL     1       5.978  -2.528  -1.420  0.00  0.00    +0.064 C 
ATOM     21  C   UNL     1       4.412  -7.312  -0.434  0.00  0.00    +0.047 C 
BRANCH  16  22
ATOM     22  C   UNL     1       6.739  -5.560  -1.725  0.00  0.00    +0.162 C 
ATOM     23  O   UNL     1       7.706  -5.829  -1.043  0.00  0.00    -0.292 OA
ATOM     24  C   UNL     1       6.791  -5.758  -3.218  0.00  0.00    +0.091 C 
ENDBRANCH  16  22
ENDBRANCH  12  14
ENDBRANCH  10  12
BRANCH   1  25
ATOM     25  C   UNL     1      -0.650  -2.336   1.790  0.00  0.00    +0.106 C 
BRANCH  25  26
ATOM     26  C   UNL     1      -1.373  -2.121   0.459  0.00  0.00    -0.057 C 
BRANCH  26  27
ATOM     27  N   UNL     1      -1.412  -0.685   0.150  0.00  0.00    +0.380 N 
ATOM     28  H   UNL     1      -1.831  -0.186   0.921  0.00  0.00    -0.082 HD
BRANCH  27  30
ATOM     29  C   UNL     1      -0.072   1.325  -0.247  0.00  0.00    -0.017 C 
ATOM     30  C   UNL     1      -0.045  -0.193  -0.066  0.00  0.00    -0.082 C 
ENDBRANCH  27  30
BRANCH  27  31
ATOM     31  C   UNL     1      -2.208  -0.467  -1.065  0.00  0.00    -0.082 C 
ATOM     32  C   UNL     1      -3.666  -0.846  -0.794  0.00  0.00    -0.017 C 
ENDBRANCH  27  31
ENDBRANCH  26  27
ENDBRANCH  25  26
ENDBRANCH   1  25
TORSDOF 8
