REMARK  Name = ZINC53930938
REMARK  2 active torsions:
REMARK  status: ('A' for Active; 'I' for Inactive)
REMARK    1  A    between atoms: C_4  and  C_10
REMARK    2  A    between atoms: C_10  and  N_11
REMARK                            x       y       z     vdW  Elec       q    Type
REMARK                         _______ _______ _______ _____ _____    ______ ____
ROOT
ATOM      1  C   UNL     1       2.039   1.460   3.772  0.00  0.00    -0.068 C 
ENDROOT
BRANCH   1   5
ATOM      2  C   UNL     1      -0.019   1.518   0.010  0.00  0.00    +0.000 C 
ATOM      3  C   UNL     1       1.430   1.921  -0.001  0.00  0.00    +0.001 C 
ATOM      4  C   UNL     1       1.892   2.292   1.428  0.00  0.00    +0.009 C 
ATOM      5  C   UNL     1       1.254   1.336   2.465  0.00  0.00    +0.039 C 
ATOM      6  C   UNL     1       1.203  -0.095   2.095  0.00  0.00    +0.135 C 
ATOM      7  O   UNL     1       2.109  -0.838   2.388  0.00  0.00    -0.297 OA
ATOM      8  C   UNL     1      -0.032  -0.623   1.328  0.00  0.00    +0.074 C 
ATOM      9  C   UNL     1       0.002  -0.004   0.002  0.00  0.00    +0.007 C 
ENDBRANCH   1   5
BRANCH   1  10
ATOM     10  N   UNL     1       1.387   0.655   4.813  0.00  0.00    +0.381 N 
ATOM     11  C   UNL     1       2.145   0.735   6.060  0.00  0.00    -0.078 C 
ATOM     12  C   UNL     1       2.264  -0.674   6.645  0.00  0.00    -0.008 C 
ATOM     13  C   UNL     1       0.994  -1.533   6.554  0.00  0.00    +0.067 C 
ATOM     14  S   UNL     1      -0.504  -0.632   7.000  0.00  0.00    -0.163 S 
ATOM     15  C   UNL     1      -0.977   0.217   5.439  0.00  0.00    +0.050 C 
ATOM     16  C   UNL     1       0.059   1.199   5.115  0.00  0.00    -0.068 C 
ATOM     17  H   UNL     1       1.310  -0.305   4.512  0.00  0.00    -0.082 HD
ENDBRANCH   1  10
TORSDOF 2
