REMARK  Name = ZINC09636372
REMARK  10 active torsions:
REMARK  status: ('A' for Active; 'I' for Inactive)
REMARK    1  A    between atoms: C_1  and  C_2
REMARK    2  A    between atoms: C_8  and  N_10
REMARK    3  A    between atoms: C_11  and  C_13
REMARK    4  A    between atoms: C_13  and  C_15
REMARK    5  A    between atoms: C_13  and  N_22
REMARK    6  A    between atoms: C_15  and  C_16
REMARK    7  A    between atoms: N_22  and  S_23
REMARK    8  A    between atoms: S_23  and  C_26
REMARK    9  A    between atoms: N_34  and  C_39
REMARK   10  A    between atoms: N_37  and  C_38
REMARK                            x       y       z     vdW  Elec       q    Type
REMARK                         _______ _______ _______ _____ _____    ______ ____
ROOT
ATOM      1  C   UNL     1       3.802  -4.463  -2.559  0.00  0.00    +0.166 C 
ENDROOT
BRANCH   1   3
ATOM      2  N   UNL     1       4.943  -5.236  -4.612  0.00  0.00    -0.311 N 
ATOM      3  C   UNL     1       4.015  -5.466  -3.663  0.00  0.00    +0.232 C 
ATOM      4  O   UNL     1       3.351  -6.480  -3.697  0.00  0.00    -0.274 OA
ATOM      5  H   UNL     1       5.474  -4.425  -4.585  0.00  0.00    +0.149 HD
BRANCH   2  12
ATOM      6  C   UNL     1       7.577  -6.337  -5.105  0.00  0.00    +0.009 C 
ATOM      7  C   UNL     1       6.573  -6.077  -6.230  0.00  0.00    +0.006 C 
ATOM      8  C   UNL     1       6.777  -4.663  -6.779  0.00  0.00    +0.005 C 
ATOM      9  C   UNL     1       5.774  -4.404  -7.905  0.00  0.00    +0.000 C 
ATOM     10  C   UNL     1       4.351  -4.538  -7.360  0.00  0.00    +0.002 C 
ATOM     11  C   UNL     1       4.147  -5.952  -6.811  0.00  0.00    +0.022 C 
ATOM     12  C   UNL     1       5.150  -6.212  -5.686  0.00  0.00    +0.076 C 
ENDBRANCH   2  12
ENDBRANCH   1   3
BRANCH   1  13
ATOM     13  N   UNL     1       2.747  -4.940  -1.661  0.00  0.00    -0.178 NA
ATOM     14  H   UNL     1       1.817  -4.761  -1.868  0.00  0.00    +0.149 HD
BRANCH  13  15
ATOM     15  S   UNL     1       3.143  -5.786  -0.294  0.00  0.00    +0.059 S 
ATOM     16  O   UNL     1       4.035  -6.816  -0.697  0.00  0.00    -0.153 OA
ATOM     17  O   UNL     1       1.924  -6.056   0.385  0.00  0.00    -0.153 OA
BRANCH  15  18
ATOM     18  C   UNL     1       4.066  -4.699   0.742  0.00  0.00    +0.106 A 
ATOM     19  C   UNL     1       5.451  -4.695   0.676  0.00  0.00    +0.030 A 
ATOM     20  C   UNL     1       6.191  -3.850   1.479  0.00  0.00    +0.028 A 
ATOM     21  C   UNL     1       5.545  -2.997   2.361  0.00  0.00    +0.058 A 
ATOM     22  C   UNL     1       4.141  -3.000   2.428  0.00  0.00    +0.065 A 
ATOM     23  C   UNL     1       3.406  -3.857   1.613  0.00  0.00    +0.043 A 
ATOM     24  C   UNL     1       3.486  -2.081   3.376  0.00  0.00    +0.264 A 
ATOM     25  O   UNL     1       2.275  -2.044   3.473  0.00  0.00    -0.267 OA
ATOM     26  N   UNL     1       4.267  -1.280   4.133  0.00  0.00    -0.263 N 
ATOM     27  C   UNL     1       5.605  -1.313   4.032  0.00  0.00    +0.332 A 
ATOM     28  O   UNL     1       6.261  -0.570   4.737  0.00  0.00    -0.246 OA
ATOM     29  N   UNL     1       6.251  -2.132   3.184  0.00  0.00    -0.296 N 
ATOM     30  C   UNL     1       7.715  -2.113   3.131  0.00  0.00    +0.154 C 
ATOM     31  C   UNL     1       3.641  -0.352   5.078  0.00  0.00    +0.157 C 
ENDBRANCH  15  18
ENDBRANCH  13  15
ENDBRANCH   1  13
BRANCH   1  32
ATOM     32  C   UNL     1       3.388  -3.119  -3.163  0.00  0.00    +0.065 C 
BRANCH  32  33
ATOM     33  C   UNL     1       3.311  -2.081  -2.073  0.00  0.00    -0.045 A 
ATOM     34  C   UNL     1       2.136  -1.907  -1.367  0.00  0.00    +0.004 A 
ATOM     35  C   UNL     1       2.066  -0.958  -0.365  0.00  0.00    +0.000 A 
ATOM     36  C   UNL     1       3.168  -0.176  -0.075  0.00  0.00    +0.000 A 
ATOM     37  C   UNL     1       4.342  -0.346  -0.785  0.00  0.00    +0.000 A 
ATOM     38  C   UNL     1       4.413  -1.298  -1.785  0.00  0.00    +0.004 A 
ENDBRANCH  32  33
ENDBRANCH   1  32
TORSDOF 7
