REMARK  Name = ZINC04383622
REMARK  6 active torsions:
REMARK  status: ('A' for Active; 'I' for Inactive)
REMARK    1  A    between atoms: C_3  and  C_6
REMARK    2  A    between atoms: C_13  and  C_15
REMARK    3  A    between atoms: C_13  and  C_22
REMARK    4  A    between atoms: C_13  and  N_57
REMARK    5  A    between atoms: N_26  and  C_27
REMARK    6  A    between atoms: C_27  and  C_28
REMARK                            x       y       z     vdW  Elec       q    Type
REMARK                         _______ _______ _______ _____ _____    ______ ____
ROOT
ATOM      1  C   UNL     1       4.182  -0.729  -0.048  0.00  0.00    +0.033 C 
ENDROOT
BRANCH   1   9
ATOM      2  C   UNL     1       9.280   0.948   0.753  0.00  0.00    +0.282 C 
ATOM      3  O   UNL     1      10.123   0.134   1.080  0.00  0.00    -0.267 OA
ATOM      4  N   UNL     1       7.979   0.711   1.013  0.00  0.00    -0.299 N 
ATOM      5  C   UNL     1       7.549  -0.555   1.626  0.00  0.00    +0.089 C 
ATOM      6  C   UNL     1       6.420  -1.148   0.777  0.00  0.00    -0.058 C 
ATOM      7  C   UNL     1       5.844   1.030  -0.121  0.00  0.00    -0.058 C 
ATOM      8  C   UNL     1       6.951   1.712   0.690  0.00  0.00    +0.089 C 
ATOM      9  N   UNL     1       5.348  -0.137   0.640  0.00  0.00    +0.391 N 
ATOM     10  H   UNL     1       5.061   0.173   1.575  0.00  0.00    -0.080 HD
BRANCH   2  13
ATOM     11  C   UNL     1      10.863   3.769  -0.939  0.00  0.00    +0.042 A 
ATOM     12  C   UNL     1      10.939   2.498  -0.349  0.00  0.00    +0.054 A 
ATOM     13  C   UNL     1       9.679   2.186   0.075  0.00  0.00    +0.189 A 
ATOM     14  O   UNL     1       8.865   3.214  -0.242  0.00  0.00    -0.458 OA
ATOM     15  C   UNL     1       9.576   4.172  -0.850  0.00  0.00    +0.196 A 
ENDBRANCH   2  13
ENDBRANCH   1   9
BRANCH   1  16
ATOM     16  C   UNL     1       3.114   0.324  -0.192  0.00  0.00    -0.053 A 
ATOM     17  C   UNL     1       2.707   0.728  -1.450  0.00  0.00    +0.005 A 
ATOM     18  C   UNL     1       1.727   1.693  -1.584  0.00  0.00    +0.038 A 
ATOM     19  C   UNL     1       1.152   2.255  -0.457  0.00  0.00    +0.123 A 
ATOM     20  C   UNL     1       1.560   1.849   0.803  0.00  0.00    +0.038 A 
ATOM     21  C   UNL     1       2.540   0.884   0.934  0.00  0.00    +0.005 A 
ATOM     22  F   UNL     1       0.197   3.202  -0.586  0.00  0.00    -0.205 F 
ENDBRANCH   1  16
BRANCH   1  23
ATOM     23  C   UNL     1       4.573  -1.238  -1.412  0.00  0.00    +0.142 A 
ATOM     24  N   UNL     1       5.299  -0.609  -2.304  0.00  0.00    -0.115 NA
ATOM     25  N   UNL     1       5.412  -1.373  -3.335  0.00  0.00    -0.023 NA
ATOM     26  N   UNL     1       4.770  -2.469  -3.128  0.00  0.00    -0.044 NA
ATOM     27  N   UNL     1       4.239  -2.425  -1.953  0.00  0.00    -0.228 N 
BRANCH  27  28
ATOM     28  C   UNL     1       3.426  -3.469  -1.325  0.00  0.00    +0.178 C 
BRANCH  28  29
ATOM     29  C   UNL     1       1.976  -3.337  -1.794  0.00  0.00    +0.140 C 
ATOM     30  C   UNL     1       1.103  -4.451  -1.163  0.00  0.00    +0.035 C 
ATOM     31  C   UNL     1      -0.301  -3.788  -1.210  0.00  0.00    +0.031 C 
ATOM     32  C   UNL     1       0.032  -2.298  -0.980  0.00  0.00    +0.160 C 
ATOM     33  O   UNL     1       1.409  -2.104  -1.324  0.00  0.00    -0.375 OA
ENDBRANCH  28  29
ENDBRANCH  27  28
ENDBRANCH   1  23
TORSDOF 6
