REMARK  Name = ZINC39195329
REMARK  8 active torsions:
REMARK  status: ('A' for Active; 'I' for Inactive)
REMARK    1  A    between atoms: C_1  and  C_2
REMARK    2  A    between atoms: C_2  and  C_3
REMARK    3  A    between atoms: C_3  and  C_4
REMARK    4  A    between atoms: C_16  and  C_18
REMARK    5  A    between atoms: C_18  and  C_20
REMARK    6  A    between atoms: C_18  and  C_21
REMARK    7  A    between atoms: C_25  and  C_27
REMARK    8  A    between atoms: C_27  and  C_29
REMARK                            x       y       z     vdW  Elec       q    Type
REMARK                         _______ _______ _______ _____ _____    ______ ____
ROOT
ATOM      1  C   UNL     1       0.995  -2.281  -2.359  0.00  0.00    +0.064 C 
ATOM      2  C   UNL     1      -0.248  -3.074  -2.742  0.00  0.00    +0.134 C 
ATOM      3  N   UNL     1      -0.478  -2.680  -4.160  0.00  0.00    -0.298 N 
ATOM      4  C   UNL     1       0.816  -2.232  -4.736  0.00  0.00    +0.122 C 
ATOM      5  C   UNL     1       1.849  -2.469  -3.649  0.00  0.00    +0.117 C 
ATOM      6  C   UNL     1       3.007  -1.540  -3.516  0.00  0.00    +0.227 C 
ATOM      7  O   UNL     1       3.395  -0.846  -4.431  0.00  0.00    -0.275 OA
ATOM      8  N   UNL     1       3.595  -1.530  -2.284  0.00  0.00    -0.240 N 
ATOM      9  C   UNL     1       3.108  -2.271  -1.270  0.00  0.00    +0.306 C 
ATOM     10  O   UNL     1       3.837  -2.545  -0.336  0.00  0.00    -0.252 OA
ATOM     11  N   UNL     1       1.825  -2.717  -1.259  0.00  0.00    -0.291 N 
ATOM     12  C   UNL     1      -1.658  -2.723  -4.810  0.00  0.00    +0.223 C 
ATOM     13  O   UNL     1      -2.633  -3.196  -4.266  0.00  0.00    -0.275 OA
ATOM     14  H   UNL     1       4.380  -0.978  -2.136  0.00  0.00    +0.159 HD
ATOM     15  H   UNL     1       1.490  -3.298  -0.558  0.00  0.00    +0.151 HD
ENDROOT
BRANCH  12  16
ATOM     16  C   UNL     1      -1.765  -2.183  -6.213  0.00  0.00    +0.102 C 
ATOM     17  C   UNL     1      -1.344  -3.265  -7.210  0.00  0.00    +0.022 C 
BRANCH  16  18
ATOM     18  C   UNL     1      -3.190  -1.775  -6.487  0.00  0.00    -0.035 A 
ATOM     19  C   UNL     1      -4.205  -2.713  -6.404  0.00  0.00    +0.004 A 
ATOM     20  C   UNL     1      -5.516  -2.348  -6.654  0.00  0.00    +0.001 A 
ATOM     21  C   UNL     1      -5.820  -1.044  -6.987  0.00  0.00    +0.012 A 
ATOM     22  C   UNL     1      -4.802  -0.092  -7.071  0.00  0.00    +0.023 A 
ATOM     23  C   UNL     1      -3.481  -0.467  -6.813  0.00  0.00    +0.016 A 
BRANCH  22  24
ATOM     24  C   UNL     1      -5.120   1.306  -7.427  0.00  0.00    +0.193 C 
ATOM     25  O   UNL     1      -6.255   1.723  -7.298  0.00  0.00    -0.287 OA
BRANCH  24  26
ATOM     26  C   UNL     1      -4.059   2.198  -7.939  0.00  0.00    +0.022 A 
ATOM     27  C   UNL     1      -2.946   1.662  -8.590  0.00  0.00    +0.012 A 
ATOM     28  C   UNL     1      -1.960   2.500  -9.066  0.00  0.00    +0.001 A 
ATOM     29  C   UNL     1      -2.072   3.869  -8.901  0.00  0.00    +0.000 A 
ATOM     30  C   UNL     1      -3.172   4.407  -8.257  0.00  0.00    +0.001 A 
ATOM     31  C   UNL     1      -4.169   3.581  -7.781  0.00  0.00    +0.012 A 
ENDBRANCH  24  26
ENDBRANCH  22  24
ENDBRANCH  16  18
ENDBRANCH  12  16
BRANCH   1  32
ATOM     32  C   UNL     1       0.636  -0.804  -2.184  0.00  0.00    +0.028 C 
BRANCH  32  34
ATOM     33  C   UNL     1      -0.454   0.866  -0.679  0.00  0.00    +0.004 C 
ATOM     34  C   UNL     1      -0.094  -0.611  -0.854  0.00  0.00    -0.001 C 
ENDBRANCH  32  34
ENDBRANCH   1  32
TORSDOF 6
