REMARK  Name = ZINC39609524
REMARK  12 active torsions:
REMARK  status: ('A' for Active; 'I' for Inactive)
REMARK    1  A    between atoms: C_1  and  C_2
REMARK    2  A    between atoms: C_2  and  O_3
REMARK    3  A    between atoms: O_3  and  C_4
REMARK    4  A    between atoms: C_8  and  C_10
REMARK    5  A    between atoms: C_10  and  C_11
REMARK    6  A    between atoms: C_11  and  N_12
REMARK    7  A    between atoms: C_13  and  C_15
REMARK    8  A    between atoms: C_26  and  C_28
REMARK    9  A    between atoms: C_32  and  O_35
REMARK   10  A    between atoms: C_33  and  C_34
REMARK   11  A    between atoms: O_35  and  C_36
REMARK   12  A    between atoms: C_36  and  C_38
REMARK                            x       y       z     vdW  Elec       q    Type
REMARK                         _______ _______ _______ _____ _____    ______ ____
ROOT
ATOM      1  C   UNL     1      -8.438  -6.423   2.882  0.00  0.00    +0.100 C 
ATOM      2  C   UNL     1      -9.346  -5.309   2.313  0.00  0.00    +0.121 C 
ATOM      3  N   UNL     1     -10.625  -5.458   3.046  0.00  0.00    -0.296 N 
ATOM      4  C   UNL     1     -10.219  -5.781   4.435  0.00  0.00    +0.115 C 
ATOM      5  C   UNL     1      -9.015  -6.730   4.274  0.00  0.00    -0.004 C 
ATOM      6  C   UNL     1      -9.473  -8.183   4.348  0.00  0.00    -0.010 C 
ATOM      7  C   UNL     1      -9.990  -8.479   5.759  0.00  0.00    -0.082 C 
ATOM      8  N   UNL     1      -8.922  -8.232   6.735  0.00  0.00    +0.379 N 
ATOM      9  C   UNL     1      -8.550  -6.812   6.722  0.00  0.00    -0.082 C 
ATOM     10  C   UNL     1      -7.973  -6.446   5.352  0.00  0.00    -0.010 C 
ATOM     11  C   UNL     1     -11.875  -5.329   2.559  0.00  0.00    +0.247 C 
ATOM     12  O   UNL     1     -12.829  -5.389   3.311  0.00  0.00    -0.270 OA
ATOM     13  H   UNL     1      -9.245  -8.486   7.656  0.00  0.00    -0.086 HD
ATOM     14  H   UNL     1      -8.116  -8.791   6.498  0.00  0.00    -0.086 HD
ENDROOT
BRANCH  11  15
ATOM     15  C   UNL     1     -12.087  -5.114   1.112  0.00  0.00    +0.043 A 
ATOM     16  C   UNL     1     -11.186  -4.339   0.380  0.00  0.00    +0.013 A 
ATOM     17  C   UNL     1     -11.386  -4.141  -0.971  0.00  0.00    +0.004 A 
ATOM     18  C   UNL     1     -12.477  -4.708  -1.603  0.00  0.00    +0.047 A 
ATOM     19  C   UNL     1     -13.379  -5.481  -0.883  0.00  0.00    +0.135 A 
ATOM     20  C   UNL     1     -13.184  -5.690   0.472  0.00  0.00    +0.004 A 
ATOM     21  C   UNL     1     -14.159  -6.533   1.254  0.00  0.00    +0.048 C 
BRANCH  19  22
ATOM     22  O   UNL     1     -14.450  -6.036  -1.510  0.00  0.00    -0.426 OA
BRANCH  22  23
ATOM     23  C   UNL     1     -15.607  -5.355  -1.502  0.00  0.00    +0.309 C 
ATOM     24  O   UNL     1     -15.651  -4.244  -1.030  0.00  0.00    -0.251 OA
ATOM     25  C   UNL     1     -16.852  -5.978  -2.080  0.00  0.00    +0.136 C 
ENDBRANCH  22  23
ENDBRANCH  19  22
ENDBRANCH  11  15
BRANCH   1  27
ATOM     26  N   UNL     1      -5.996  -6.812   2.939  0.00  0.00    -0.315 N 
ATOM     27  C   UNL     1      -7.017  -5.934   2.998  0.00  0.00    +0.218 C 
ATOM     28  O   UNL     1      -6.793  -4.752   3.145  0.00  0.00    -0.275 OA
ATOM     29  H   UNL     1      -6.175  -7.758   2.821  0.00  0.00    +0.149 HD
BRANCH  26  30
ATOM     30  C   UNL     1      -4.615  -6.337   3.052  0.00  0.00    +0.109 C 
BRANCH  30  31
ATOM     31  C   UNL     1      -3.657  -7.525   2.954  0.00  0.00    +0.054 C 
BRANCH  31  36
ATOM     32  C   UNL     1      -0.228  -6.225   2.043  0.00  0.00    +0.121 A 
ATOM     33  C   UNL     1       0.374  -6.140   3.290  0.00  0.00    +0.045 A 
ATOM     34  C   UNL     1      -0.331  -6.503   4.421  0.00  0.00    +0.004 A 
ATOM     35  C   UNL     1      -1.635  -6.951   4.312  0.00  0.00    +0.004 A 
ATOM     36  C   UNL     1      -2.236  -7.037   3.070  0.00  0.00    -0.042 A 
ATOM     37  C   UNL     1      -1.538  -6.669   1.936  0.00  0.00    +0.049 A 
BRANCH  32  38
ATOM     38  O   UNL     1       0.463  -5.868   0.928  0.00  0.00    -0.492 OA
BRANCH  38  40
ATOM     39  C   UNL     1       2.419  -5.065  -0.243  0.00  0.00    +0.048 C 
ATOM     40  C   UNL     1       1.807  -5.420   1.114  0.00  0.00    +0.225 C 
ENDBRANCH  38  40
ENDBRANCH  32  38
ENDBRANCH  31  36
ENDBRANCH  30  31
ENDBRANCH  26  30
ENDBRANCH   1  27
TORSDOF 9
