REMARK  Name = ZINC44348639
REMARK  4 active torsions:
REMARK  status: ('A' for Active; 'I' for Inactive)
REMARK    1  A    between atoms: C_1  and  C_2
REMARK    2  A    between atoms: C_2  and  C_4
REMARK    3  A    between atoms: C_2  and  N_10
REMARK    4  A    between atoms: N_10  and  C_11
REMARK                            x       y       z     vdW  Elec       q    Type
REMARK                         _______ _______ _______ _____ _____    ______ ____
ROOT
ATOM      1  N   UNL     1       0.711  -0.489   1.189  0.00  0.00    -0.321 N 
ATOM      2  H   UNL     1       1.654  -0.707   1.135  0.00  0.00    +0.148 HD
ENDROOT
BRANCH   1   3
ATOM      3  C   UNL     1       0.034  -0.637   2.386  0.00  0.00    +0.143 A 
ATOM      4  C   UNL     1      -1.296  -0.338   2.467  0.00  0.00    +0.154 A 
ATOM      5  N   UNL     1      -1.961  -0.475   3.611  0.00  0.00    -0.256 NA
ATOM      6  C   UNL     1      -1.368  -0.902   4.702  0.00  0.00    +0.161 A 
ATOM      7  C   UNL     1      -0.001  -1.224   4.673  0.00  0.00    +0.199 A 
ATOM      8  N   UNL     1       0.687  -1.088   3.494  0.00  0.00    -0.176 N 
ATOM      9  N   UNL     1       1.997  -1.484   3.781  0.00  0.00    -0.037 NA
ATOM     10  N   UNL     1       2.025  -1.818   5.028  0.00  0.00    -0.022 NA
ATOM     11  N   UNL     1       0.868  -1.665   5.569  0.00  0.00    -0.107 NA
ENDBRANCH   1   3
BRANCH   1  13
ATOM     12  C   UNL     1      -0.019   1.526   0.010  0.00  0.00    +0.033 C 
ATOM     13  C   UNL     1       0.002  -0.004   0.002  0.00  0.00    +0.106 C 
BRANCH  13  14
ATOM     14  C   UNL     1       0.707  -0.490  -1.238  0.00  0.00    +0.011 A 
ATOM     15  C   UNL     1       0.176  -0.943  -2.400  0.00  0.00    +0.014 A 
ATOM     16  C   UNL     1       1.026  -1.341  -3.415  0.00  0.00    +0.028 A 
ATOM     17  C   UNL     1       2.366  -1.267  -3.218  0.00  0.00    +0.078 A 
ATOM     18  S   UNL     1       2.459  -0.612  -1.560  0.00  0.00    -0.080 S 
ATOM     19 CL   UNL     1       3.656  -1.693  -4.299  0.00  0.00    -0.076 Cl
ENDBRANCH  13  14
ENDBRANCH   1  13
TORSDOF 3
