REMARK  Name = ZINC06016003
REMARK  8 active torsions:
REMARK  status: ('A' for Active; 'I' for Inactive)
REMARK    1  A    between atoms: C_2  and  C_3
REMARK    2  A    between atoms: C_2  and  N_10
REMARK    3  A    between atoms: N_10  and  O_11
REMARK    4  A    between atoms: O_11  and  C_12
REMARK    5  A    between atoms: C_12  and  C_13
REMARK    6  A    between atoms: C_13  and  N_15
REMARK    7  A    between atoms: N_16  and  C_17
REMARK    8  A    between atoms: C_26  and  O_27
REMARK                            x       y       z     vdW  Elec       q    Type
REMARK                         _______ _______ _______ _____ _____    ______ ____
ROOT
ATOM      1  C   UNL     1       0.024   1.228   3.978  0.00  0.00    +0.282 C 
ATOM      2  O   UNL     1       0.044   0.404   4.869  0.00  0.00    -0.270 OA
ENDROOT
BRANCH   1   3
ATOM      3  N   UNL     1       0.017   0.831   2.698  0.00  0.00    -0.078 NA
ATOM      4  N   UNL     1       0.031  -0.427   2.413  0.00  0.00    -0.151 NA
BRANCH   4   5
ATOM      5  C   UNL     1       0.024  -0.823   1.139  0.00  0.00    +0.152 A 
ATOM      6  C   UNL     1       0.038  -2.214   0.640  0.00  0.00    +0.032 A 
ATOM      7  C   UNL     1       0.061  -3.458   1.263  0.00  0.00    +0.027 A 
ATOM      8  C   UNL     1       0.069  -4.606   0.496  0.00  0.00    +0.019 A 
ATOM      9  C   UNL     1       0.054  -4.520  -0.888  0.00  0.00    +0.017 A 
ATOM     10  C   UNL     1       0.033  -3.292  -1.515  0.00  0.00    +0.027 A 
ATOM     11  C   UNL     1       0.024  -2.125  -0.759  0.00  0.00    +0.051 A 
ATOM     12  N   UNL     1      -0.004  -0.783  -1.105  0.00  0.00    -0.324 N 
ATOM     13  H   UNL     1      -0.022  -0.448  -2.015  0.00  0.00    +0.169 HD
ATOM     14  C   UNL     1       0.002  -0.004   0.002  0.00  0.00    +0.219 A 
ATOM     15 BR   UNL     1       0.099  -6.300   1.336  0.00  0.00    -0.050 Br
BRANCH  14  16
ATOM     16  O   UNL     1      -0.016   1.345   0.009  0.00  0.00    -0.492 OA
ATOM     17  H   UNL     1       0.839   1.795   0.004  0.00  0.00    +0.294 HD
ENDBRANCH  14  16
ENDBRANCH   4   5
ENDBRANCH   1   3
BRANCH   1  18
ATOM     18  C   UNL     1       0.007   2.698   4.310  0.00  0.00    +0.291 C 
BRANCH  18  19
ATOM     19  O   UNL     1       0.018   2.865   5.729  0.00  0.00    -0.265 OA
BRANCH  19  20
ATOM     20  N   UNL     1       0.004   4.217   6.150  0.00  0.00    -0.265 N 
ATOM     21  H   UNL     1      -0.012   4.930   5.492  0.00  0.00    +0.194 HD
BRANCH  20  23
ATOM     22  C   UNL     1       0.035   3.545   8.416  0.00  0.00    +0.038 C 
ATOM     23  C   UNL     1       0.013   4.525   7.511  0.00  0.00    +0.061 C 
BRANCH  23  24
ATOM     24  C   UNL     1      -0.002   5.939   7.951  0.00  0.00    -0.000 A 
ATOM     25  C   UNL     1      -0.020   6.965   7.007  0.00  0.00    +0.011 A 
ATOM     26  C   UNL     1      -0.040   8.281   7.423  0.00  0.00    +0.016 A 
ATOM     27  C   UNL     1      -0.031   8.583   8.773  0.00  0.00    +0.018 A 
ATOM     28  C   UNL     1      -0.007   7.568   9.715  0.00  0.00    +0.016 A 
ATOM     29  C   UNL     1       0.007   6.249   9.310  0.00  0.00    +0.011 A 
ATOM     30 BR   UNL     1      -0.051  10.389   9.335  0.00  0.00    -0.050 Br
ENDBRANCH  23  24
ENDBRANCH  20  23
ENDBRANCH  19  20
ENDBRANCH  18  19
ENDBRANCH   1  18
TORSDOF 8
