REMARK  Name = ZINC08883082
REMARK  5 active torsions:
REMARK  status: ('A' for Active; 'I' for Inactive)
REMARK    1  A    between atoms: C_1  and  C_2
REMARK    2  A    between atoms: C_2  and  C_4
REMARK    3  A    between atoms: C_2  and  N_13
REMARK    4  A    between atoms: C_14  and  C_16
REMARK    5  A    between atoms: C_16  and  N_17
REMARK                            x       y       z     vdW  Elec       q    Type
REMARK                         _______ _______ _______ _____ _____    ______ ____
ROOT
ATOM      1  C   UNL     1       6.881   4.858   2.323  0.00  0.00    +0.213 C 
ENDROOT
BRANCH   1   2
ATOM      2  N   UNL     1       8.249   4.609   2.783  0.00  0.00    -0.215 N 
ATOM      3  C   UNL     1       8.560   3.919   3.901  0.00  0.00    +0.251 C 
ATOM      4  O   UNL     1       7.791   3.407   4.686  0.00  0.00    -0.272 OA
ATOM      5  C   UNL     1      10.068   3.918   3.965  0.00  0.00    +0.139 C 
ATOM      6  C   UNL     1      10.556   4.583   5.243  0.00  0.00    +0.040 C 
ATOM      7  C   UNL     1      12.074   4.420   5.378  0.00  0.00    +0.008 C 
ATOM      8  C   UNL     1      12.392   2.941   5.644  0.00  0.00    +0.043 C 
ATOM      9  C   UNL     1      11.640   2.108   4.658  0.00  0.00    -0.005 A 
ATOM     10  C   UNL     1      10.592   2.495   3.879  0.00  0.00    -0.005 A 
ATOM     11  C   UNL     1      10.057   1.525   3.031  0.00  0.00    +0.014 A 
ATOM     12  C   UNL     1      10.579   0.277   3.013  0.00  0.00    +0.046 A 
ATOM     13  S   UNL     1      11.887   0.408   4.224  0.00  0.00    -0.101 S 
ATOM     14  N   UNL     1      10.481   4.678   2.780  0.00  0.00    -0.281 N 
ATOM     15  C   UNL     1       9.347   5.041   2.149  0.00  0.00    +0.310 C 
ATOM     16  O   UNL     1       9.323   5.688   1.121  0.00  0.00    -0.252 OA
ATOM     17  H   UNL     1      11.389   4.878   2.506  0.00  0.00    +0.152 HD
ENDBRANCH   1   2
BRANCH   1  19
ATOM     18  N   UNL     1       5.216   3.760   0.860  0.00  0.00    -0.304 N 
ATOM     19  C   UNL     1       6.447   3.743   1.407  0.00  0.00    +0.232 C 
ATOM     20  O   UNL     1       7.206   2.829   1.163  0.00  0.00    -0.274 OA
ATOM     21  H   UNL     1       4.609   4.491   1.055  0.00  0.00    +0.149 HD
BRANCH  18  23
ATOM     22  C   UNL     1       5.271   2.969  -1.454  0.00  0.00    +0.036 C 
ATOM     23  C   UNL     1       4.794   2.675  -0.030  0.00  0.00    +0.136 C 
BRANCH  23  24
ATOM     24  C   UNL     1       3.291   2.569  -0.016  0.00  0.00    +0.126 A 
ATOM     25  C   UNL     1       2.603   1.419  -0.015  0.00  0.00    +0.055 A 
ATOM     26  C   UNL     1       1.183   1.792   0.000  0.00  0.00    +0.020 A 
ATOM     27  C   UNL     1      -0.013   1.076   0.008  0.00  0.00    +0.011 A 
ATOM     28  C   UNL     1      -1.204   1.746   0.017  0.00  0.00    +0.001 A 
ATOM     29  C   UNL     1      -1.230   3.133   0.030  0.00  0.00    +0.004 A 
ATOM     30  C   UNL     1      -0.057   3.859   0.023  0.00  0.00    +0.047 A 
ATOM     31  C   UNL     1       1.164   3.197   0.008  0.00  0.00    +0.135 A 
ATOM     32  O   UNL     1       2.446   3.615  -0.002  0.00  0.00    -0.458 OA
ENDBRANCH  23  24
ENDBRANCH  18  23
ENDBRANCH   1  19
TORSDOF 4
