REMARK  Name = ZINC38596170
REMARK  12 active torsions:
REMARK  status: ('A' for Active; 'I' for Inactive)
REMARK    1  A    between atoms: C_1  and  C_2
REMARK    2  A    between atoms: C_2  and  O_3
REMARK    3  A    between atoms: O_3  and  C_4
REMARK    4  A    between atoms: C_7  and  S_10
REMARK    5  A    between atoms: S_10  and  N_13
REMARK    6  A    between atoms: N_13  and  C_14
REMARK    7  A    between atoms: C_14  and  C_16
REMARK    8  A    between atoms: C_14  and  C_17
REMARK    9  A    between atoms: C_17  and  C_19
REMARK   10  A    between atoms: C_17  and  N_24
REMARK   11  A    between atoms: N_27  and  C_30
REMARK   12  A    between atoms: C_30  and  C_31
REMARK                            x       y       z     vdW  Elec       q    Type
REMARK                         _______ _______ _______ _____ _____    ______ ____
ROOT
ATOM      1  C   UNL     1       4.906  -7.415   1.381  0.00  0.00    +0.112 C 
ENDROOT
BRANCH   1   2
ATOM      2  N   UNL     1       6.224  -6.913   1.793  0.00  0.00    -0.297 NA
ATOM      3  C   UNL     1       6.192  -6.424   3.179  0.00  0.00    +0.066 C 
ATOM      4  C   UNL     1       7.564  -5.857   3.548  0.00  0.00    -0.063 C 
ATOM      5  N   UNL     1       8.583  -6.905   3.404  0.00  0.00    +0.384 N 
ATOM      6  C   UNL     1       8.620  -7.366   2.009  0.00  0.00    -0.063 C 
ATOM      7  C   UNL     1       7.256  -7.946   1.627  0.00  0.00    +0.066 C 
ATOM      8  H   UNL     1       8.355  -7.681   4.008  0.00  0.00    -0.081 HD
BRANCH   5   9
ATOM      9  C   UNL     1       9.898  -6.365   3.776  0.00  0.00    -0.043 C 
BRANCH   9  10
ATOM     10  C   UNL     1      10.921  -7.470   3.746  0.00  0.00    -0.064 A 
ATOM     11  C   UNL     1      11.161  -8.222   4.881  0.00  0.00    +0.002 A 
ATOM     12  C   UNL     1      12.100  -9.236   4.854  0.00  0.00    +0.000 A 
ATOM     13  C   UNL     1      12.800  -9.498   3.691  0.00  0.00    +0.000 A 
ATOM     14  C   UNL     1      12.560  -8.747   2.556  0.00  0.00    +0.000 A 
ATOM     15  C   UNL     1      11.618  -7.736   2.582  0.00  0.00    +0.002 A 
ENDBRANCH   9  10
ENDBRANCH   5   9
ENDBRANCH   1   2
BRANCH   1  16
ATOM     16  C   UNL     1       4.954  -7.822  -0.069  0.00  0.00    +0.008 A 
ATOM     17  C   UNL     1       4.382  -8.890  -0.675  0.00  0.00    +0.013 A 
ATOM     18  C   UNL     1       4.562  -9.066  -2.034  0.00  0.00    +0.008 A 
ATOM     19  C   UNL     1       5.305  -8.164  -2.721  0.00  0.00    +0.045 A 
ATOM     20  S   UNL     1       5.773  -7.016  -1.436  0.00  0.00    -0.100 S 
ENDBRANCH   1  16
BRANCH   1  21
ATOM     21  C   UNL     1       3.860  -6.314   1.568  0.00  0.00    +0.095 C 
ATOM     22  C   UNL     1       4.299  -5.060   0.810  0.00  0.00    +0.027 C 
BRANCH  21  23
ATOM     23  N   UNL     1       2.570  -6.773   1.047  0.00  0.00    -0.185 NA
ATOM     24  H   UNL     1       2.539  -7.347   0.266  0.00  0.00    +0.148 HD
BRANCH  23  25
ATOM     25  S   UNL     1       1.165  -6.312   1.792  0.00  0.00    +0.059 S 
ATOM     26  O   UNL     1       1.342  -6.557   3.180  0.00  0.00    -0.153 OA
ATOM     27  O   UNL     1       0.102  -6.888   1.046  0.00  0.00    -0.153 OA
BRANCH  25  31
ATOM     28  C   UNL     1       0.802  -1.824   1.306  0.00  0.00    +0.121 A 
ATOM     29  C   UNL     1       0.260  -2.673   0.351  0.00  0.00    +0.047 A 
ATOM     30  C   UNL     1       0.372  -4.041   0.502  0.00  0.00    +0.032 A 
ATOM     31  C   UNL     1       1.024  -4.566   1.603  0.00  0.00    +0.105 A 
ATOM     32  C   UNL     1       1.565  -3.722   2.555  0.00  0.00    +0.032 A 
ATOM     33  C   UNL     1       1.460  -2.353   2.406  0.00  0.00    +0.047 A 
BRANCH  28  34
ATOM     34  O   UNL     1       0.693  -0.477   1.160  0.00  0.00    -0.492 OA
BRANCH  34  36
ATOM     35  C   UNL     1      -0.019   1.526   0.010  0.00  0.00    +0.048 C 
ATOM     36  C   UNL     1       0.002  -0.004   0.002  0.00  0.00    +0.225 C 
ENDBRANCH  34  36
ENDBRANCH  28  34
ENDBRANCH  25  31
ENDBRANCH  23  25
ENDBRANCH  21  23
ENDBRANCH   1  21
TORSDOF 10
