REMARK  Name = ZINC61887552
REMARK  4 active torsions:
REMARK  status: ('A' for Active; 'I' for Inactive)
REMARK    1  A    between atoms: C_4  and  C_7
REMARK    2  A    between atoms: N_9  and  C_10
REMARK    3  A    between atoms: C_15  and  C_17
REMARK    4  A    between atoms: N_18  and  O_19
REMARK                            x       y       z     vdW  Elec       q    Type
REMARK                         _______ _______ _______ _____ _____    ______ ____
ROOT
ATOM      1  C   UNL     1       3.905  -2.277  -3.700  0.00  0.00    +0.083 C 
ATOM      2  C   UNL     1       5.394  -2.453  -3.352  0.00  0.00    +0.023 C 
ATOM      3  C   UNL     1       5.755  -3.915  -3.688  0.00  0.00    +0.003 C 
ATOM      4  C   UNL     1       4.400  -4.664  -3.627  0.00  0.00    +0.013 C 
ATOM      5  C   UNL     1       3.413  -3.637  -4.237  0.00  0.00    +0.076 C 
ENDROOT
BRANCH   5   6
ATOM      6  C   UNL     1       2.007  -3.911  -3.767  0.00  0.00    +0.136 C 
ATOM      7  N   UNL     1       1.004  -3.614  -4.523  0.00  0.00    -0.076 NA
ATOM      8  N   UNL     1       1.794  -4.479  -2.530  0.00  0.00    -0.344 N 
ATOM      9  H   UNL     1       2.547  -4.702  -1.962  0.00  0.00    +0.144 HD
ATOM     10  H   UNL     1       0.889  -4.656  -2.228  0.00  0.00    +0.144 HD
BRANCH   7  11
ATOM     11  O   UNL     1       1.225  -3.142  -5.840  0.00  0.00    -0.408 OA
ATOM     12  H   UNL     1       0.419  -2.875  -6.302  0.00  0.00    +0.328 HD
ENDBRANCH   7  11
ENDBRANCH   5   6
BRANCH   1  15
ATOM     13  C   UNL     1       3.049  -0.612  -2.140  0.00  0.00    +0.216 C 
ATOM     14  O   UNL     1       3.504   0.254  -2.857  0.00  0.00    -0.276 OA
ATOM     15  N   UNL     1       3.150  -1.907  -2.501  0.00  0.00    -0.312 N 
ATOM     16  H   UNL     1       2.723  -2.594  -1.966  0.00  0.00    +0.149 HD
BRANCH  13  20
ATOM     17  C   UNL     1       0.862   1.669   0.785  0.00  0.00    +0.000 C 
ATOM     18  C   UNL     1       2.343   1.388   1.048  0.00  0.00    +0.001 C 
ATOM     19  C   UNL     1       3.032   1.011  -0.266  0.00  0.00    +0.013 C 
ATOM     20  C   UNL     1       2.371  -0.241  -0.847  0.00  0.00    +0.075 C 
ATOM     21  C   UNL     1       0.890   0.040  -1.110  0.00  0.00    +0.013 C 
ATOM     22  C   UNL     1       0.201   0.417   0.203  0.00  0.00    +0.001 C 
ENDBRANCH  13  20
ENDBRANCH   1  15
TORSDOF 4
