REMARK  Name = ZINC12717405
REMARK  11 active torsions:
REMARK  status: ('A' for Active; 'I' for Inactive)
REMARK    1  A    between atoms: C_1  and  C_2
REMARK    2  A    between atoms: C_2  and  C_3
REMARK    3  A    between atoms: C_10  and  C_15
REMARK    4  A    between atoms: C_15  and  N_67
REMARK    5  A    between atoms: C_16  and  C_17
REMARK    6  A    between atoms: C_16  and  N_67
REMARK    7  A    between atoms: C_20  and  O_23
REMARK    8  A    between atoms: O_23  and  C_24
REMARK    9  A    between atoms: C_25  and  C_26
REMARK   10  A    between atoms: C_25  and  N_67
REMARK   11  A    between atoms: N_30  and  C_31
REMARK                            x       y       z     vdW  Elec       q    Type
REMARK                         _______ _______ _______ _____ _____    ______ ____
ROOT
ATOM      1  N   UNL     1       0.841  -2.741   1.683  0.00  0.00    +0.390 N 
ATOM      2  H   UNL     1       0.021  -2.309   2.124  0.00  0.00    -0.080 HD
ENDROOT
BRANCH   1   3
ATOM      3  C   UNL     1       0.775  -2.517   0.223  0.00  0.00    -0.036 C 
BRANCH   3  11
ATOM      4  C   UNL     1       1.161   3.372  -1.637  0.00  0.00    -0.047 A 
ATOM      5  C   UNL     1      -0.122   3.740  -1.255  0.00  0.00    +0.005 A 
ATOM      6  C   UNL     1      -0.970   2.827  -0.666  0.00  0.00    +0.026 A 
ATOM      7  C   UNL     1      -0.538   1.522  -0.452  0.00  0.00    +0.049 A 
ATOM      8  C   UNL     1       0.764   1.153  -0.840  0.00  0.00    -0.001 A 
ATOM      9  C   UNL     1       1.607   2.096  -1.435  0.00  0.00    +0.013 A 
ATOM     10  C   UNL     1       1.209  -0.223  -0.609  0.00  0.00    +0.017 A 
ATOM     11  C   UNL     1       0.348  -1.094  -0.028  0.00  0.00    +0.001 A 
ATOM     12  C   UNL     1      -0.947  -0.672   0.342  0.00  0.00    +0.251 A 
ATOM     13  O   UNL     1      -1.706  -1.472   0.863  0.00  0.00    -0.268 OA
ATOM     14  N   UNL     1      -1.365   0.588   0.134  0.00  0.00    -0.322 N 
ATOM     15  H   UNL     1      -2.264   0.844   0.397  0.00  0.00    +0.169 HD
BRANCH   4  17
ATOM     16  C   UNL     1       1.883   4.353  -3.797  0.00  0.00    +0.009 C 
ATOM     17  C   UNL     1       2.070   4.388  -2.279  0.00  0.00    +0.032 C 
ENDBRANCH   4  17
ENDBRANCH   3  11
ENDBRANCH   1   3
BRANCH   1  18
ATOM     18  C   UNL     1       0.836  -4.190   1.972  0.00  0.00    -0.042 C 
BRANCH  18  19
ATOM     19  C   UNL     1       0.525  -4.391   3.433  0.00  0.00    -0.064 A 
ATOM     20  C   UNL     1       1.553  -4.589   4.337  0.00  0.00    +0.005 A 
ATOM     21  C   UNL     1       1.271  -4.768   5.677  0.00  0.00    +0.046 A 
ATOM     22  C   UNL     1      -0.046  -4.758   6.115  0.00  0.00    +0.120 A 
ATOM     23  C   UNL     1      -1.075  -4.564   5.206  0.00  0.00    +0.046 A 
ATOM     24  C   UNL     1      -0.788  -4.381   3.867  0.00  0.00    +0.005 A 
BRANCH  22  25
ATOM     25  O   UNL     1      -0.326  -4.939   7.433  0.00  0.00    -0.495 OA
ATOM     26  C   UNL     1       0.784  -5.133   8.312  0.00  0.00    +0.277 C 
ENDBRANCH  22  25
ENDBRANCH  18  19
ENDBRANCH   1  18
BRANCH   1  27
ATOM     27  C   UNL     1       2.064  -2.120   2.234  0.00  0.00    +0.001 C 
BRANCH  27  28
ATOM     28  C   UNL     1       1.824  -0.641   2.393  0.00  0.00    +0.135 A 
ATOM     29  N   UNL     1       2.240   0.310   1.593  0.00  0.00    -0.115 NA
ATOM     30  N   UNL     1       1.831   1.437   2.067  0.00  0.00    -0.023 NA
ATOM     31  N   UNL     1       1.173   1.229   3.154  0.00  0.00    -0.044 NA
ATOM     32  N   UNL     1       1.147  -0.039   3.389  0.00  0.00    -0.228 N 
BRANCH  32  33
ATOM     33  C   UNL     1       0.500  -0.701   4.525  0.00  0.00    +0.111 C 
ATOM     34  C   UNL     1      -1.019  -0.433   4.497  0.00  0.00    +0.027 C 
ATOM     35  C   UNL     1      -1.403  -0.274   5.990  0.00  0.00    +0.002 C 
ATOM     36  C   UNL     1      -0.191   0.491   6.576  0.00  0.00    +0.002 C 
ATOM     37  C   UNL     1       1.027  -0.114   5.846  0.00  0.00    +0.027 C 
ENDBRANCH  32  33
ENDBRANCH  27  28
ENDBRANCH   1  27
TORSDOF 9
