REMARK  Name = ZINC09767578
REMARK  12 active torsions:
REMARK  status: ('A' for Active; 'I' for Inactive)
REMARK    1  A    between atoms: C_1  and  C_2
REMARK    2  A    between atoms: C_2  and  O_3
REMARK    3  A    between atoms: O_3  and  C_4
REMARK    4  A    between atoms: C_4  and  C_6
REMARK    5  A    between atoms: C_6  and  N_7
REMARK    6  A    between atoms: C_10  and  C_37
REMARK    7  A    between atoms: C_12  and  C_36
REMARK    8  A    between atoms: N_16  and  C_17
REMARK    9  A    between atoms: C_17  and  C_19
REMARK   10  A    between atoms: C_22  and  S_25
REMARK   11  A    between atoms: S_25  and  N_28
REMARK   12  A    between atoms: C_32  and  C_35
REMARK                            x       y       z     vdW  Elec       q    Type
REMARK                         _______ _______ _______ _____ _____    ______ ____
ROOT
ATOM      1  N   UNL     1       0.002  -0.004   0.002  0.00  0.00    -0.310 N 
ATOM      2  C   UNL     1       1.208  -0.681  -0.013  0.00  0.00    +0.059 A 
ATOM      3  C   UNL     1       1.428  -2.067  -0.023  0.00  0.00    +0.030 A 
ATOM      4  C   UNL     1       2.705  -2.575  -0.038  0.00  0.00    -0.048 A 
ATOM      5  C   UNL     1       3.810  -1.741  -0.044  0.00  0.00    +0.008 A 
ATOM      6  C   UNL     1       3.622  -0.370  -0.035  0.00  0.00    -0.034 A 
ATOM      7  C   UNL     1       2.345   0.140  -0.020  0.00  0.00    +0.042 A 
ATOM      8  S   UNL     1       1.665   1.779  -0.004  0.00  0.00    -0.052 S 
ATOM      9  C   UNL     1      -0.016   1.356   0.009  0.00  0.00    +0.167 A 
ATOM     10  N   UNL     1      -1.070   2.166   0.019  0.00  0.00    -0.152 NA
ATOM     11  C   UNL     1       4.809   0.558  -0.040  0.00  0.00    +0.045 C 
ATOM     12  C   UNL     1       2.906  -4.069  -0.049  0.00  0.00    +0.044 C 
ENDROOT
BRANCH  10  13
ATOM     13  C   UNL     1      -0.894   3.491   0.025  0.00  0.00    +0.269 C 
ATOM     14  O   UNL     1       0.232   3.956   0.022  0.00  0.00    -0.268 OA
BRANCH  13  15
ATOM     15  C   UNL     1      -2.068   4.394   0.036  0.00  0.00    +0.039 A 
ATOM     16  C   UNL     1      -3.359   3.864   0.034  0.00  0.00    +0.015 A 
ATOM     17  C   UNL     1      -4.449   4.710   0.050  0.00  0.00    +0.029 A 
ATOM     18  C   UNL     1      -4.264   6.081   0.056  0.00  0.00    +0.106 A 
ATOM     19  C   UNL     1      -2.986   6.613   0.052  0.00  0.00    +0.029 A 
ATOM     20  C   UNL     1      -1.888   5.777   0.043  0.00  0.00    +0.015 A 
BRANCH  18  21
ATOM     21  S   UNL     1      -5.661   7.155   0.069  0.00  0.00    +0.061 S 
ATOM     22  O   UNL     1      -6.739   6.412   0.621  0.00  0.00    -0.153 OA
ATOM     23  O   UNL     1      -5.221   8.387   0.624  0.00  0.00    -0.153 OA
BRANCH  21  24
ATOM     24  N   UNL     1      -6.057   7.462  -1.510  0.00  0.00    -0.176 NA
ATOM     25  C   UNL     1      -7.006   6.598  -2.225  0.00  0.00    +0.109 C 
ATOM     26  C   UNL     1      -6.352   6.116  -3.524  0.00  0.00    +0.017 C 
ATOM     27  C   UNL     1      -5.874   7.326  -4.329  0.00  0.00    +0.006 C 
ATOM     28  C   UNL     1      -4.829   8.099  -3.520  0.00  0.00    +0.002 C 
ATOM     29  C   UNL     1      -5.470   8.607  -2.220  0.00  0.00    +0.112 C 
ATOM     30  C   UNL     1      -4.327   9.289  -4.340  0.00  0.00    +0.009 C 
ENDBRANCH  21  24
ENDBRANCH  18  21
ENDBRANCH  13  15
ENDBRANCH  10  13
BRANCH   1  31
ATOM     31  C   UNL     1      -1.257  -0.753   0.009  0.00  0.00    +0.244 C 
BRANCH  31  32
ATOM     32  C   UNL     1      -1.702  -1.002  -1.409  0.00  0.00    +0.327 C 
ATOM     33  O   UNL     1      -1.036  -0.595  -2.331  0.00  0.00    -0.249 OA
BRANCH  32  34
ATOM     34  O   UNL     1      -2.839  -1.675  -1.647  0.00  0.00    -0.464 OA
BRANCH  34  36
ATOM     35  C   UNL     1      -4.520  -2.658  -3.110  0.00  0.00    +0.048 C 
ATOM     36  C   UNL     1      -3.206  -1.877  -3.037  0.00  0.00    +0.229 C 
ENDBRANCH  34  36
ENDBRANCH  32  34
ENDBRANCH  31  32
ENDBRANCH   1  31
TORSDOF 8
