REMARK  Name = ZINC10816616
REMARK  10 active torsions:
REMARK  status: ('A' for Active; 'I' for Inactive)
REMARK    1  A    between atoms: C_1  and  N_58
REMARK    2  A    between atoms: C_2  and  N_58
REMARK    3  A    between atoms: C_3  and  C_4
REMARK    4  A    between atoms: C_3  and  N_58
REMARK    5  A    between atoms: C_4  and  N_5
REMARK    6  A    between atoms: C_11  and  S_15
REMARK    7  A    between atoms: S_15  and  C_16
REMARK    8  A    between atoms: C_17  and  C_19
REMARK    9  A    between atoms: N_24  and  S_25
REMARK   10  A    between atoms: S_25  and  C_28
REMARK                            x       y       z     vdW  Elec       q    Type
REMARK                         _______ _______ _______ _____ _____    ______ ____
ROOT
ATOM      1  N   UNL     1      -6.260   3.193   2.399  0.00  0.00    -0.251 N 
ATOM      2  C   UNL     1      -7.498   3.196   1.776  0.00  0.00    +0.168 A 
ATOM      3  N   UNL     1      -8.595   2.566   2.123  0.00  0.00    -0.224 NA
ATOM      4  C   UNL     1      -9.744   2.665   1.417  0.00  0.00    +0.080 A 
ATOM      5  C   UNL     1     -10.988   2.047   1.685  0.00  0.00    +0.030 A 
ATOM      6  C   UNL     1     -12.057   2.244   0.869  0.00  0.00    +0.017 A 
ATOM      7  C   UNL     1     -11.972   3.057  -0.260  0.00  0.00    +0.009 A 
ATOM      8  C   UNL     1     -10.767   3.681  -0.556  0.00  0.00    +0.032 A 
ATOM      9  C   UNL     1      -9.687   3.485   0.267  0.00  0.00    +0.042 A 
ATOM     10  S   UNL     1      -8.003   4.053   0.291  0.00  0.00    -0.052 S 
ATOM     11  C   UNL     1      -5.242   3.908   1.879  0.00  0.00    +0.240 C 
ATOM     12  O   UNL     1      -5.433   4.627   0.922  0.00  0.00    -0.273 OA
ENDROOT
BRANCH  11  13
ATOM     13  C   UNL     1      -3.866   3.812   2.487  0.00  0.00    +0.166 C 
ATOM     14  C   UNL     1      -3.750   4.780   3.683  0.00  0.00    +0.031 C 
ATOM     15  C   UNL     1      -2.306   5.331   3.548  0.00  0.00    +0.019 C 
ATOM     16  C   UNL     1      -2.143   5.402   2.009  0.00  0.00    +0.110 C 
ATOM     17  N   UNL     1      -2.854   4.215   1.500  0.00  0.00    -0.164 NA
BRANCH  17  18
ATOM     18  S   UNL     1      -2.566   3.465   0.052  0.00  0.00    +0.068 S 
ATOM     19  O   UNL     1      -1.970   4.436  -0.797  0.00  0.00    -0.152 OA
ATOM     20  O   UNL     1      -3.761   2.780  -0.296  0.00  0.00    -0.152 OA
BRANCH  18  21
ATOM     21  C   UNL     1      -1.342   2.230   0.340  0.00  0.00    +0.143 A 
ATOM     22  C   UNL     1      -1.507   0.930   0.685  0.00  0.00    +0.036 A 
ATOM     23  C   UNL     1      -0.389   0.137   0.864  0.00  0.00    +0.010 A 
ATOM     24  C   UNL     1       0.839   0.681   0.678  0.00  0.00    +0.047 A 
ATOM     25  S   UNL     1       0.435   2.365   0.243  0.00  0.00    -0.077 S 
ENDBRANCH  18  21
ENDBRANCH  17  18
ENDBRANCH  11  13
BRANCH   7  26
ATOM     26  S   UNL     1     -13.377   3.291  -1.299  0.00  0.00    -0.129 S 
ATOM     27  C   UNL     1     -14.674   2.295  -0.513  0.00  0.00    +0.090 C 
ENDBRANCH   7  26
BRANCH   1  28
ATOM     28  C   UNL     1      -6.057   2.413   3.622  0.00  0.00    +0.097 C 
BRANCH  28  29
ATOM     29  C   UNL     1      -6.477   3.247   4.834  0.00  0.00    -0.060 C 
BRANCH  29  32
ATOM     30  C   UNL     1      -4.983   2.074   6.336  0.00  0.00    -0.097 C 
ATOM     31  C   UNL     1      -6.995   3.110   7.195  0.00  0.00    -0.097 C 
ATOM     32  N   UNL     1      -6.394   2.403   6.045  0.00  0.00    +0.377 N 
ATOM     33  H   UNL     1      -6.912   1.532   5.881  0.00  0.00    -0.083 HD
ENDBRANCH  29  32
ENDBRANCH  28  29
ENDBRANCH   1  28
TORSDOF 7
