REMARK  Name = ZINC66200734
REMARK  11 active torsions:
REMARK  status: ('A' for Active; 'I' for Inactive)
REMARK    1  A    between atoms: C_1  and  C_2
REMARK    2  A    between atoms: C_7  and  O_8
REMARK    3  A    between atoms: O_8  and  C_9
REMARK    4  A    between atoms: C_9  and  C_10
REMARK    5  A    between atoms: N_12  and  N_13
REMARK    6  A    between atoms: C_14  and  C_15
REMARK    7  A    between atoms: C_17  and  O_24
REMARK    8  A    between atoms: C_18  and  O_23
REMARK    9  A    between atoms: C_19  and  O_21
REMARK   10  A    between atoms: O_21  and  C_22
REMARK   11  A    between atoms: O_24  and  C_25
REMARK                            x       y       z     vdW  Elec       q    Type
REMARK                         _______ _______ _______ _____ _____    ______ ____
ROOT
ATOM      1  C   UNL     1      -1.046   1.013   4.254  0.00  0.00    +0.270 C 
ATOM      2  O   UNL     1       0.076   1.257   4.646  0.00  0.00    -0.270 OA
ATOM      3  N   UNL     1      -2.113   1.404   4.978  0.00  0.00    -0.204 N 
ATOM      4  H   UNL     1      -3.010   1.209   4.664  0.00  0.00    +0.177 HD
ENDROOT
BRANCH   3   5
ATOM      5  N   UNL     1      -1.927   2.093   6.183  0.00  0.00    -0.188 NA
ATOM      6  C   UNL     1      -2.955   2.470   6.880  0.00  0.00    +0.138 C 
BRANCH   6   7
ATOM      7  C   UNL     1      -2.759   3.195   8.149  0.00  0.00    +0.002 A 
ATOM      8  C   UNL     1      -1.468   3.482   8.599  0.00  0.00    +0.059 A 
ATOM      9  C   UNL     1      -1.287   4.163   9.790  0.00  0.00    +0.166 A 
ATOM     10  C   UNL     1      -2.390   4.562  10.539  0.00  0.00    +0.201 A 
ATOM     11  C   UNL     1      -3.677   4.277  10.093  0.00  0.00    +0.166 A 
ATOM     12  C   UNL     1      -3.864   3.602   8.901  0.00  0.00    +0.059 A 
BRANCH  11  13
ATOM     13  O   UNL     1      -4.752   4.668  10.829  0.00  0.00    -0.491 OA
ATOM     14  C   UNL     1      -6.044   4.343  10.312  0.00  0.00    +0.277 C 
ENDBRANCH  11  13
BRANCH  10  15
ATOM     15  O   UNL     1      -2.209   5.231  11.709  0.00  0.00    -0.501 OA
ATOM     16  H   UNL     1      -2.175   6.193  11.611  0.00  0.00    +0.292 HD
ENDBRANCH  10  15
BRANCH   9  17
ATOM     17  O   UNL     1      -0.031   4.442  10.229  0.00  0.00    -0.491 OA
ATOM     18  C   UNL     1       1.055   4.003   9.410  0.00  0.00    +0.277 C 
ENDBRANCH   9  17
ENDBRANCH   6   7
ENDBRANCH   3   5
BRANCH   1  19
ATOM     19  C   UNL     1      -1.246   0.272   2.957  0.00  0.00    +0.326 C 
BRANCH  19  20
ATOM     20  O   UNL     1       0.025  -0.032   2.381  0.00  0.00    -0.481 OA
BRANCH  20  27
ATOM     21  C   UNL     1      -0.018   1.503   0.010  0.00  0.00    +0.047 C 
ATOM     22  C   UNL     1       0.002  -0.004   0.002  0.00  0.00    -0.007 A 
ATOM     23  C   UNL     1       0.006  -0.689  -1.198  0.00  0.00    +0.022 A 
ATOM     24  C   UNL     1       0.024  -2.072  -1.207  0.00  0.00    +0.019 A 
ATOM     25  C   UNL     1       0.040  -2.773  -0.014  0.00  0.00    +0.034 A 
ATOM     26  C   UNL     1       0.035  -2.092   1.188  0.00  0.00    +0.061 A 
ATOM     27  C   UNL     1       0.023  -0.704   1.199  0.00  0.00    +0.138 A 
ATOM     28 BR   UNL     1       0.055  -3.051   2.818  0.00  0.00    -0.046 Br
ATOM     29 BR   UNL     1       0.029  -3.006  -2.851  0.00  0.00    -0.050 Br
ENDBRANCH  20  27
ENDBRANCH  19  20
ENDBRANCH   1  19
TORSDOF 8
