REMARK  Name = ZINC17028434
REMARK  1 active torsions:
REMARK  status: ('A' for Active; 'I' for Inactive)
REMARK    1  A    between atoms: C_15  and  C_24
REMARK                            x       y       z     vdW  Elec       q    Type
REMARK                         _______ _______ _______ _____ _____    ______ ____
ROOT
ATOM      1  C   UNL     1      -0.017   1.375   0.010  0.00  0.00    +0.000 A 
ATOM      2  C   UNL     1       1.173   2.079   0.002  0.00  0.00    +0.000 A 
ATOM      3  C   UNL     1       2.372   1.396  -0.019  0.00  0.00    +0.005 A 
ATOM      4  C   UNL     1       2.392   0.008  -0.029  0.00  0.00    -0.027 A 
ATOM      5  C   UNL     1       1.208  -0.695  -0.011  0.00  0.00    -0.041 A 
ATOM      6  C   UNL     1       0.002  -0.004   0.002  0.00  0.00    +0.004 A 
ATOM      7  C   UNL     1       1.151  -2.200   0.010  0.00  0.00    +0.054 C 
ATOM      8  C   UNL     1       2.465  -2.801  -0.485  0.00  0.00    +0.112 C 
ATOM      9  N   UNL     1       3.568  -2.109   0.202  0.00  0.00    -0.300 N 
ATOM     10  C   UNL     1       3.735  -0.676  -0.066  0.00  0.00    +0.143 C 
ATOM     11  C   UNL     1       4.400  -2.772   1.053  0.00  0.00    +0.175 C 
ATOM     12  N   UNL     1       4.227  -4.066   1.271  0.00  0.00    -0.150 NA
ATOM     13  C   UNL     1       5.016  -4.766   2.073  0.00  0.00    +0.258 C 
ATOM     14  O   UNL     1       4.789  -5.946   2.251  0.00  0.00    -0.272 OA
ATOM     15  C   UNL     1       6.191  -4.127   2.769  0.00  0.00    +0.202 C 
ATOM     16  C   UNL     1       5.902  -2.634   2.959  0.00  0.00    +0.058 C 
ATOM     17  N   UNL     1       5.414  -2.101   1.676  0.00  0.00    -0.312 N 
ATOM     18  C   UNL     1       7.183  -1.906   3.362  0.00  0.00    +0.027 C 
ATOM     19  C   UNL     1       6.889  -0.414   3.540  0.00  0.00    +0.002 C 
ATOM     20  C   UNL     1       5.827  -0.231   4.626  0.00  0.00    +0.000 C 
ATOM     21  C   UNL     1       4.544  -0.955   4.214  0.00  0.00    +0.002 C 
ATOM     22  C   UNL     1       4.836  -2.447   4.037  0.00  0.00    +0.027 C 
ATOM     23  H   UNL     1       5.798  -1.299   1.287  0.00  0.00    +0.149 HD
ENDROOT
BRANCH  15  24
ATOM     24  C   UNL     1       7.402  -4.296   1.949  0.00  0.00    +0.077 C 
ATOM     25  N   UNL     1       8.336  -4.427   1.316  0.00  0.00    -0.196 NA
ENDBRANCH  15  24
TORSDOF 1
