REMARK  Name = ZINC53994849
REMARK  9 active torsions:
REMARK  status: ('A' for Active; 'I' for Inactive)
REMARK    1  A    between atoms: C_1  and  C_2
REMARK    2  A    between atoms: C_2  and  O_3
REMARK    3  A    between atoms: O_3  and  C_4
REMARK    4  A    between atoms: C_4  and  C_6
REMARK    5  A    between atoms: C_6  and  O_7
REMARK    6  A    between atoms: O_7  and  C_8
REMARK    7  A    between atoms: C_10  and  C_20
REMARK    8  A    between atoms: C_14  and  C_19
REMARK    9  A    between atoms: C_16  and  C_18
REMARK                            x       y       z     vdW  Elec       q    Type
REMARK                         _______ _______ _______ _____ _____    ______ ____
ROOT
ATOM      1  C   UNL     1       1.958  -4.448  -3.562  0.00  0.00    +0.132 A 
ATOM      2  C   UNL     1       2.513  -3.765  -4.630  0.00  0.00    +0.067 A 
ATOM      3  C   UNL     1       3.109  -4.473  -5.666  0.00  0.00    +0.017 A 
ATOM      4  N   UNL     1       3.166  -5.784  -5.665  0.00  0.00    -0.358 N 
ATOM      5  C   UNL     1       2.650  -6.508  -4.665  0.00  0.00    +0.051 A 
ATOM      6  C   UNL     1       2.030  -5.859  -3.570  0.00  0.00    +0.043 A 
ATOM      7  C   UNL     1       1.496  -6.623  -2.522  0.00  0.00    -0.038 A 
ATOM      8  C   UNL     1       1.584  -7.982  -2.567  0.00  0.00    +0.007 A 
ATOM      9  C   UNL     1       2.199  -8.623  -3.640  0.00  0.00    -0.048 A 
ATOM     10  C   UNL     1       2.718  -7.912  -4.678  0.00  0.00    +0.029 A 
ATOM     11  C   UNL     1       2.280 -10.127  -3.657  0.00  0.00    +0.044 C 
ATOM     12  C   UNL     1       0.829  -5.945  -1.354  0.00  0.00    +0.044 C 
ATOM     13  C   UNL     1       3.708  -3.715  -6.822  0.00  0.00    +0.063 C 
ATOM     14  H   UNL     1       3.591  -6.240  -6.408  0.00  0.00    +0.166 HD
ENDROOT
BRANCH   1  15
ATOM     15  O   UNL     1       1.370  -3.784  -2.537  0.00  0.00    -0.480 OA
BRANCH  15  16
ATOM     16  C   UNL     1       1.345  -2.357  -2.618  0.00  0.00    +0.349 C 
BRANCH  16  17
ATOM     17  C   UNL     1       0.657  -1.797  -1.400  0.00  0.00    +0.345 C 
ATOM     18  O   UNL     1       0.231  -2.543  -0.550  0.00  0.00    -0.247 OA
BRANCH  17  19
ATOM     19  O   UNL     1       0.517  -0.469  -1.259  0.00  0.00    -0.463 OA
BRANCH  19  21
ATOM     20  C   UNL     1      -0.209   1.520  -0.095  0.00  0.00    +0.048 C 
ATOM     21  C   UNL     1      -0.145  -0.008  -0.080  0.00  0.00    +0.229 C 
ENDBRANCH  19  21
ENDBRANCH  17  19
ENDBRANCH  16  17
ENDBRANCH  15  16
ENDBRANCH   1  15
TORSDOF 5
