REMARK  Name = ZINC09848459
REMARK  13 active torsions:
REMARK  status: ('A' for Active; 'I' for Inactive)
REMARK    1  A    between atoms: C_1  and  C_2
REMARK    2  A    between atoms: C_2  and  C_3
REMARK    3  A    between atoms: N_5  and  C_17
REMARK    4  A    between atoms: C_12  and  C_16
REMARK    5  A    between atoms: C_17  and  C_19
REMARK    6  A    between atoms: C_17  and  C_21
REMARK    7  A    between atoms: C_19  and  C_20
REMARK    8  A    between atoms: N_23  and  C_24
REMARK    9  A    between atoms: C_24  and  C_25
REMARK   10  A    between atoms: C_25  and  C_26
REMARK   11  A    between atoms: C_26  and  N_27
REMARK   12  A    between atoms: C_29  and  C_36
REMARK   13  A    between atoms: C_32  and  C_35
REMARK                            x       y       z     vdW  Elec       q    Type
REMARK                         _______ _______ _______ _____ _____    ______ ____
ROOT
ATOM      1  C   UNL     1      -4.798   0.903   0.041  0.00  0.00    +0.196 C 
ENDROOT
BRANCH   1   4
ATOM      2  C   UNL     1      -1.412  -0.526   0.013  0.00  0.00    +0.135 A 
ATOM      3  N   UNL     1      -2.389   0.314   0.021  0.00  0.00    -0.154 NA
ATOM      4  N   UNL     1      -3.726  -0.096   0.031  0.00  0.00    -0.214 N 
ATOM      5  C   UNL     1      -4.029  -1.413   0.032  0.00  0.00    +0.292 A 
ATOM      6  O   UNL     1      -5.188  -1.790   0.040  0.00  0.00    -0.264 OA
ATOM      7  C   UNL     1      -2.924  -2.375   0.022  0.00  0.00    +0.118 A 
ATOM      8  N   UNL     1      -1.624  -1.891   0.007  0.00  0.00    -0.288 N 
ATOM      9  C   UNL     1      -0.769  -2.962  -0.006  0.00  0.00    +0.094 A 
ATOM     10  C   UNL     1       0.586  -3.373  -0.020  0.00  0.00    +0.071 A 
ATOM     11  C   UNL     1       0.593  -4.717  -0.027  0.00  0.00    +0.105 A 
ATOM     12  O   UNL     1      -0.673  -5.171  -0.018  0.00  0.00    -0.458 OA
ATOM     13  C   UNL     1      -1.530  -4.127  -0.005  0.00  0.00    +0.154 A 
ATOM     14  C   UNL     1      -2.878  -3.749   0.020  0.00  0.00    +0.080 A 
ATOM     15  C   UNL     1       1.827  -5.580  -0.043  0.00  0.00    +0.086 C 
BRANCH   2  17
ATOM     16  C   UNL     1      -0.019   1.526   0.010  0.00  0.00    +0.012 C 
ATOM     17  C   UNL     1       0.002  -0.004   0.002  0.00  0.00    +0.073 C 
ENDBRANCH   2  17
ENDBRANCH   1   4
BRANCH   1  18
ATOM     18  C   UNL     1      -4.691   1.767  -1.189  0.00  0.00    +0.238 C 
ATOM     19  O   UNL     1      -3.806   1.568  -1.995  0.00  0.00    -0.273 OA
ATOM     20  N   UNL     1      -5.578   2.760  -1.394  0.00  0.00    -0.314 N 
ATOM     21  H   UNL     1      -6.286   2.919  -0.750  0.00  0.00    +0.149 HD
BRANCH  20  22
ATOM     22  C   UNL     1      -5.474   3.601  -2.590  0.00  0.00    +0.102 C 
BRANCH  22  23
ATOM     23  C   UNL     1      -6.594   4.644  -2.579  0.00  0.00    +0.000 C 
BRANCH  23  24
ATOM     24  C   UNL     1      -6.485   5.521  -3.828  0.00  0.00    -0.077 C 
BRANCH  24  25
ATOM     25  N   UNL     1      -7.560   6.522  -3.818  0.00  0.00    +0.380 N 
ATOM     26  C   UNL     1      -8.858   5.845  -3.921  0.00  0.00    -0.076 C 
ATOM     27  C   UNL     1      -9.985   6.877  -3.829  0.00  0.00    -0.031 C 
ATOM     28  C   UNL     1      -9.841   7.884  -4.973  0.00  0.00    +0.003 C 
ATOM     29  C   UNL     1      -8.454   8.530  -4.900  0.00  0.00    -0.031 C 
ATOM     30  C   UNL     1      -7.384   7.437  -4.952  0.00  0.00    -0.076 C 
ATOM     31  C   UNL     1      -8.271   9.482  -6.084  0.00  0.00    +0.005 C 
ATOM     32  C   UNL     1      -9.899   7.609  -2.489  0.00  0.00    +0.005 C 
ATOM     33  H   UNL     1      -7.523   7.045  -2.956  0.00  0.00    -0.082 HD
ENDBRANCH  24  25
ENDBRANCH  23  24
ENDBRANCH  22  23
ENDBRANCH  20  22
ENDBRANCH   1  18
BRANCH   1  34
ATOM     34  C   UNL     1      -4.670   1.776   1.291  0.00  0.00    +0.033 C 
ATOM     35  C   UNL     1      -4.903   0.920   2.537  0.00  0.00    +0.006 C 
ENDBRANCH   1  34
TORSDOF 8
