REMARK  Name = ZINC09382671
REMARK  11 active torsions:
REMARK  status: ('A' for Active; 'I' for Inactive)
REMARK    1  A    between atoms: C_1  and  C_2
REMARK    2  A    between atoms: C_5  and  S_8
REMARK    3  A    between atoms: S_8  and  N_11
REMARK    4  A    between atoms: N_11  and  C_12
REMARK    5  A    between atoms: C_12  and  C_14
REMARK    6  A    between atoms: C_12  and  C_15
REMARK    7  A    between atoms: C_15  and  C_17
REMARK    8  A    between atoms: C_15  and  N_64
REMARK    9  A    between atoms: N_24  and  C_27
REMARK   10  A    between atoms: C_30  and  O_33
REMARK   11  A    between atoms: O_33  and  C_34
REMARK                            x       y       z     vdW  Elec       q    Type
REMARK                         _______ _______ _______ _____ _____    ______ ____
ROOT
ATOM      1  C   UNL     1       1.662   7.549  -1.035  0.00  0.00    -0.012 C 
ENDROOT
BRANCH   1   7
ATOM      2  C   UNL     1       2.589   5.857   0.429  0.00  0.00    -0.059 C 
ATOM      3  C   UNL     1       2.940   4.371   0.532  0.00  0.00    +0.086 C 
ATOM      4  N   UNL     1       1.717   3.570   0.383  0.00  0.00    -0.333 N 
ATOM      5  C   UNL     1       1.075   3.830  -0.912  0.00  0.00    +0.086 C 
ATOM      6  C   UNL     1       0.724   5.316  -1.015  0.00  0.00    -0.059 C 
ATOM      7  N   UNL     1       1.965   6.109  -0.886  0.00  0.00    +0.388 N 
ATOM      8  H   UNL     1       2.619   5.828  -1.626  0.00  0.00    -0.081 HD
BRANCH   4   9
ATOM      9  C   UNL     1       1.988   2.206   0.544  0.00  0.00    +0.030 A 
ATOM     10  C   UNL     1       0.962   1.277   0.440  0.00  0.00    +0.027 A 
ATOM     11  C   UNL     1       1.230  -0.069   0.598  0.00  0.00    +0.047 A 
ATOM     12  C   UNL     1       2.525  -0.492   0.860  0.00  0.00    +0.120 A 
ATOM     13  C   UNL     1       3.551   0.436   0.964  0.00  0.00    +0.047 A 
ATOM     14  C   UNL     1       3.284   1.782   0.807  0.00  0.00    +0.027 A 
BRANCH  12  15
ATOM     15  O   UNL     1       2.789  -1.817   1.015  0.00  0.00    -0.495 OA
ATOM     16  C   UNL     1       4.144  -2.182   1.282  0.00  0.00    +0.277 C 
ENDBRANCH  12  15
ENDBRANCH   4   9
ENDBRANCH   1   7
BRANCH   1  17
ATOM     17  C   UNL     1       0.827   8.034   0.122  0.00  0.00    -0.022 A 
ATOM     18  C   UNL     1       1.005   9.127   0.904  0.00  0.00    +0.009 A 
ATOM     19  C   UNL     1       0.101   9.381   1.917  0.00  0.00    +0.008 A 
ATOM     20  C   UNL     1      -0.932   8.524   2.107  0.00  0.00    +0.045 A 
ATOM     21  S   UNL     1      -0.648   7.315   0.824  0.00  0.00    -0.103 S 
ENDBRANCH   1  17
BRANCH   1  22
ATOM     22  C   UNL     1       0.898   7.766  -2.342  0.00  0.00    +0.065 C 
ATOM     23  C   UNL     1       1.745   7.273  -3.517  0.00  0.00    +0.024 C 
BRANCH  22  24
ATOM     24  N   UNL     1       0.614   9.194  -2.510  0.00  0.00    -0.188 NA
ATOM     25  H   UNL     1       1.255   9.855  -2.204  0.00  0.00    +0.148 HD
BRANCH  24  26
ATOM     26  S   UNL     1      -0.801   9.679  -3.221  0.00  0.00    +0.059 S 
ATOM     27  O   UNL     1      -0.793  11.100  -3.214  0.00  0.00    -0.153 OA
ATOM     28  O   UNL     1      -0.933   8.924  -4.418  0.00  0.00    -0.153 OA
BRANCH  26  33
ATOM     29  C   UNL     1      -5.304   7.961   0.409  0.00  0.00    +0.044 C 
ATOM     30  C   UNL     1      -4.179   8.390  -0.498  0.00  0.00    -0.050 A 
ATOM     31  C   UNL     1      -3.595   9.633  -0.335  0.00  0.00    +0.005 A 
ATOM     32  C   UNL     1      -2.564  10.026  -1.167  0.00  0.00    +0.029 A 
ATOM     33  C   UNL     1      -2.115   9.177  -2.161  0.00  0.00    +0.105 A 
ATOM     34  C   UNL     1      -2.703   7.937  -2.328  0.00  0.00    +0.029 A 
ATOM     35  C   UNL     1      -3.731   7.541  -1.493  0.00  0.00    +0.005 A 
ENDBRANCH  26  33
ENDBRANCH  24  26
ENDBRANCH  22  24
ENDBRANCH   1  22
TORSDOF 8
