REMARK  Name = ZINC58510908
REMARK  10 active torsions:
REMARK  status: ('A' for Active; 'I' for Inactive)
REMARK    1  A    between atoms: C_1  and  C_2
REMARK    2  A    between atoms: C_2  and  N_3
REMARK    3  A    between atoms: N_3  and  C_4
REMARK    4  A    between atoms: N_3  and  C_6
REMARK    5  A    between atoms: C_4  and  C_5
REMARK    6  A    between atoms: C_6  and  C_7
REMARK    7  A    between atoms: C_7  and  N_8
REMARK    8  A    between atoms: N_17  and  C_18
REMARK    9  A    between atoms: C_18  and  C_20
REMARK   10  A    between atoms: C_22  and  C_25
REMARK                            x       y       z     vdW  Elec       q    Type
REMARK                         _______ _______ _______ _____ _____    ______ ____
ROOT
ATOM      1  N   UNL     1      -0.610  -3.775   2.103  0.00  0.00    -0.314 N 
ATOM      2  C   UNL     1      -1.570  -4.481   2.820  0.00  0.00    +0.068 A 
ATOM      3  C   UNL     1      -2.765  -4.110   3.422  0.00  0.00    +0.028 A 
ATOM      4  C   UNL     1      -3.526  -5.055   4.080  0.00  0.00    +0.002 A 
ATOM      5  C   UNL     1      -3.102  -6.372   4.143  0.00  0.00    +0.002 A 
ATOM      6  C   UNL     1      -1.916  -6.752   3.548  0.00  0.00    +0.028 A 
ATOM      7  C   UNL     1      -1.144  -5.809   2.883  0.00  0.00    +0.066 A 
ATOM      8  N   UNL     1       0.067  -5.883   2.203  0.00  0.00    -0.326 N 
ATOM      9  C   UNL     1       0.369  -4.643   1.734  0.00  0.00    +0.201 A 
ATOM     10  N   UNL     1       1.451  -4.329   1.030  0.00  0.00    -0.141 NA
ATOM     11  H   UNL     1       0.602  -6.683   2.081  0.00  0.00    +0.169 HD
ENDROOT
BRANCH  10  12
ATOM     12  C   UNL     1       2.286  -5.290   0.624  0.00  0.00    +0.292 C 
ATOM     13  O   UNL     1       2.009  -6.460   0.817  0.00  0.00    -0.266 OA
BRANCH  12  14
ATOM     14  C   UNL     1       3.553  -4.931  -0.064  0.00  0.00    +0.170 A 
ATOM     15  C   UNL     1       4.518  -5.837  -0.548  0.00  0.00    +0.086 A 
ATOM     16  C   UNL     1       5.527  -5.114  -1.111  0.00  0.00    +0.174 A 
ATOM     17  O   UNL     1       5.217  -3.809  -0.990  0.00  0.00    -0.353 OA
ATOM     18  N   UNL     1       3.966  -3.715  -0.332  0.00  0.00    -0.073 NA
BRANCH  16  19
ATOM     19  C   UNL     1       6.739  -5.661  -1.738  0.00  0.00    +0.057 A 
ATOM     20  C   UNL     1       7.799  -4.990  -2.320  0.00  0.00    +0.019 A 
ATOM     21  C   UNL     1       8.832  -5.729  -2.847  0.00  0.00    +0.008 A 
ATOM     22  C   UNL     1       8.780  -7.085  -2.781  0.00  0.00    +0.046 A 
ATOM     23  S   UNL     1       7.230  -7.366  -1.941  0.00  0.00    -0.093 S 
ENDBRANCH  16  19
ENDBRANCH  12  14
ENDBRANCH  10  12
BRANCH   1  24
ATOM     24  C   UNL     1      -0.649  -2.344   1.794  0.00  0.00    +0.106 C 
BRANCH  24  25
ATOM     25  C   UNL     1      -1.375  -2.130   0.464  0.00  0.00    -0.057 C 
BRANCH  25  26
ATOM     26  N   UNL     1      -1.415  -0.694   0.153  0.00  0.00    +0.380 N 
ATOM     27  H   UNL     1      -1.832  -0.195   0.924  0.00  0.00    -0.082 HD
BRANCH  26  29
ATOM     28  C   UNL     1      -0.075   1.316  -0.249  0.00  0.00    -0.017 C 
ATOM     29  C   UNL     1      -0.048  -0.203  -0.066  0.00  0.00    -0.082 C 
ENDBRANCH  26  29
BRANCH  26  30
ATOM     30  C   UNL     1      -2.214  -0.478  -1.060  0.00  0.00    -0.082 C 
ATOM     31  C   UNL     1      -3.671  -0.857  -0.786  0.00  0.00    -0.017 C 
ENDBRANCH  26  30
ENDBRANCH  25  26
ENDBRANCH  24  25
ENDBRANCH   1  24
TORSDOF 8
