REMARK  Name = ZINC12477788
REMARK  15 active torsions:
REMARK  status: ('A' for Active; 'I' for Inactive)
REMARK    1  A    between atoms: C_1  and  C_2
REMARK    2  A    between atoms: C_5  and  C_7
REMARK    3  A    between atoms: N_10  and  C_12
REMARK    4  A    between atoms: C_12  and  C_13
REMARK    5  A    between atoms: N_15  and  C_16
REMARK    6  A    between atoms: N_15  and  C_22
REMARK    7  A    between atoms: C_16  and  C_17
REMARK    8  A    between atoms: C_22  and  C_24
REMARK    9  A    between atoms: C_22  and  C_32
REMARK   10  A    between atoms: C_27  and  O_30
REMARK   11  A    between atoms: O_30  and  C_31
REMARK   12  A    between atoms: N_34  and  C_35
REMARK   13  A    between atoms: C_35  and  C_36
REMARK   14  A    between atoms: C_35  and  C_37
REMARK   15  A    between atoms: C_35  and  C_38
REMARK                            x       y       z     vdW  Elec       q    Type
REMARK                         _______ _______ _______ _____ _____    ______ ____
ROOT
ATOM      1  C   UNL     1      -4.628   0.308   0.380  0.00  0.00    +0.240 C 
ATOM      2  O   UNL     1      -4.961  -0.411   1.298  0.00  0.00    -0.273 OA
ATOM      3  N   UNL     1      -4.059   1.504   0.633  0.00  0.00    -0.279 N 
ENDROOT
BRANCH   1   4
ATOM      4  C   UNL     1      -4.849  -0.134  -1.043  0.00  0.00    +0.264 C 
BRANCH   4   8
ATOM      5  C   UNL     1      -5.742  -3.549  -1.067  0.00  0.00    +0.239 A 
ATOM      6  N   UNL     1      -6.946  -2.955  -1.057  0.00  0.00    -0.105 NA
ATOM      7  N   UNL     1      -6.743  -1.682  -1.047  0.00  0.00    -0.045 NA
ATOM      8  N   UNL     1      -5.476  -1.458  -1.050  0.00  0.00    -0.154 N 
ATOM      9  N   UNL     1      -4.844  -2.582  -1.067  0.00  0.00    -0.127 NA
BRANCH   5  14
ATOM     10  C   UNL     1      -3.276  -7.922  -1.109  0.00  0.00    +0.086 C 
ATOM     11  C   UNL     1      -4.400  -6.919  -1.098  0.00  0.00    +0.103 A 
ATOM     12  C   UNL     1      -5.715  -7.212  -1.095  0.00  0.00    +0.045 A 
ATOM     13  C   UNL     1      -6.412  -5.987  -1.077  0.00  0.00    +0.053 A 
ATOM     14  C   UNL     1      -5.474  -5.004  -1.079  0.00  0.00    +0.175 A 
ATOM     15  O   UNL     1      -4.258  -5.583  -1.088  0.00  0.00    -0.457 OA
ENDBRANCH   5  14
ENDBRANCH   4   8
ENDBRANCH   1   4
BRANCH   3  16
ATOM     16  C   UNL     1      -3.657   2.373  -0.475  0.00  0.00    +0.151 C 
BRANCH  16  17
ATOM     17  C   UNL     1      -2.311   1.937  -0.993  0.00  0.00    +0.007 A 
ATOM     18  C   UNL     1      -2.021   1.121  -2.036  0.00  0.00    +0.013 A 
ATOM     19  C   UNL     1      -0.697   0.861  -2.336  0.00  0.00    +0.008 A 
ATOM     20  C   UNL     1       0.272   1.425  -1.575  0.00  0.00    +0.045 A 
ATOM     21  S   UNL     1      -0.684   2.357  -0.391  0.00  0.00    -0.100 S 
ENDBRANCH  16  17
ENDBRANCH   3  16
BRANCH   3  22
ATOM     22  C   UNL     1      -3.844   1.935   2.017  0.00  0.00    +0.193 C 
BRANCH  22  23
ATOM     23  C   UNL     1      -5.176   2.132   2.695  0.00  0.00    -0.018 A 
ATOM     24  C   UNL     1      -6.186   2.816   2.045  0.00  0.00    +0.009 A 
ATOM     25  C   UNL     1      -7.410   2.993   2.662  0.00  0.00    +0.046 A 
ATOM     26  C   UNL     1      -7.620   2.493   3.939  0.00  0.00    +0.120 A 
ATOM     27  C   UNL     1      -6.603   1.811   4.591  0.00  0.00    +0.046 A 
ATOM     28  C   UNL     1      -5.383   1.632   3.967  0.00  0.00    +0.009 A 
BRANCH  26  29
ATOM     29  O   UNL     1      -8.820   2.671   4.551  0.00  0.00    -0.495 OA
ATOM     30  C   UNL     1      -9.822   3.383   3.820  0.00  0.00    +0.277 C 
ENDBRANCH  26  29
ENDBRANCH  22  23
BRANCH  22  31
ATOM     31  C   UNL     1      -3.079   3.233   2.026  0.00  0.00    +0.238 C 
ATOM     32  O   UNL     1      -2.009   3.310   1.461  0.00  0.00    -0.273 OA
ATOM     33  N   UNL     1      -3.585   4.309   2.662  0.00  0.00    -0.309 N 
ATOM     34  H   UNL     1      -4.441   4.247   3.114  0.00  0.00    +0.149 HD
BRANCH  33  35
ATOM     35  C   UNL     1      -2.841   5.571   2.670  0.00  0.00    +0.026 C 
ATOM     36  C   UNL     1      -2.638   6.053   1.232  0.00  0.00    +0.031 C 
ATOM     37  C   UNL     1      -3.630   6.622   3.454  0.00  0.00    +0.031 C 
ATOM     38  C   UNL     1      -1.479   5.356   3.333  0.00  0.00    +0.031 C 
ENDBRANCH  33  35
ENDBRANCH  22  31
ENDBRANCH   3  22
TORSDOF 10
