REMARK  Name = ZINC12537880
REMARK  6 active torsions:
REMARK  status: ('A' for Active; 'I' for Inactive)
REMARK    1  A    between atoms: C_4  and  S_11
REMARK    2  A    between atoms: C_5  and  C_7
REMARK    3  A    between atoms: S_11  and  N_14
REMARK    4  A    between atoms: C_17  and  C_20
REMARK    5  A    between atoms: N_22  and  N_23
REMARK    6  A    between atoms: C_24  and  C_26
REMARK                            x       y       z     vdW  Elec       q    Type
REMARK                         _______ _______ _______ _____ _____    ______ ____
ROOT
ATOM      1  N   UNL     1       0.644   1.529  -0.090  0.00  0.00    -0.177 NA
ATOM      2  C   UNL     1      -0.562   2.367  -0.045  0.00  0.00    +0.110 C 
ATOM      3  C   UNL     1      -0.406   3.386   1.094  0.00  0.00    +0.030 C 
ATOM      4  C   UNL     1       0.895   4.167   0.898  0.00  0.00    +0.079 C 
ATOM      5  C   UNL     1       2.083   3.204   0.948  0.00  0.00    +0.030 C 
ATOM      6  C   UNL     1       1.956   2.183  -0.188  0.00  0.00    +0.110 C 
ENDROOT
BRANCH   4   7
ATOM      7  C   UNL     1       1.034   5.194   1.992  0.00  0.00    +0.232 C 
ATOM      8  O   UNL     1       1.990   5.159   2.739  0.00  0.00    -0.274 OA
ATOM      9  N   UNL     1       0.097   6.151   2.142  0.00  0.00    -0.234 N 
ATOM     10  H   UNL     1      -0.667   6.179   1.545  0.00  0.00    +0.173 HD
BRANCH   9  11
ATOM     11  N   UNL     1       0.227   7.105   3.159  0.00  0.00    -0.234 N 
ATOM     12  C   UNL     1      -0.710   8.063   3.309  0.00  0.00    +0.235 C 
ATOM     13  O   UNL     1      -1.665   8.098   2.562  0.00  0.00    -0.274 OA
ATOM     14  H   UNL     1       0.991   7.077   3.756  0.00  0.00    +0.173 HD
BRANCH  12  15
ATOM     15  C   UNL     1      -0.570   9.089   4.403  0.00  0.00    +0.049 C 
ATOM     16  C   UNL     1      -0.541   8.385   5.762  0.00  0.00    +0.019 C 
ATOM     17  C   UNL     1      -0.399   9.428   6.873  0.00  0.00    -0.009 C 
ATOM     18  C   UNL     1      -1.587  10.391   6.823  0.00  0.00    +0.007 C 
ATOM     19  C   UNL     1      -1.617  11.094   5.465  0.00  0.00    -0.009 C 
ATOM     20  C   UNL     1      -1.758  10.052   4.354  0.00  0.00    +0.019 C 
ATOM     21  C   UNL     1      -0.317  11.877   5.268  0.00  0.00    +0.007 C 
ATOM     22  C   UNL     1       0.871  10.914   5.317  0.00  0.00    -0.009 C 
ATOM     23  C   UNL     1       0.901  10.210   6.676  0.00  0.00    +0.007 C 
ATOM     24  C   UNL     1       0.730   9.872   4.206  0.00  0.00    +0.019 C 
ENDBRANCH  12  15
ENDBRANCH   9  11
ENDBRANCH   4   7
BRANCH   1  25
ATOM     25  S   UNL     1       0.526  -0.122  -0.040  0.00  0.00    +0.061 S 
ATOM     26  O   UNL     1      -0.715  -0.460  -0.644  0.00  0.00    -0.153 OA
ATOM     27  O   UNL     1       1.766  -0.632  -0.510  0.00  0.00    -0.153 OA
BRANCH  25  31
ATOM     28  C   UNL     1       0.208  -1.309   4.317  0.00  0.00    +0.001 A 
ATOM     29  C   UNL     1       0.592  -0.025   3.977  0.00  0.00    +0.002 A 
ATOM     30  C   UNL     1       0.694   0.336   2.646  0.00  0.00    +0.029 A 
ATOM     31  C   UNL     1       0.402  -0.584   1.656  0.00  0.00    +0.117 A 
ATOM     32  C   UNL     1       0.019  -1.867   1.997  0.00  0.00    +0.081 A 
ATOM     33  C   UNL     1      -0.078  -2.230   3.327  0.00  0.00    +0.014 A 
BRANCH  32  34
ATOM     34  C   UNL     1      -0.293  -2.872   0.917  0.00  0.00    +0.419 C 
ATOM     35  F   UNL     1      -0.513  -4.126   1.497  0.00  0.00    -0.166 F 
ATOM     36  F   UNL     1      -1.441  -2.470   0.225  0.00  0.00    -0.166 F 
ATOM     37  F   UNL     1       0.784  -2.951   0.029  0.00  0.00    -0.166 F 
ENDBRANCH  32  34
ENDBRANCH  25  31
ENDBRANCH   1  25
TORSDOF 6
