REMARK  Name = ZINC40314609
REMARK  12 active torsions:
REMARK  status: ('A' for Active; 'I' for Inactive)
REMARK    1  A    between atoms: C_1  and  C_2
REMARK    2  A    between atoms: C_9  and  N_22
REMARK    3  A    between atoms: C_10  and  C_11
REMARK    4  A    between atoms: N_13  and  C_14
REMARK    5  A    between atoms: N_22  and  C_23
REMARK    6  A    between atoms: C_23  and  C_24
REMARK    7  A    between atoms: C_24  and  C_26
REMARK    8  A    between atoms: C_24  and  O_36
REMARK    9  A    between atoms: C_26  and  O_27
REMARK   10  A    between atoms: O_27  and  C_28
REMARK   11  A    between atoms: C_33  and  O_34
REMARK   12  A    between atoms: O_34  and  C_35
REMARK                            x       y       z     vdW  Elec       q    Type
REMARK                         _______ _______ _______ _____ _____    ______ ____
ROOT
ATOM      1  C   UNL     1      -0.019   1.526   0.010  0.00  0.00    +0.008 C 
ATOM      2  C   UNL     1       0.002  -0.004   0.002  0.00  0.00    -0.009 C 
ATOM      3  C   UNL     1       0.724  -0.500  -1.254  0.00  0.00    +0.008 C 
ATOM      4  C   UNL     1       0.537  -2.012  -1.398  0.00  0.00    +0.037 C 
ATOM      5  C   UNL     1       0.936  -2.680  -0.090  0.00  0.00    -0.023 A 
ATOM      6  C   UNL     1       1.020  -1.977   1.059  0.00  0.00    -0.004 A 
ATOM      7  S   UNL     1       1.508  -3.164   2.276  0.00  0.00    -0.078 S 
ATOM      8  C   UNL     1       1.601  -4.539   1.317  0.00  0.00    +0.078 A 
ATOM      9  C   UNL     1       1.255  -4.091   0.050  0.00  0.00    +0.068 A 
ATOM     10  C   UNL     1       0.750  -0.515   1.242  0.00  0.00    +0.046 C 
ENDROOT
BRANCH   9  11
ATOM     11  C   UNL     1       1.215  -5.001  -1.096  0.00  0.00    +0.247 C 
ATOM     12  O   UNL     1       2.211  -5.170  -1.775  0.00  0.00    -0.270 OA
ATOM     13  N   UNL     1       0.074  -5.652  -1.400  0.00  0.00    -0.307 N 
ATOM     14  H   UNL     1      -0.720  -5.517  -0.860  0.00  0.00    +0.149 HD
BRANCH  13  15
ATOM     15  C   UNL     1       0.033  -6.562  -2.547  0.00  0.00    +0.096 C 
ATOM     16  C   UNL     1      -0.289  -5.772  -3.826  0.00  0.00    +0.046 C 
ATOM     17  C   UNL     1      -0.649  -6.747  -4.973  0.00  0.00    +0.168 C 
ATOM     18  S   UNL     1      -1.336  -8.195  -4.071  0.00  0.00    -0.029 S 
ATOM     19  O   UNL     1      -0.507  -9.324  -4.308  0.00  0.00    -0.174 OA
ATOM     20  O   UNL     1      -2.730  -8.284  -4.332  0.00  0.00    -0.174 OA
ATOM     21  C   UNL     1      -1.086  -7.621  -2.338  0.00  0.00    +0.188 C 
ENDBRANCH  13  15
ENDBRANCH   9  11
BRANCH   8  22
ATOM     22  N   UNL     1       1.942  -5.822   1.701  0.00  0.00    -0.335 N 
ATOM     23  H   UNL     1       1.959  -6.536   1.046  0.00  0.00    +0.147 HD
BRANCH  22  24
ATOM     24  C   UNL     1       2.280  -6.102   3.099  0.00  0.00    +0.136 C 
BRANCH  24  25
ATOM     25  C   UNL     1       2.617  -7.586   3.254  0.00  0.00    +0.169 C 
BRANCH  25  26
ATOM     26  O   UNL     1       1.489  -8.374   2.869  0.00  0.00    -0.387 OA
ATOM     27  H   UNL     1       0.694  -8.206   3.393  0.00  0.00    +0.210 HD
ENDBRANCH  25  26
BRANCH  25  28
ATOM     28  C   UNL     1       2.969  -7.880   4.714  0.00  0.00    +0.262 C 
BRANCH  28  29
ATOM     29  O   UNL     1       3.397  -9.238   4.838  0.00  0.00    -0.486 OA
BRANCH  29  30
ATOM     30  C   UNL     1       3.749  -9.663   6.080  0.00  0.00    +0.162 A 
ATOM     31  C   UNL     1       3.679  -8.795   7.157  0.00  0.00    +0.049 A 
ATOM     32  C   UNL     1       4.037  -9.229   8.420  0.00  0.00    +0.004 A 
ATOM     33  C   UNL     1       4.466 -10.530   8.611  0.00  0.00    +0.004 A 
ATOM     34  C   UNL     1       4.538 -11.401   7.540  0.00  0.00    +0.049 A 
ATOM     35  C   UNL     1       4.175 -10.974   6.273  0.00  0.00    +0.161 A 
BRANCH  35  36
ATOM     36  O   UNL     1       4.240 -11.832   5.220  0.00  0.00    -0.491 OA
ATOM     37  C   UNL     1       4.687 -13.161   5.493  0.00  0.00    +0.277 C 
ENDBRANCH  35  36
ENDBRANCH  29  30
ENDBRANCH  28  29
ENDBRANCH  25  28
ENDBRANCH  24  25
ENDBRANCH  22  24
ENDBRANCH   8  22
TORSDOF 10
