REMARK  Name = ZINC16567636
REMARK  10 active torsions:
REMARK  status: ('A' for Active; 'I' for Inactive)
REMARK    1  A    between atoms: C_1  and  C_2
REMARK    2  A    between atoms: C_6  and  C_8
REMARK    3  A    between atoms: C_8  and  S_9
REMARK    4  A    between atoms: S_9  and  C_10
REMARK    5  A    between atoms: C_13  and  C_24
REMARK    6  A    between atoms: N_14  and  C_15
REMARK    7  A    between atoms: C_18  and  N_21
REMARK    8  A    between atoms: C_24  and  C_26
REMARK    9  A    between atoms: C_24  and  N_27
REMARK   10  A    between atoms: C_28  and  C_30
REMARK                            x       y       z     vdW  Elec       q    Type
REMARK                         _______ _______ _______ _____ _____    ______ ____
ROOT
ATOM      1  C   UNL     1      -0.116   7.695  -1.375  0.00  0.00    +0.196 A 
ATOM      2  N   UNL     1      -0.118   8.286  -0.203  0.00  0.00    -0.122 NA
ATOM      3  N   UNL     1      -0.132   9.562  -0.356  0.00  0.00    -0.131 NA
ATOM      4  C   UNL     1      -0.148   9.862  -1.624  0.00  0.00    +0.159 A 
ATOM      5  N   UNL     1      -0.138   8.683  -2.321  0.00  0.00    -0.273 N 
ENDROOT
BRANCH   5   6
ATOM      6  C   UNL     1      -0.150   8.522  -3.715  0.00  0.00    +0.050 A 
ATOM      7  C   UNL     1       0.923   8.967  -4.475  0.00  0.00    +0.028 A 
ATOM      8  C   UNL     1       0.911   8.803  -5.846  0.00  0.00    +0.035 A 
ATOM      9  C   UNL     1      -0.173   8.206  -6.463  0.00  0.00    +0.126 A 
ATOM     10  C   UNL     1      -1.246   7.767  -5.709  0.00  0.00    +0.035 A 
ATOM     11  C   UNL     1      -1.237   7.923  -4.336  0.00  0.00    +0.028 A 
BRANCH   9  12
ATOM     12  N   UNL     1      -0.186   8.037  -7.933  0.00  0.00    +0.056 N 
ATOM     13  O   UNL     1      -1.141   7.511  -8.478  0.00  0.00    -0.126 OA
ATOM     14  O   UNL     1       0.758   8.423  -8.599  0.00  0.00    -0.126 OA
ENDBRANCH   9  12
ENDBRANCH   5   6
BRANCH   4  15
ATOM     15  C   UNL     1      -0.172  11.248  -2.214  0.00  0.00    +0.138 C 
ATOM     16  C   UNL     1       1.214  11.883  -2.083  0.00  0.00    +0.036 C 
BRANCH  15  17
ATOM     17  N   UNL     1      -1.153  12.067  -1.497  0.00  0.00    -0.305 N 
ATOM     18  C   UNL     1      -1.722  13.125  -2.107  0.00  0.00    +0.220 C 
ATOM     19  O   UNL     1      -1.422  13.400  -3.249  0.00  0.00    -0.275 OA
ATOM     20  H   UNL     1      -1.393  11.847  -0.583  0.00  0.00    +0.149 HD
BRANCH  18  21
ATOM     21  C   UNL     1      -2.732  13.967  -1.369  0.00  0.00    +0.048 C 
ATOM     22  C   UNL     1      -2.081  14.566  -0.120  0.00  0.00    +0.019 C 
ATOM     23  C   UNL     1      -3.106  15.420   0.628  0.00  0.00    -0.009 C 
ATOM     24  C   UNL     1      -3.593  16.548  -0.283  0.00  0.00    +0.007 C 
ATOM     25  C   UNL     1      -4.243  15.950  -1.532  0.00  0.00    -0.009 C 
ATOM     26  C   UNL     1      -3.219  15.095  -2.281  0.00  0.00    +0.019 C 
ATOM     27  C   UNL     1      -5.431  15.078  -1.121  0.00  0.00    +0.007 C 
ATOM     28  C   UNL     1      -4.944  13.950  -0.209  0.00  0.00    -0.009 C 
ATOM     29  C   UNL     1      -4.294  14.548   1.040  0.00  0.00    +0.007 C 
ATOM     30  C   UNL     1      -3.920  13.095  -0.958  0.00  0.00    +0.019 C 
ENDBRANCH  18  21
ENDBRANCH  15  17
ENDBRANCH   4  15
BRANCH   1  31
ATOM     31  S   UNL     1      -0.095   5.958  -1.674  0.00  0.00    -0.081 S 
BRANCH  31  32
ATOM     32  C   UNL     1      -0.070   5.347   0.030  0.00  0.00    +0.112 C 
BRANCH  32  38
ATOM     33  C   UNL     1      -2.514   0.980   0.019  0.00  0.00    +0.044 C 
ATOM     34  C   UNL     1      -1.219   1.751   0.017  0.00  0.00    -0.050 A 
ATOM     35  C   UNL     1      -0.013   1.076   0.008  0.00  0.00    +0.003 A 
ATOM     36  C   UNL     1       1.175   1.783   0.000  0.00  0.00    +0.001 A 
ATOM     37  C   UNL     1       1.156   3.166   0.008  0.00  0.00    +0.004 A 
ATOM     38  C   UNL     1      -0.050   3.840   0.022  0.00  0.00    -0.037 A 
ATOM     39  C   UNL     1      -1.238   3.133   0.030  0.00  0.00    +0.007 A 
ENDBRANCH  32  38
ENDBRANCH  31  32
ENDBRANCH   1  31
TORSDOF 8
