REMARK  Name = ZINC45726243
REMARK  5 active torsions:
REMARK  status: ('A' for Active; 'I' for Inactive)
REMARK    1  A    between atoms: C_1  and  C_2
REMARK    2  A    between atoms: C_2  and  C_29
REMARK    3  A    between atoms: N_5  and  C_9
REMARK    4  A    between atoms: C_9  and  C_10
REMARK    5  A    between atoms: C_23  and  C_25
REMARK                            x       y       z     vdW  Elec       q    Type
REMARK                         _______ _______ _______ _____ _____    ______ ____
ROOT
ATOM      1  C   UNL     1      -2.585  -3.391   1.260  0.00  0.00    +0.238 C 
ATOM      2  O   UNL     1      -1.707  -3.759   0.508  0.00  0.00    -0.273 OA
ATOM      3  N   UNL     1      -3.573  -4.239   1.608  0.00  0.00    -0.256 N 
ATOM      4  C   UNL     1      -4.597  -3.825   2.471  0.00  0.00    +0.058 A 
ATOM      5  C   UNL     1      -5.568  -2.936   2.041  0.00  0.00    +0.025 A 
ATOM      6  C   UNL     1      -6.583  -2.557   2.901  0.00  0.00    +0.002 A 
ATOM      7  C   UNL     1      -6.633  -3.064   4.187  0.00  0.00    +0.002 A 
ATOM      8  C   UNL     1      -5.662  -3.945   4.627  0.00  0.00    +0.025 A 
ATOM      9  C   UNL     1      -4.636  -4.320   3.776  0.00  0.00    +0.055 A 
ATOM     10  N   UNL     1      -3.612  -5.166   4.216  0.00  0.00    -0.284 N 
ATOM     11  C   UNL     1      -3.234  -6.229   3.472  0.00  0.00    +0.219 C 
ATOM     12  O   UNL     1      -2.291  -6.906   3.824  0.00  0.00    -0.275 OA
ATOM     13  C   UNL     1      -3.976  -6.579   2.209  0.00  0.00    +0.128 C 
ATOM     14  C   UNL     1      -3.601  -5.606   1.085  0.00  0.00    +0.194 C 
ATOM     15  H   UNL     1      -3.170  -4.989   5.061  0.00  0.00    +0.155 HD
ENDROOT
BRANCH  14  16
ATOM     16  C   UNL     1      -4.633  -5.700  -0.040  0.00  0.00    +0.409 C 
ATOM     17  F   UNL     1      -4.285  -4.815  -1.067  0.00  0.00    -0.169 F 
ATOM     18  F   UNL     1      -4.660  -7.006  -0.540  0.00  0.00    -0.169 F 
ATOM     19  F   UNL     1      -5.897  -5.364   0.457  0.00  0.00    -0.169 F 
ENDBRANCH  14  16
BRANCH   1  20
ATOM     20  C   UNL     1      -2.569  -1.986   1.805  0.00  0.00    +0.214 C 
BRANCH  20  25
ATOM     21  C   UNL     1      -0.019   1.526   0.010  0.00  0.00    +0.047 C 
ATOM     22  C   UNL     1       0.002  -0.004   0.002  0.00  0.00    +0.135 C 
ATOM     23  C   UNL     1      -1.403  -0.557   0.139  0.00  0.00    +0.251 C 
ATOM     24  O   UNL     1      -2.332  -0.392  -0.621  0.00  0.00    -0.272 OA
ATOM     25  N   UNL     1      -1.403  -1.272   1.282  0.00  0.00    -0.215 N 
ATOM     26  C   UNL     1      -0.206  -1.247   1.879  0.00  0.00    +0.310 C 
ATOM     27  O   UNL     1       0.040  -1.819   2.924  0.00  0.00    -0.252 OA
ATOM     28  N   UNL     1       0.695  -0.520   1.195  0.00  0.00    -0.281 N 
ATOM     29  H   UNL     1       1.621  -0.365   1.440  0.00  0.00    +0.152 HD
BRANCH  22  30
ATOM     30  C   UNL     1       0.657  -0.517  -1.255  0.00  0.00    -0.016 A 
ATOM     31  C   UNL     1      -0.107  -0.772  -2.378  0.00  0.00    +0.006 A 
ATOM     32  C   UNL     1       0.493  -1.242  -3.530  0.00  0.00    +0.000 A 
ATOM     33  C   UNL     1       1.859  -1.457  -3.560  0.00  0.00    +0.000 A 
ATOM     34  C   UNL     1       2.623  -1.202  -2.437  0.00  0.00    +0.000 A 
ATOM     35  C   UNL     1       2.023  -0.727  -1.286  0.00  0.00    +0.006 A 
ENDBRANCH  22  30
ENDBRANCH  20  25
ENDBRANCH   1  20
TORSDOF 4
