REMARK  Name = ZINC63562472
REMARK  4 active torsions:
REMARK  status: ('A' for Active; 'I' for Inactive)
REMARK    1  A    between atoms: C_8  and  C_27
REMARK    2  A    between atoms: C_16  and  C_18
REMARK    3  A    between atoms: C_21  and  N_24
REMARK    4  A    between atoms: C_30  and  N_33
REMARK                            x       y       z     vdW  Elec       q    Type
REMARK                         _______ _______ _______ _____ _____    ______ ____
ROOT
ATOM      1  C   UNL     1      -0.270   1.010   0.654  0.00  0.00    +0.001 A 
ATOM      2  C   UNL     1       0.820   1.869   0.456  0.00  0.00    +0.002 A 
ATOM      3  C   UNL     1       2.077   1.418   0.265  0.00  0.00    +0.026 A 
ATOM      4  C   UNL     1       2.349   0.023   0.259  0.00  0.00    +0.043 A 
ATOM      5  N   UNL     1       3.463  -0.649   0.077  0.00  0.00    -0.375 N 
ATOM      6  C   UNL     1       3.181  -2.072   0.251  0.00  0.00    +0.131 C 
ATOM      7  C   UNL     1       3.568  -2.887  -0.989  0.00  0.00    +0.133 C 
ATOM      8  N   UNL     1       2.897  -4.193  -0.899  0.00  0.00    -0.288 N 
ATOM      9  C   UNL     1       1.434  -4.277  -0.835  0.00  0.00    +0.113 C 
ATOM     10  C   UNL     1       0.930  -3.484   0.384  0.00  0.00    +0.052 C 
ATOM     11  C   UNL     1       1.673  -2.167   0.410  0.00  0.00    -0.035 C 
ATOM     12  C   UNL     1       1.212  -0.909   0.461  0.00  0.00    -0.001 A 
ATOM     13  C   UNL     1      -0.123  -0.333   0.664  0.00  0.00    +0.010 A 
ATOM     14  C   UNL     1       3.633  -5.322  -0.875  0.00  0.00    +0.247 C 
ATOM     15  O   UNL     1       4.846  -5.256  -0.833  0.00  0.00    -0.270 OA
ATOM     16  H   UNL     1       4.328  -0.265  -0.136  0.00  0.00    +0.160 HD
ENDROOT
BRANCH  14  17
ATOM     17  C   UNL     1       2.964  -6.640  -0.899  0.00  0.00    +0.037 A 
ATOM     18  C   UNL     1       1.893  -6.867  -1.764  0.00  0.00    +0.015 A 
ATOM     19  C   UNL     1       1.274  -8.100  -1.782  0.00  0.00    +0.033 A 
ATOM     20  C   UNL     1       1.713  -9.110  -0.945  0.00  0.00    +0.126 A 
ATOM     21  C   UNL     1       2.774  -8.892  -0.084  0.00  0.00    +0.033 A 
ATOM     22  C   UNL     1       3.406  -7.665  -0.061  0.00  0.00    +0.015 A 
BRANCH  20  23
ATOM     23  N   UNL     1       1.044 -10.430  -0.969  0.00  0.00    +0.056 N 
ATOM     24  O   UNL     1       0.116 -10.624  -1.720  0.00  0.00    -0.126 OA
ATOM     25  O   UNL     1       1.425 -11.315  -0.239  0.00  0.00    -0.126 OA
ENDBRANCH  20  23
ENDBRANCH  14  17
BRANCH   7  26
ATOM     26  C   UNL     1       3.120  -2.166  -2.234  0.00  0.00    -0.025 A 
ATOM     27  C   UNL     1       1.777  -1.910  -2.438  0.00  0.00    +0.008 A 
ATOM     28  C   UNL     1       1.365  -1.249  -3.580  0.00  0.00    +0.033 A 
ATOM     29  C   UNL     1       2.296  -0.843  -4.518  0.00  0.00    +0.126 A 
ATOM     30  C   UNL     1       3.639  -1.098  -4.313  0.00  0.00    +0.033 A 
ATOM     31  C   UNL     1       4.051  -1.756  -3.169  0.00  0.00    +0.008 A 
BRANCH  29  32
ATOM     32  N   UNL     1       1.855  -0.136  -5.741  0.00  0.00    +0.056 N 
ATOM     33  O   UNL     1       0.680   0.087  -5.920  0.00  0.00    -0.126 OA
ATOM     34  O   UNL     1       2.670   0.219  -6.561  0.00  0.00    -0.126 OA
ENDBRANCH  29  32
ENDBRANCH   7  26
TORSDOF 4
