REMARK  Name = ZINC34906215
REMARK  10 active torsions:
REMARK  status: ('A' for Active; 'I' for Inactive)
REMARK    1  A    between atoms: C_1  and  C_2
REMARK    2  A    between atoms: C_2  and  N_3
REMARK    3  A    between atoms: N_6  and  C_7
REMARK    4  A    between atoms: C_13  and  N_15
REMARK    5  A    between atoms: C_16  and  C_18
REMARK    6  A    between atoms: C_21  and  C_23
REMARK    7  A    between atoms: C_23  and  O_24
REMARK    8  A    between atoms: O_24  and  C_25
REMARK    9  A    between atoms: C_27  and  C_32
REMARK   10  A    between atoms: C_29  and  C_31
REMARK                            x       y       z     vdW  Elec       q    Type
REMARK                         _______ _______ _______ _____ _____    ______ ____
ROOT
ATOM      1  N   UNL     1       4.083  -3.429   2.913  0.00  0.00    -0.305 N 
ATOM      2  C   UNL     1       5.161  -3.069   3.637  0.00  0.00    +0.263 C 
ATOM      3  O   UNL     1       5.144  -3.178   4.849  0.00  0.00    -0.269 OA
ATOM      4  H   UNL     1       4.097  -3.342   1.947  0.00  0.00    +0.149 HD
ENDROOT
BRANCH   1  10
ATOM      5  C   UNL     1       1.661  -3.700   2.708  0.00  0.00    +0.095 C 
ATOM      6  C   UNL     1       0.415  -4.245   3.409  0.00  0.00    +0.024 C 
ATOM      7  C   UNL     1       0.578  -5.748   3.642  0.00  0.00    +0.002 C 
ATOM      8  C   UNL     1       1.807  -5.999   4.518  0.00  0.00    +0.002 C 
ATOM      9  C   UNL     1       3.053  -5.454   3.817  0.00  0.00    +0.024 C 
ATOM     10  C   UNL     1       2.890  -3.950   3.584  0.00  0.00    +0.093 C 
BRANCH   5  14
ATOM     11  N   UNL     1       0.711  -0.489   1.189  0.00  0.00    -0.300 N 
ATOM     12  C   UNL     1       0.854  -1.814   1.394  0.00  0.00    +0.300 C 
ATOM     13  O   UNL     1       0.395  -2.606   0.593  0.00  0.00    -0.253 OA
ATOM     14  N   UNL     1       1.506  -2.260   2.486  0.00  0.00    -0.295 N 
ATOM     15  H   UNL     1       1.077   0.142   1.827  0.00  0.00    +0.150 HD
ATOM     16  H   UNL     1       1.872  -1.628   3.124  0.00  0.00    +0.151 HD
BRANCH  11  18
ATOM     17  C   UNL     1      -0.019   1.526   0.010  0.00  0.00    +0.024 C 
ATOM     18  C   UNL     1       0.002  -0.004   0.002  0.00  0.00    +0.102 C 
ENDBRANCH  11  18
ENDBRANCH   5  14
ENDBRANCH   1  10
BRANCH   2  19
ATOM     19  C   UNL     1       6.360  -2.544   2.962  0.00  0.00    +0.133 A 
ATOM     20  C   UNL     1       7.479  -2.172   3.658  0.00  0.00    +0.080 A 
ATOM     21  S   UNL     1       8.513  -1.663   2.436  0.00  0.00    -0.076 S 
ATOM     22  C   UNL     1       7.518  -1.931   1.110  0.00  0.00    +0.116 A 
ATOM     23  N   UNL     1       6.422  -2.409   1.634  0.00  0.00    -0.236 NA
BRANCH  22  24
ATOM     24  C   UNL     1       7.822  -1.684  -0.345  0.00  0.00    +0.291 C 
BRANCH  24  25
ATOM     25  O   UNL     1       7.433  -0.354  -0.694  0.00  0.00    -0.485 OA
BRANCH  25  26
ATOM     26  C   UNL     1       7.641   0.032  -1.980  0.00  0.00    +0.122 A 
ATOM     27  C   UNL     1       8.202  -0.853  -2.889  0.00  0.00    +0.049 A 
ATOM     28  C   UNL     1       8.412  -0.458  -4.197  0.00  0.00    -0.047 A 
ATOM     29  C   UNL     1       8.063   0.818  -4.599  0.00  0.00    +0.007 A 
ATOM     30  C   UNL     1       7.504   1.702  -3.695  0.00  0.00    -0.047 A 
ATOM     31  C   UNL     1       7.287   1.310  -2.388  0.00  0.00    +0.049 A 
ATOM     32  C   UNL     1       7.126   3.092  -4.136  0.00  0.00    +0.044 C 
ATOM     33  C   UNL     1       9.021  -1.419  -5.185  0.00  0.00    +0.044 C 
ENDBRANCH  25  26
ENDBRANCH  24  25
ENDBRANCH  22  24
ENDBRANCH   2  19
TORSDOF 7
