REMARK  Name = ZINC36552854
REMARK  9 active torsions:
REMARK  status: ('A' for Active; 'I' for Inactive)
REMARK    1  A    between atoms: C_3  and  N_8
REMARK    2  A    between atoms: N_8  and  C_9
REMARK    3  A    between atoms: C_9  and  C_11
REMARK    4  A    between atoms: C_9  and  C_20
REMARK    5  A    between atoms: C_12  and  O_19
REMARK    6  A    between atoms: C_14  and  O_18
REMARK    7  A    between atoms: C_16  and  O_17
REMARK    8  A    between atoms: N_22  and  C_23
REMARK    9  A    between atoms: C_29  and  C_31
REMARK                            x       y       z     vdW  Elec       q    Type
REMARK                         _______ _______ _______ _____ _____    ______ ____
ROOT
ATOM      1  C   UNL     1       5.158   1.826  -0.017  0.00  0.00    +0.204 C 
ENDROOT
BRANCH   1   2
ATOM      2  C   UNL     1       4.332   0.796  -0.744  0.00  0.00    +0.065 A 
ATOM      3  C   UNL     1       3.033   0.536  -0.336  0.00  0.00    +0.129 A 
ATOM      4  C   UNL     1       2.273  -0.412  -1.005  0.00  0.00    +0.091 A 
ATOM      5  C   UNL     1       2.813  -1.099  -2.082  0.00  0.00    +0.124 A 
ATOM      6  C   UNL     1       4.112  -0.838  -2.490  0.00  0.00    +0.091 A 
ATOM      7  C   UNL     1       4.871   0.113  -1.824  0.00  0.00    +0.129 A 
BRANCH   7   8
ATOM      8  O   UNL     1       6.142   0.372  -2.227  0.00  0.00    -0.506 OA
ATOM      9  H   UNL     1       6.811  -0.179  -1.798  0.00  0.00    +0.292 HD
ENDBRANCH   7   8
BRANCH   5  10
ATOM     10  O   UNL     1       2.069  -2.029  -2.737  0.00  0.00    -0.507 OA
ATOM     11  H   UNL     1       1.556  -1.673  -3.475  0.00  0.00    +0.292 HD
ENDBRANCH   5  10
BRANCH   3  12
ATOM     12  O   UNL     1       2.504   1.209   0.719  0.00  0.00    -0.506 OA
ATOM     13  H   UNL     1       2.045   2.025   0.475  0.00  0.00    +0.292 HD
ENDBRANCH   3  12
ENDBRANCH   1   2
BRANCH   1  14
ATOM     14  C   UNL     1       5.576   1.280   1.324  0.00  0.00    +0.239 C 
ATOM     15  O   UNL     1       4.813   1.332   2.265  0.00  0.00    -0.273 OA
ATOM     16  N   UNL     1       6.798   0.733   1.477  0.00  0.00    -0.311 N 
ATOM     17  H   UNL     1       7.409   0.692   0.725  0.00  0.00    +0.149 HD
BRANCH  16  18
ATOM     18  C   UNL     1       7.205   0.202   2.781  0.00  0.00    +0.073 C 
ATOM     19  C   UNL     1       7.765   1.336   3.642  0.00  0.00    +0.022 C 
ATOM     20  C   UNL     1       8.190   0.781   5.003  0.00  0.00    +0.002 C 
ATOM     21  C   UNL     1       9.266  -0.288   4.805  0.00  0.00    +0.000 C 
ATOM     22  C   UNL     1       8.706  -1.422   3.944  0.00  0.00    +0.002 C 
ATOM     23  C   UNL     1       8.281  -0.867   2.583  0.00  0.00    +0.022 C 
ENDBRANCH  16  18
ENDBRANCH   1  14
BRANCH   1  24
ATOM     24  N   UNL     1       4.362   3.041   0.178  0.00  0.00    -0.254 N 
ATOM     25  C   UNL     1       3.750   3.621  -0.874  0.00  0.00    +0.241 C 
ATOM     26  O   UNL     1       3.792   3.095  -1.966  0.00  0.00    -0.273 OA
BRANCH  24  29
ATOM     27  C   UNL     1       5.221   4.703   3.344  0.00  0.00    +0.003 A 
ATOM     28  C   UNL     1       5.346   4.152   2.083  0.00  0.00    +0.023 A 
ATOM     29  C   UNL     1       4.238   3.599   1.455  0.00  0.00    +0.039 A 
ATOM     30  C   UNL     1       3.006   3.601   2.096  0.00  0.00    +0.043 A 
ATOM     31  C   UNL     1       2.887   4.153   3.357  0.00  0.00    +0.043 A 
ATOM     32  C   UNL     1       3.994   4.704   3.980  0.00  0.00    +0.020 A 
ATOM     33 CL   UNL     1       1.348   4.157   4.161  0.00  0.00    -0.083 Cl
ENDBRANCH  24  29
BRANCH  25  34
ATOM     34  C   UNL     1       3.014   4.923  -0.693  0.00  0.00    +0.160 C 
ATOM     35  C   UNL     1       1.511   4.659  -0.453  0.00  0.00    +0.041 C 
ATOM     36  C   UNL     1       0.940   4.765  -1.886  0.00  0.00    +0.098 C 
ATOM     37  C   UNL     1       1.931   5.644  -2.616  0.00  0.00    +0.214 C 
ATOM     38  O   UNL     1       1.719   6.201  -3.673  0.00  0.00    -0.276 OA
ATOM     39  N   UNL     1       3.082   5.721  -1.923  0.00  0.00    -0.304 N 
ATOM     40  H   UNL     1       3.856   6.236  -2.199  0.00  0.00    +0.149 HD
ENDBRANCH  25  34
ENDBRANCH   1  24
TORSDOF 9
