REMARK  Name = ZINC16847919
REMARK  2 active torsions:
REMARK  status: ('A' for Active; 'I' for Inactive)
REMARK    1  A    between atoms: C_1  and  S_2
REMARK    2  A    between atoms: S_2  and  C_3
REMARK                            x       y       z     vdW  Elec       q    Type
REMARK                         _______ _______ _______ _____ _____    ______ ____
ROOT
ATOM      1  C   UNL     1       3.050  -1.715   4.162  0.00  0.00    +0.194 A 
ATOM      2  N   UNL     1       4.306  -1.309   4.326  0.00  0.00    -0.189 NA
ATOM      3  C   UNL     1       4.843  -0.449   3.466  0.00  0.00    +0.223 A 
ATOM      4  N   UNL     1       4.127   0.001   2.440  0.00  0.00    -0.181 NA
ATOM      5  C   UNL     1       2.870  -0.402   2.280  0.00  0.00    +0.223 A 
ATOM      6  N   UNL     1       2.332  -1.261   3.139  0.00  0.00    -0.189 NA
ATOM      7  N   UNL     1       2.125   0.070   1.217  0.00  0.00    -0.295 N 
ATOM      8  C   UNL     1       0.772  -0.505   1.227  0.00  0.00    +0.136 C 
ATOM      9  C   UNL     1       0.002  -0.004   0.002  0.00  0.00    +0.179 C 
ATOM     10  O   UNL     1      -0.017   1.426   0.010  0.00  0.00    -0.377 OA
ATOM     11  C   UNL     1       1.284   2.019   0.001  0.00  0.00    +0.179 C 
ATOM     12  C   UNL     1       2.067   1.539   1.225  0.00  0.00    +0.136 C 
ATOM     13  N   UNL     1       6.146  -0.027   3.636  0.00  0.00    -0.295 N 
ATOM     14  C   UNL     1       6.949  -0.303   2.436  0.00  0.00    +0.136 C 
ATOM     15  C   UNL     1       8.368   0.233   2.643  0.00  0.00    +0.179 C 
ATOM     16  O   UNL     1       8.929  -0.359   3.818  0.00  0.00    -0.377 OA
ATOM     17  C   UNL     1       8.172  -0.110   5.006  0.00  0.00    +0.179 C 
ATOM     18  C   UNL     1       6.751  -0.649   4.822  0.00  0.00    +0.136 C 
ENDROOT
BRANCH   1  20
ATOM     19  C   UNL     1       3.738  -3.095   6.423  0.00  0.00    +0.093 C 
ATOM     20  S   UNL     1       2.338  -2.855   5.302  0.00  0.00    -0.089 S 
ENDBRANCH   1  20
TORSDOF 1
