REMARK  Name = ZINC00989127
REMARK  13 active torsions:
REMARK  status: ('A' for Active; 'I' for Inactive)
REMARK    1  A    between atoms: C_1  and  C_2
REMARK    2  A    between atoms: C_2  and  C_3
REMARK    3  A    between atoms: C_2  and  O_4
REMARK    4  A    between atoms: O_4  and  C_5
REMARK    5  A    between atoms: C_5  and  C_7
REMARK    6  A    between atoms: C_13  and  C_14
REMARK    7  A    between atoms: C_17  and  O_20
REMARK    8  A    between atoms: O_20  and  C_21
REMARK    9  A    between atoms: C_23  and  N_37
REMARK   10  A    between atoms: C_24  and  C_35
REMARK   11  A    between atoms: C_25  and  C_27
REMARK   12  A    between atoms: C_30  and  O_33
REMARK   13  A    between atoms: O_33  and  C_34
REMARK                            x       y       z     vdW  Elec       q    Type
REMARK                         _______ _______ _______ _____ _____    ______ ____
ROOT
ATOM      1  C   UNL     1       2.489   0.124   0.141  0.00  0.00    +0.080 C 
ATOM      2  C   UNL     1       1.263  -0.473   0.005  0.00  0.00    +0.100 A 
ATOM      3  N   UNL     1       0.094   0.207  -0.268  0.00  0.00    -0.257 N 
ATOM      4  C   UNL     1      -1.040  -0.514  -0.374  0.00  0.00    +0.271 A 
ATOM      5  O   UNL     1      -2.103   0.028  -0.613  0.00  0.00    -0.266 OA
ATOM      6  C   UNL     1      -0.962  -1.968  -0.195  0.00  0.00    +0.079 A 
ATOM      7  C   UNL     1      -1.950  -2.898  -0.253  0.00  0.00    +0.028 C 
ATOM      8  S   UNL     1       0.782  -2.185   0.120  0.00  0.00    -0.065 S 
ATOM      9  C   UNL     1       0.136   1.598  -0.419  0.00  0.00    +0.118 C 
ATOM     10  C   UNL     1       1.264   2.333  -0.315  0.00  0.00    +0.079 C 
ATOM     11  C   UNL     1       2.572   1.630  -0.017  0.00  0.00    +0.102 C 
ENDROOT
BRANCH   7  12
ATOM     12  C   UNL     1      -1.617  -4.327  -0.207  0.00  0.00    -0.024 A 
ATOM     13  C   UNL     1      -0.353  -4.768  -0.620  0.00  0.00    +0.011 A 
ATOM     14  C   UNL     1      -0.044  -6.108  -0.569  0.00  0.00    +0.046 A 
ATOM     15  C   UNL     1      -0.988  -7.025  -0.119  0.00  0.00    +0.120 A 
ATOM     16  C   UNL     1      -2.245  -6.594   0.287  0.00  0.00    +0.046 A 
ATOM     17  C   UNL     1      -2.563  -5.255   0.246  0.00  0.00    +0.011 A 
BRANCH  15  18
ATOM     18  O   UNL     1      -0.679  -8.347  -0.076  0.00  0.00    -0.495 OA
ATOM     19  C   UNL     1       0.630  -8.722  -0.508  0.00  0.00    +0.277 C 
ENDBRANCH  15  18
ENDBRANCH   7  12
BRANCH  11  20
ATOM     20  C   UNL     1       3.139   2.206   1.255  0.00  0.00    -0.034 A 
ATOM     21  C   UNL     1       2.475   2.018   2.453  0.00  0.00    +0.008 A 
ATOM     22  C   UNL     1       2.994   2.541   3.622  0.00  0.00    +0.046 A 
ATOM     23  C   UNL     1       4.177   3.265   3.590  0.00  0.00    +0.120 A 
ATOM     24  C   UNL     1       4.838   3.457   2.386  0.00  0.00    +0.046 A 
ATOM     25  C   UNL     1       4.318   2.927   1.221  0.00  0.00    +0.008 A 
BRANCH  23  26
ATOM     26  O   UNL     1       4.687   3.786   4.737  0.00  0.00    -0.495 OA
ATOM     27  C   UNL     1       3.953   3.548   5.940  0.00  0.00    +0.277 C 
ENDBRANCH  23  26
ENDBRANCH  11  20
BRANCH   9  28
ATOM     28  N   UNL     1      -1.039   2.253  -0.696  0.00  0.00    -0.343 N 
ATOM     29  H   UNL     1      -1.884   1.879  -0.402  0.00  0.00    +0.144 HD
ATOM     30  H   UNL     1      -1.024   3.091  -1.186  0.00  0.00    +0.144 HD
ENDBRANCH   9  28
BRANCH   1  31
ATOM     31  C   UNL     1       3.633  -0.636   0.418  0.00  0.00    +0.339 C 
ATOM     32  O   UNL     1       3.546  -1.845   0.541  0.00  0.00    -0.245 OA
BRANCH  31  33
ATOM     33  O   UNL     1       4.832  -0.027   0.548  0.00  0.00    -0.459 OA
BRANCH  33  35
ATOM     34  C   UNL     1       7.219  -0.239   0.234  0.00  0.00    +0.052 C 
ATOM     35  C   UNL     1       5.956  -0.863   0.831  0.00  0.00    +0.171 C 
ATOM     36  C   UNL     1       6.122  -1.001   2.345  0.00  0.00    +0.052 C 
ENDBRANCH  33  35
ENDBRANCH  31  33
ENDBRANCH   1  31
BRANCH  10  37
ATOM     37  C   UNL     1       1.224   3.755  -0.484  0.00  0.00    +0.099 C 
ATOM     38  N   UNL     1       1.193   4.882  -0.617  0.00  0.00    -0.191 NA
ENDBRANCH  10  37
TORSDOF 9
