REMARK  Name = ZINC13651280
REMARK  10 active torsions:
REMARK  status: ('A' for Active; 'I' for Inactive)
REMARK    1  A    between atoms: C_1  and  C_2
REMARK    2  A    between atoms: C_2  and  N_3
REMARK    3  A    between atoms: N_3  and  C_4
REMARK    4  A    between atoms: C_8  and  N_9
REMARK    5  A    between atoms: C_15  and  C_17
REMARK    6  A    between atoms: C_17  and  C_31
REMARK    7  A    between atoms: C_21  and  C_30
REMARK    8  A    between atoms: C_22  and  O_29
REMARK    9  A    between atoms: C_23  and  C_28
REMARK   10  A    between atoms: C_24  and  C_27
REMARK                            x       y       z     vdW  Elec       q    Type
REMARK                         _______ _______ _______ _____ _____    ______ ____
ROOT
ATOM      1  N   UNL     1      -1.808   6.524  -4.410  0.00  0.00    -0.312 N 
ATOM      2  C   UNL     1      -0.411   6.586  -4.861  0.00  0.00    +0.125 C 
ATOM      3  C   UNL     1       0.432   5.604  -4.040  0.00  0.00    +0.127 C 
ATOM      4  N   UNL     1       0.226   5.892  -2.612  0.00  0.00    -0.295 N 
ATOM      5  C   UNL     1      -1.155   5.976  -2.111  0.00  0.00    +0.127 C 
ATOM      6  C   UNL     1      -1.935   6.949  -3.010  0.00  0.00    +0.125 C 
ATOM      7  C   UNL     1       1.274   6.069  -1.784  0.00  0.00    +0.259 C 
ATOM      8  O   UNL     1       2.402   6.082  -2.228  0.00  0.00    -0.271 OA
ENDROOT
BRANCH   7   9
ATOM      9  C   UNL     1       1.044   6.251  -0.305  0.00  0.00    +0.183 C 
ATOM     10  C   UNL     1       2.322   5.892   0.464  0.00  0.00    +0.062 C 
ATOM     11  C   UNL     1       2.739   4.473   0.069  0.00  0.00    +0.043 C 
ATOM     12  C   UNL     1       1.548   3.553   0.147  0.00  0.00    +0.001 A 
ATOM     13  C   UNL     1       1.765   2.186   0.195  0.00  0.00    -0.002 A 
ATOM     14  C   UNL     1       0.693   1.310   0.256  0.00  0.00    +0.123 A 
ATOM     15  C   UNL     1      -0.603   1.804   0.264  0.00  0.00    -0.002 A 
ATOM     16  C   UNL     1      -0.820   3.166   0.224  0.00  0.00    -0.002 A 
ATOM     17  C   UNL     1       0.255   4.046   0.164  0.00  0.00    +0.129 A 
ATOM     18  O   UNL     1      -0.002   5.381   0.129  0.00  0.00    -0.476 OA
ATOM     19  C   UNL     1      -2.229   3.702   0.239  0.00  0.00    +0.048 C 
ATOM     20  C   UNL     1      -1.772   0.855   0.322  0.00  0.00    +0.048 C 
ATOM     21  C   UNL     1       3.173   1.649   0.181  0.00  0.00    +0.048 C 
ATOM     22  C   UNL     1       0.660   7.703  -0.018  0.00  0.00    +0.066 C 
BRANCH  14  23
ATOM     23  O   UNL     1       0.911  -0.031   0.303  0.00  0.00    -0.506 OA
ATOM     24  H   UNL     1       0.997  -0.385   1.198  0.00  0.00    +0.292 HD
ENDBRANCH  14  23
ENDBRANCH   7   9
BRANCH   1  29
ATOM     25  C   UNL     1      -3.729   6.676  -5.861  0.00  0.00    +0.066 A 
ATOM     26  C   UNL     1      -4.543   7.445  -6.684  0.00  0.00    +0.028 A 
ATOM     27  C   UNL     1      -4.231   8.787  -6.853  0.00  0.00    +0.019 A 
ATOM     28  C   UNL     1      -3.133   9.315  -6.206  0.00  0.00    +0.084 A 
ATOM     29  C   UNL     1      -2.634   7.279  -5.238  0.00  0.00    +0.120 A 
ATOM     30  N   UNL     1      -2.316   8.596  -5.388  0.00  0.00    -0.348 N 
ATOM     31  H   UNL     1      -1.511   9.020  -4.913  0.00  0.00    +0.167 HD
BRANCH  25  32
ATOM     32  N   UNL     1      -4.003   5.318  -5.660  0.00  0.00    -0.341 N 
ATOM     33  H   UNL     1      -3.385   4.769  -5.153  0.00  0.00    +0.146 HD
BRANCH  32  35
ATOM     34  C   UNL     1      -5.279   3.241  -5.853  0.00  0.00    +0.024 C 
ATOM     35  C   UNL     1      -5.223   4.726  -6.215  0.00  0.00    +0.098 C 
ENDBRANCH  32  35
ENDBRANCH  25  32
ENDBRANCH   1  29
TORSDOF 5
