REMARK  Name = ZINC28630382
REMARK  11 active torsions:
REMARK  status: ('A' for Active; 'I' for Inactive)
REMARK    1  A    between atoms: C_1  and  C_2
REMARK    2  A    between atoms: C_2  and  O_3
REMARK    3  A    between atoms: O_3  and  C_4
REMARK    4  A    between atoms: C_4  and  C_6
REMARK    5  A    between atoms: C_8  and  C_27
REMARK    6  A    between atoms: C_10  and  C_25
REMARK    7  A    between atoms: C_11  and  S_16
REMARK    8  A    between atoms: C_13  and  C_14
REMARK    9  A    between atoms: C_13  and  O_15
REMARK   10  A    between atoms: S_16  and  C_17
REMARK   11  A    between atoms: C_17  and  C_18
REMARK                            x       y       z     vdW  Elec       q    Type
REMARK                         _______ _______ _______ _____ _____    ______ ____
ROOT
ATOM      1  C   UNL     1      -4.318   0.876   2.407  0.00  0.00    +0.160 C 
ATOM      2  C   UNL     1      -4.897   1.362   3.738  0.00  0.00    +0.087 C 
ATOM      3  C   UNL     1      -5.051   2.857   3.722  0.00  0.00    +0.065 C 
ATOM      4  C   UNL     1      -5.091   3.570   2.567  0.00  0.00    +0.078 C 
ATOM      5  N   UNL     1      -4.982   2.955   1.341  0.00  0.00    -0.310 N 
ATOM      6  C   UNL     1      -5.130   1.495   1.262  0.00  0.00    +0.142 C 
ATOM      7  C   UNL     1      -6.605   1.115   1.408  0.00  0.00    +0.064 C 
ATOM      8  H   UNL     1      -4.788   3.539   0.429  0.00  0.00    +0.149 HD
ENDROOT
BRANCH   2   9
ATOM      9  C   UNL     1      -3.972   0.966   4.860  0.00  0.00    -0.001 A 
ATOM     10  C   UNL     1      -4.174   0.070   5.857  0.00  0.00    +0.012 A 
ATOM     11  C   UNL     1      -3.172  -0.134   6.787  0.00  0.00    +0.008 A 
ATOM     12  C   UNL     1      -2.018   0.568   6.675  0.00  0.00    +0.045 A 
ATOM     13  S   UNL     1      -2.323   1.550   5.216  0.00  0.00    -0.101 S 
ENDBRANCH   2   9
BRANCH   1  14
ATOM     14  C   UNL     1      -2.878   1.306   2.296  0.00  0.00    +0.316 C 
ATOM     15  O   UNL     1      -2.596   2.481   2.305  0.00  0.00    -0.250 OA
BRANCH  14  16
ATOM     16  O   UNL     1      -1.909   0.384   2.188  0.00  0.00    -0.465 OA
BRANCH  16  18
ATOM     17  C   UNL     1       0.413  -0.317   1.970  0.00  0.00    +0.048 C 
ATOM     18  C   UNL     1      -0.544   0.870   2.085  0.00  0.00    +0.229 C 
ENDBRANCH  16  18
ENDBRANCH  14  16
ENDBRANCH   1  14
BRANCH   6  19
ATOM     19  O   UNL     1      -4.631   1.026   0.007  0.00  0.00    -0.371 OA
ATOM     20  H   UNL     1      -5.094   1.367  -0.931  0.00  0.00    +0.212 HD
ENDBRANCH   6  19
BRANCH   3  21
ATOM     21  C   UNL     1      -5.157   3.554   4.968  0.00  0.00    +0.098 C 
ATOM     22  N   UNL     1      -5.241   4.107   5.957  0.00  0.00    -0.191 NA
ENDBRANCH   3  21
BRANCH   4  23
ATOM     23  S   UNL     1      -5.286   5.319   2.639  0.00  0.00    -0.105 S 
BRANCH  23  24
ATOM     24  C   UNL     1      -5.271   5.711   0.872  0.00  0.00    +0.110 C 
BRANCH  24  25
ATOM     25  C   UNL     1      -5.429   7.198   0.686  0.00  0.00    -0.037 A 
ATOM     26  C   UNL     1      -6.691   7.748   0.556  0.00  0.00    +0.005 A 
ATOM     27  C   UNL     1      -6.836   9.113   0.390  0.00  0.00    +0.015 A 
ATOM     28  C   UNL     1      -5.718   9.927   0.344  0.00  0.00    +0.018 A 
ATOM     29  C   UNL     1      -4.456   9.375   0.469  0.00  0.00    +0.015 A 
ATOM     30  C   UNL     1      -4.312   8.011   0.640  0.00  0.00    +0.005 A 
ATOM     31 BR   UNL     1      -5.916  11.793   0.109  0.00  0.00    -0.050 Br
ENDBRANCH  24  25
ENDBRANCH  23  24
ENDBRANCH   4  23
TORSDOF 9
