REMARK  Name = ZINC32655375
REMARK  8 active torsions:
REMARK  status: ('A' for Active; 'I' for Inactive)
REMARK    1  A    between atoms: C_1  and  C_2
REMARK    2  A    between atoms: C_2  and  C_35
REMARK    3  A    between atoms: C_6  and  C_18
REMARK    4  A    between atoms: C_11  and  S_15
REMARK    5  A    between atoms: S_15  and  C_16
REMARK    6  A    between atoms: C_21  and  O_24
REMARK    7  A    between atoms: O_24  and  C_25
REMARK    8  A    between atoms: C_25  and  C_26
REMARK                            x       y       z     vdW  Elec       q    Type
REMARK                         _______ _______ _______ _____ _____    ______ ____
ROOT
ATOM      1  C   UNL     1      -0.019   1.526   0.010  0.00  0.00    +0.011 C 
ATOM      2  C   UNL     1       0.002  -0.004   0.002  0.00  0.00    -0.023 C 
ATOM      3  C   UNL     1      -1.432  -0.539  -0.000  0.00  0.00    +0.058 C 
ATOM      4  C   UNL     1      -1.409  -2.047  -0.053  0.00  0.00    +0.017 C 
ATOM      5  C   UNL     1      -0.415  -2.705  -0.686  0.00  0.00    +0.024 C 
ATOM      6  C   UNL     1      -0.392  -4.212  -0.755  0.00  0.00    +0.090 C 
ATOM      7  C   UNL     1      -1.281  -4.817   0.288  0.00  0.00    +0.044 A 
ATOM      8  C   UNL     1      -1.136  -6.152   0.659  0.00  0.00    +0.126 A 
ATOM      9  N   UNL     1      -1.948  -6.653   1.587  0.00  0.00    -0.207 NA
ATOM     10  C   UNL     1      -2.881  -5.901   2.152  0.00  0.00    +0.191 A 
ATOM     11  N   UNL     1      -3.045  -4.627   1.823  0.00  0.00    -0.206 NA
ATOM     12  C   UNL     1      -2.267  -4.061   0.905  0.00  0.00    +0.133 A 
ATOM     13  N   UNL     1      -2.424  -2.728   0.563  0.00  0.00    -0.302 N 
ATOM     14  N   UNL     1      -0.163  -6.944   0.071  0.00  0.00    -0.343 N 
ATOM     15  C   UNL     1       0.637  -2.005  -1.302  0.00  0.00    +0.162 C 
ATOM     16  O   UNL     1       1.509  -2.627  -1.878  0.00  0.00    -0.292 OA
ATOM     17  C   UNL     1       0.707  -0.504  -1.263  0.00  0.00    +0.086 C 
ATOM     18  C   UNL     1       0.741  -0.516   1.240  0.00  0.00    +0.011 C 
ATOM     19  H   UNL     1      -3.371  -2.217   0.790  0.00  0.00    +0.153 HD
ATOM     20  H   UNL     1      -0.056  -7.997   0.372  0.00  0.00    +0.144 HD
ATOM     21  H   UNL     1       0.503  -6.521  -0.695  0.00  0.00    +0.144 HD
ENDROOT
BRANCH   6  22
ATOM     22  C   UNL     1      -0.861  -4.651  -2.118  0.00  0.00    -0.035 A 
ATOM     23  C   UNL     1      -2.130  -4.315  -2.552  0.00  0.00    +0.008 A 
ATOM     24  C   UNL     1      -2.561  -4.712  -3.804  0.00  0.00    +0.046 A 
ATOM     25  C   UNL     1      -1.723  -5.458  -4.620  0.00  0.00    +0.121 A 
ATOM     26  C   UNL     1      -0.452  -5.798  -4.180  0.00  0.00    +0.046 A 
ATOM     27  C   UNL     1      -0.024  -5.394  -2.930  0.00  0.00    +0.008 A 
BRANCH  25  28
ATOM     28  O   UNL     1      -2.147  -5.855  -5.849  0.00  0.00    -0.487 OA
BRANCH  28  29
ATOM     29  C   UNL     1      -3.467  -5.468  -6.236  0.00  0.00    +0.264 C 
BRANCH  29  30
ATOM     30  C   UNL     1      -3.759  -5.994  -7.618  0.00  0.00    -0.010 A 
ATOM     31  C   UNL     1      -3.463  -5.224  -8.727  0.00  0.00    +0.007 A 
ATOM     32  C   UNL     1      -3.727  -5.708  -9.995  0.00  0.00    +0.000 A 
ATOM     33  C   UNL     1      -4.296  -6.958 -10.153  0.00  0.00    +0.000 A 
ATOM     34  C   UNL     1      -4.597  -7.726  -9.043  0.00  0.00    +0.000 A 
ATOM     35  C   UNL     1      -4.328  -7.244  -7.776  0.00  0.00    +0.007 A 
ENDBRANCH  29  30
ENDBRANCH  28  29
ENDBRANCH  25  28
ENDBRANCH   6  22
BRANCH  10  36
ATOM     36  S   UNL     1      -3.934  -6.613   3.372  0.00  0.00    -0.089 S 
ATOM     37  C   UNL     1      -3.278  -8.300   3.408  0.00  0.00    +0.093 C 
ENDBRANCH  10  36
TORSDOF 5
