REMARK  Name = ZINC60019572
REMARK  9 active torsions:
REMARK  status: ('A' for Active; 'I' for Inactive)
REMARK    1  A    between atoms: C_1  and  C_2
REMARK    2  A    between atoms: C_5  and  C_31
REMARK    3  A    between atoms: C_8  and  C_30
REMARK    4  A    between atoms: C_9  and  C_11
REMARK    5  A    between atoms: N_13  and  C_14
REMARK    6  A    between atoms: C_18  and  S_20
REMARK    7  A    between atoms: S_20  and  N_23
REMARK    8  A    between atoms: N_23  and  C_24
REMARK    9  A    between atoms: C_24  and  C_25
REMARK                            x       y       z     vdW  Elec       q    Type
REMARK                         _______ _______ _______ _____ _____    ______ ____
ROOT
ATOM      1  C   UNL     1       0.212  -2.877   6.778  0.00  0.00    +0.036 A 
ATOM      2  C   UNL     1      -0.390  -1.925   7.592  0.00  0.00    +0.023 A 
ATOM      3  C   UNL     1      -0.269  -2.018   8.964  0.00  0.00    +0.004 A 
ATOM      4  C   UNL     1       0.450  -3.056   9.528  0.00  0.00    +0.028 A 
ATOM      5  C   UNL     1       1.050  -4.005   8.721  0.00  0.00    +0.107 A 
ATOM      6  C   UNL     1       0.928  -3.922   7.348  0.00  0.00    +0.051 A 
ENDROOT
BRANCH   1   9
ATOM      7  C   UNL     1       0.071  -1.578   4.790  0.00  0.00    +0.284 C 
ATOM      8  O   UNL     1       0.072  -0.566   5.465  0.00  0.00    -0.266 OA
ATOM      9  N   UNL     1       0.091  -2.786   5.388  0.00  0.00    -0.279 N 
ATOM     10  H   UNL     1       0.023  -3.593   4.853  0.00  0.00    +0.155 HD
BRANCH   7  19
ATOM     11  C   UNL     1      -0.032   1.502   0.010  0.00  0.00    +0.044 C 
ATOM     12  C   UNL     1      -0.018  -0.005   0.002  0.00  0.00    -0.039 A 
ATOM     13  C   UNL     1      -0.024  -0.685  -1.183  0.00  0.00    +0.004 A 
ATOM     14  C   UNL     1      -0.011  -2.073  -1.198  0.00  0.00    +0.007 A 
ATOM     15  C   UNL     1       0.008  -2.790  -0.021  0.00  0.00    -0.008 A 
ATOM     16  C   UNL     1       0.014  -2.120   1.197  0.00  0.00    +0.139 A 
ATOM     17  C   UNL     1       0.007  -0.712   1.206  0.00  0.00    +0.027 A 
ATOM     18  C   UNL     1       0.025  -0.325   2.616  0.00  0.00    +0.008 A 
ATOM     19  C   UNL     1       0.047  -1.484   3.324  0.00  0.00    +0.194 A 
ATOM     20  O   UNL     1       0.031  -2.535   2.478  0.00  0.00    -0.450 OA
ATOM     21  C   UNL     1       0.021   1.076   3.171  0.00  0.00    +0.048 C 
ATOM     22  C   UNL     1       0.021  -4.296  -0.054  0.00  0.00    +0.047 C 
ENDBRANCH   7  19
ENDBRANCH   1   9
BRANCH   5  23
ATOM     23  S   UNL     1       1.965  -5.325   9.445  0.00  0.00    +0.059 S 
ATOM     24  O   UNL     1       2.884  -5.771   8.457  0.00  0.00    -0.153 OA
ATOM     25  O   UNL     1       2.383  -4.875  10.726  0.00  0.00    -0.153 OA
BRANCH  23  26
ATOM     26  N   UNL     1       0.906  -6.572   9.703  0.00  0.00    -0.183 NA
ATOM     27  H   UNL     1       0.706  -6.858  10.607  0.00  0.00    +0.148 HD
BRANCH  26  28
ATOM     28  C   UNL     1       0.271  -7.241   8.565  0.00  0.00    +0.180 C 
BRANCH  28  29
ATOM     29  C   UNL     1      -0.339  -8.541   9.022  0.00  0.00    +0.120 A 
ATOM     30  C   UNL     1      -1.595  -8.704   9.475  0.00  0.00    +0.046 A 
ATOM     31  C   UNL     1      -1.741 -10.074   9.791  0.00  0.00    +0.041 A 
ATOM     32  C   UNL     1      -0.566 -10.666   9.513  0.00  0.00    +0.195 A 
ATOM     33  O   UNL     1       0.278  -9.734   9.042  0.00  0.00    -0.466 OA
ENDBRANCH  28  29
ENDBRANCH  26  28
ENDBRANCH  23  26
ENDBRANCH   5  23
TORSDOF 6
