REMARK  Name = ZINC54043978
REMARK  5 active torsions:
REMARK  status: ('A' for Active; 'I' for Inactive)
REMARK    1  A    between atoms: C_1  and  C_2
REMARK    2  A    between atoms: N_8  and  C_11
REMARK    3  A    between atoms: N_12  and  C_13
REMARK    4  A    between atoms: C_13  and  C_15
REMARK    5  A    between atoms: C_13  and  C_16
REMARK                            x       y       z     vdW  Elec       q    Type
REMARK                         _______ _______ _______ _____ _____    ______ ____
ROOT
ATOM      1  C   UNL     1      -0.018   1.503   0.010  0.00  0.00    +0.088 C 
ATOM      2  C   UNL     1       0.002  -0.004   0.002  0.00  0.00    +0.130 A 
ATOM      3  N   UNL     1       0.005  -0.632  -1.161  0.00  0.00    -0.217 NA
ATOM      4  C   UNL     1       0.023  -1.958  -1.226  0.00  0.00    +0.134 A 
ATOM      5  C   UNL     1       0.038  -2.688  -0.022  0.00  0.00    +0.078 A 
ATOM      6  C   UNL     1       0.059  -4.061   0.307  0.00  0.00    +0.148 A 
ATOM      7  N   UNL     1       0.067  -4.174   1.605  0.00  0.00    -0.177 NA
ATOM      8  N   UNL     1       0.052  -2.901   2.190  0.00  0.00    -0.249 N 
ATOM      9  C   UNL     1       0.035  -1.973   1.192  0.00  0.00    +0.163 A 
ATOM     10  N   UNL     1       0.022  -0.641   1.152  0.00  0.00    -0.213 NA
ATOM     11  C   UNL     1       0.055  -2.616   3.627  0.00  0.00    +0.174 C 
ATOM     12  N   UNL     1       0.025  -2.607  -2.446  0.00  0.00    -0.319 N 
ATOM     13  H   UNL     1       0.038  -3.576  -2.480  0.00  0.00    +0.148 HD
ENDROOT
BRANCH  12  14
ATOM     14  C   UNL     1       0.008  -1.830  -3.688  0.00  0.00    +0.135 C 
ATOM     15  C   UNL     1      -1.436  -1.473  -4.046  0.00  0.00    +0.036 C 
BRANCH  14  16
ATOM     16  C   UNL     1       0.614  -2.647  -4.800  0.00  0.00    +0.126 A 
ATOM     17  C   UNL     1       1.434  -2.168  -5.745  0.00  0.00    +0.055 A 
ATOM     18  C   UNL     1       1.774  -3.306  -6.607  0.00  0.00    +0.020 A 
ATOM     19  C   UNL     1       2.567  -3.467  -7.742  0.00  0.00    +0.011 A 
ATOM     20  C   UNL     1       2.676  -4.699  -8.325  0.00  0.00    +0.001 A 
ATOM     21  C   UNL     1       2.002  -5.789  -7.793  0.00  0.00    +0.004 A 
ATOM     22  C   UNL     1       1.212  -5.650  -6.672  0.00  0.00    +0.047 A 
ATOM     23  C   UNL     1       1.089  -4.406  -6.064  0.00  0.00    +0.135 A 
ATOM     24  O   UNL     1       0.415  -3.964  -4.984  0.00  0.00    -0.458 OA
ENDBRANCH  14  16
ENDBRANCH  12  14
TORSDOF 2
