REMARK  Name = ZINC01436567
REMARK  8 active torsions:
REMARK  status: ('A' for Active; 'I' for Inactive)
REMARK    1  A    between atoms: C_1  and  O_2
REMARK    2  A    between atoms: O_2  and  C_3
REMARK    3  A    between atoms: C_3  and  C_5
REMARK    4  A    between atoms: C_6  and  N_34
REMARK    5  A    between atoms: N_7  and  C_24
REMARK    6  A    between atoms: C_10  and  C_12
REMARK    7  A    between atoms: C_27  and  S_30
REMARK    8  A    between atoms: S_30  and  N_33
REMARK                            x       y       z     vdW  Elec       q    Type
REMARK                         _______ _______ _______ _____ _____    ______ ____
ROOT
ATOM      1  C   UNL     1       1.206   2.280  -0.447  0.00  0.00    +0.084 C 
ATOM      2  C   UNL     1       2.174   1.364  -0.172  0.00  0.00    +0.103 C 
ATOM      3  N   UNL     1       3.413   1.778   0.255  0.00  0.00    -0.261 N 
ATOM      4  C   UNL     1       3.579   3.026   0.798  0.00  0.00    +0.024 C 
ATOM      5  C   UNL     1       2.677   4.003   0.568  0.00  0.00    +0.025 C 
ATOM      6  C   UNL     1       1.464   3.750  -0.292  0.00  0.00    +0.094 C 
ATOM      7  C   UNL     1       2.840   5.285   1.121  0.00  0.00    +0.162 C 
ATOM      8  O   UNL     1       2.001   6.138   0.908  0.00  0.00    -0.292 OA
ATOM      9  C   UNL     1       4.034   5.622   1.971  0.00  0.00    +0.080 C 
ATOM     10  C   UNL     1       5.214   4.742   1.543  0.00  0.00    +0.014 C 
ATOM     11  C   UNL     1       4.792   3.276   1.660  0.00  0.00    +0.052 C 
ENDROOT
BRANCH   6  12
ATOM     12  C   UNL     1       1.687   4.359  -1.652  0.00  0.00    -0.035 A 
ATOM     13  C   UNL     1       2.731   3.918  -2.443  0.00  0.00    +0.006 A 
ATOM     14  C   UNL     1       2.933   4.472  -3.693  0.00  0.00    +0.020 A 
ATOM     15  C   UNL     1       2.097   5.477  -4.148  0.00  0.00    +0.041 A 
ATOM     16  C   UNL     1       1.056   5.921  -3.353  0.00  0.00    +0.020 A 
ATOM     17  C   UNL     1       0.851   5.363  -2.106  0.00  0.00    +0.006 A 
ATOM     18 CL   UNL     1       2.355   6.178  -5.715  0.00  0.00    -0.084 Cl
ENDBRANCH   6  12
BRANCH   3  19
ATOM     19  C   UNL     1       4.512   0.919   0.139  0.00  0.00    +0.040 A 
ATOM     20  C   UNL     1       4.588  -0.223   0.924  0.00  0.00    +0.026 A 
ATOM     21  C   UNL     1       5.672  -1.071   0.804  0.00  0.00    +0.030 A 
ATOM     22  C   UNL     1       6.685  -0.778  -0.090  0.00  0.00    +0.105 A 
ATOM     23  C   UNL     1       6.615   0.361  -0.870  0.00  0.00    +0.030 A 
ATOM     24  C   UNL     1       5.532   1.211  -0.758  0.00  0.00    +0.026 A 
BRANCH  22  25
ATOM     25  S   UNL     1       8.069  -1.859  -0.235  0.00  0.00    +0.056 S 
ATOM     26  O   UNL     1       7.634  -3.137   0.209  0.00  0.00    -0.153 OA
ATOM     27  O   UNL     1       8.615  -1.648  -1.530  0.00  0.00    -0.153 OA
BRANCH  25  28
ATOM     28  N   UNL     1       9.209  -1.344   0.849  0.00  0.00    -0.204 NA
ATOM     29  H   UNL     1       9.821  -1.981   1.250  0.00  0.00    +0.144 HD
ATOM     30  H   UNL     1       9.265  -0.404   1.084  0.00  0.00    +0.144 HD
ENDBRANCH  25  28
ENDBRANCH  22  25
ENDBRANCH   3  19
BRANCH   2  31
ATOM     31  N   UNL     1       1.915   0.027  -0.325  0.00  0.00    -0.346 N 
ATOM     32  H   UNL     1       2.620  -0.575  -0.610  0.00  0.00    +0.143 HD
ATOM     33  H   UNL     1       1.025  -0.318  -0.148  0.00  0.00    +0.143 HD
ENDBRANCH   2  31
BRANCH   1  34
ATOM     34  C   UNL     1      -0.055   1.843  -0.878  0.00  0.00    +0.339 C 
ATOM     35  O   UNL     1      -0.249   0.660  -1.093  0.00  0.00    -0.245 OA
BRANCH  34  37
ATOM     36  C   UNL     1      -2.310   2.221  -1.506  0.00  0.00    +0.280 C 
ATOM     37  O   UNL     1      -1.053   2.735  -1.060  0.00  0.00    -0.465 OA
ENDBRANCH  34  37
ENDBRANCH   1  34
TORSDOF 7
