REMARK  Name = ZINC19790303
REMARK  4 active torsions:
REMARK  status: ('A' for Active; 'I' for Inactive)
REMARK    1  A    between atoms: C_4  and  C_7
REMARK    2  A    between atoms: C_10  and  N_13
REMARK    3  A    between atoms: N_16  and  C_19
REMARK    4  A    between atoms: C_19  and  C_20
REMARK                            x       y       z     vdW  Elec       q    Type
REMARK                         _______ _______ _______ _____ _____    ______ ____
ROOT
ATOM      1  N   UNL     1      -1.515  -0.386  -0.186  0.00  0.00    -0.303 NA
ATOM      2  C   UNL     1      -2.264   0.166   0.952  0.00  0.00    +0.066 C 
ATOM      3  C   UNL     1      -3.685  -0.404   0.947  0.00  0.00    -0.063 C 
ATOM      4  N   UNL     1      -3.623  -1.870   1.022  0.00  0.00    +0.382 N 
ATOM      5  C   UNL     1      -2.873  -2.421  -0.116  0.00  0.00    -0.063 C 
ATOM      6  C   UNL     1      -1.453  -1.852  -0.111  0.00  0.00    +0.066 C 
ATOM      7  H   UNL     1      -3.088  -2.141   1.944  0.00  0.00    -0.082 HD
ENDROOT
BRANCH   1  11
ATOM      8  C   UNL     1       1.844   1.800  -1.661  0.00  0.00    +0.019 C 
ATOM      9  C   UNL     1       1.130   2.325  -0.414  0.00  0.00    +0.010 C 
ATOM     10  C   UNL     1      -0.273   1.720  -0.337  0.00  0.00    +0.019 C 
ATOM     11  C   UNL     1      -0.168   0.195  -0.260  0.00  0.00    +0.057 C 
ATOM     12  C   UNL     1       0.546  -0.330  -1.508  0.00  0.00    +0.019 C 
ATOM     13  C   UNL     1       1.949   0.276  -1.585  0.00  0.00    +0.010 C 
BRANCH   8  17
ATOM     14  C   UNL     1       5.761   3.490  -1.877  0.00  0.00    +0.000 A 
ATOM     15  C   UNL     1       4.856   3.711  -2.898  0.00  0.00    +0.000 A 
ATOM     16  C   UNL     1       3.588   3.164  -2.828  0.00  0.00    +0.004 A 
ATOM     17  C   UNL     1       3.226   2.396  -1.738  0.00  0.00    -0.044 A 
ATOM     18  C   UNL     1       4.129   2.179  -0.714  0.00  0.00    +0.004 A 
ATOM     19  C   UNL     1       5.399   2.722  -0.786  0.00  0.00    +0.000 A 
ENDBRANCH   8  17
ENDBRANCH   1  11
BRANCH   4  20
ATOM     20  C   UNL     1      -4.970  -2.451   1.096  0.00  0.00    -0.075 C 
BRANCH  20  21
ATOM     21  C   UNL     1      -5.750  -1.786   2.232  0.00  0.00    -0.020 C 
ATOM     22  C   UNL     1      -5.143  -2.164   3.604  0.00  0.00    +0.010 C 
ATOM     23  C   UNL     1      -6.313  -2.912   4.328  0.00  0.00    +0.012 C 
ATOM     24  C   UNL     1      -7.543  -2.079   3.812  0.00  0.00    +0.015 C 
ATOM     25  C   UNL     1      -7.206  -2.347   2.300  0.00  0.00    +0.013 C 
ATOM     26  C   UNL     1      -7.018  -3.868   2.340  0.00  0.00    -0.027 C 
ATOM     27  C   UNL     1      -6.503  -4.194   3.509  0.00  0.00    -0.027 C 
ENDBRANCH  20  21
ENDBRANCH   4  20
TORSDOF 4
