REMARK  Name = ZINC16039057
REMARK  7 active torsions:
REMARK  status: ('A' for Active; 'I' for Inactive)
REMARK    1  A    between atoms: C_1  and  C_2
REMARK    2  A    between atoms: C_4  and  N_39
REMARK    3  A    between atoms: C_7  and  N_8
REMARK    4  A    between atoms: C_16  and  C_37
REMARK    5  A    between atoms: C_20  and  C_26
REMARK    6  A    between atoms: C_26  and  C_28
REMARK    7  A    between atoms: C_32  and  N_34
REMARK                            x       y       z     vdW  Elec       q    Type
REMARK                         _______ _______ _______ _____ _____    ______ ____
ROOT
ATOM      1  N   UNL     1       6.057   0.114  -3.310  0.00  0.00    -0.210 N 
ATOM      2  C   UNL     1       7.105   0.864  -2.855  0.00  0.00    +0.232 C 
ATOM      3  O   UNL     1       8.013   1.325  -3.513  0.00  0.00    -0.274 OA
ATOM      4  C   UNL     1       6.904   1.000  -1.379  0.00  0.00    +0.114 C 
ATOM      5  C   UNL     1       7.114   2.333  -0.670  0.00  0.00    +0.111 C 
ATOM      6  C   UNL     1       8.458   2.364   0.011  0.00  0.00    +0.015 C 
ATOM      7  C   UNL     1       8.576   2.816   1.271  0.00  0.00    +0.051 C 
ATOM      8  C   UNL     1       7.405   3.283   2.036  0.00  0.00    +0.033 C 
ATOM      9  C   UNL     1       6.168   3.010   1.580  0.00  0.00    +0.073 C 
ATOM     10  N   UNL     1       6.071   2.308   0.398  0.00  0.00    -0.317 N 
ATOM     11  C   UNL     1       4.966   1.416  -0.038  0.00  0.00    +0.157 C 
ATOM     12  C   UNL     1       5.327   1.039  -1.414  0.00  0.00    +0.118 C 
ATOM     13  C   UNL     1       5.029   0.031  -2.403  0.00  0.00    +0.232 C 
ATOM     14  O   UNL     1       4.080  -0.723  -2.428  0.00  0.00    -0.274 OA
ENDROOT
BRANCH   1  21
ATOM     15  C   UNL     1       4.995   1.576  -5.509  0.00  0.00    +0.046 C 
ATOM     16  C   UNL     1       5.523   0.174  -5.667  0.00  0.00    -0.026 A 
ATOM     17  C   UNL     1       5.501  -0.438  -6.905  0.00  0.00    +0.038 A 
ATOM     18  C   UNL     1       5.986  -1.724  -7.051  0.00  0.00    +0.127 A 
ATOM     19  C   UNL     1       6.494  -2.403  -5.958  0.00  0.00    +0.034 A 
ATOM     20  C   UNL     1       6.525  -1.794  -4.719  0.00  0.00    +0.026 A 
ATOM     21  C   UNL     1       6.033  -0.504  -4.569  0.00  0.00    +0.047 A 
BRANCH  18  22
ATOM     22  N   UNL     1       5.961  -2.377  -8.380  0.00  0.00    +0.056 N 
ATOM     23  O   UNL     1       5.513  -1.781  -9.343  0.00  0.00    -0.126 OA
ATOM     24  O   UNL     1       6.388  -3.510  -8.509  0.00  0.00    -0.126 OA
ENDBRANCH  18  22
ENDBRANCH   1  21
BRANCH  11  25
ATOM     25  C   UNL     1       3.653   2.155  -0.022  0.00  0.00    +0.184 C 
ATOM     26  O   UNL     1       3.640   3.368  -0.015  0.00  0.00    -0.290 OA
BRANCH  25  27
ATOM     27  C   UNL     1       2.386   1.406  -0.013  0.00  0.00    +0.021 A 
ATOM     28  C   UNL     1       2.397   0.007  -0.020  0.00  0.00    +0.011 A 
ATOM     29  C   UNL     1       1.206  -0.687  -0.013  0.00  0.00    +0.003 A 
ATOM     30  C   UNL     1       0.002  -0.004   0.002  0.00  0.00    +0.033 A 
ATOM     31  C   UNL     1      -0.017   1.380   0.010  0.00  0.00    +0.127 A 
ATOM     32  C   UNL     1       1.166   2.089   0.002  0.00  0.00    +0.044 A 
BRANCH  31  33
ATOM     33  N   UNL     1      -1.309   2.100   0.020  0.00  0.00    +0.056 N 
ATOM     34  O   UNL     1      -2.355   1.475   0.021  0.00  0.00    -0.126 OA
ATOM     35  O   UNL     1      -1.328   3.318   0.026  0.00  0.00    -0.126 OA
ENDBRANCH  31  33
ENDBRANCH  25  27
ENDBRANCH  11  25
BRANCH   7  36
ATOM     36  C   UNL     1       9.869   2.844   1.886  0.00  0.00    +0.099 C 
ATOM     37  N   UNL     1      10.895   2.866   2.374  0.00  0.00    -0.191 NA
ENDBRANCH   7  36
TORSDOF 6
