REMARK  Name = ZINC08904491
REMARK  12 active torsions:
REMARK  status: ('A' for Active; 'I' for Inactive)
REMARK    1  A    between atoms: C_1  and  C_2
REMARK    2  A    between atoms: C_2  and  C_3
REMARK    3  A    between atoms: C_2  and  C_4
REMARK    4  A    between atoms: N_9  and  C_12
REMARK    5  A    between atoms: C_13  and  N_19
REMARK    6  A    between atoms: N_19  and  C_20
REMARK    7  A    between atoms: C_20  and  N_22
REMARK    8  A    between atoms: C_23  and  C_25
REMARK    9  A    between atoms: C_28  and  C_31
REMARK   10  A    between atoms: C_31  and  C_32
REMARK   11  A    between atoms: C_31  and  C_33
REMARK   12  A    between atoms: C_31  and  C_34
REMARK                            x       y       z     vdW  Elec       q    Type
REMARK                         _______ _______ _______ _____ _____    ______ ____
ROOT
ATOM      1  C   UNL     1       4.813  -6.979   0.119  0.00  0.00    +0.070 A 
ATOM      2  C   UNL     1       3.611  -6.276   0.034  0.00  0.00    +0.055 A 
ATOM      3  C   UNL     1       2.408  -6.965   0.042  0.00  0.00    +0.025 A 
ATOM      4  C   UNL     1       2.400  -8.344   0.139  0.00  0.00    +0.003 A 
ATOM      5  C   UNL     1       3.590  -9.041   0.229  0.00  0.00    +0.022 A 
ATOM      6  C   UNL     1       4.796  -8.363   0.222  0.00  0.00    +0.064 A 
ATOM      7 CL   UNL     1       6.288  -9.243   0.335  0.00  0.00    -0.082 Cl
ENDROOT
BRANCH   1  13
ATOM      8  C   UNL     1      10.101  -6.101   0.141  0.00  0.00    +0.218 C 
ATOM      9  O   UNL     1      10.666  -6.274   1.201  0.00  0.00    -0.275 OA
ATOM     10  N   UNL     1       8.780  -5.834   0.117  0.00  0.00    -0.298 N 
ATOM     11  C   UNL     1       8.027  -5.636   1.365  0.00  0.00    +0.126 C 
ATOM     12  C   UNL     1       6.792  -6.543   1.337  0.00  0.00    +0.124 C 
ATOM     13  N   UNL     1       6.032  -6.291   0.105  0.00  0.00    -0.324 N 
ATOM     14  C   UNL     1       6.818  -6.635  -1.087  0.00  0.00    +0.124 C 
ATOM     15  C   UNL     1       8.054  -5.732  -1.158  0.00  0.00    +0.126 C 
BRANCH   8  17
ATOM     16  C   UNL     1      12.294  -5.651  -0.926  0.00  0.00    +0.017 C 
ATOM     17  C   UNL     1      10.877  -6.184  -1.148  0.00  0.00    +0.069 C 
ATOM     18  C   UNL     1      10.946  -7.642  -1.608  0.00  0.00    +0.017 C 
ENDBRANCH   8  17
ENDBRANCH   1  13
BRANCH   2  19
ATOM     19  N   UNL     1       3.621  -4.879  -0.065  0.00  0.00    -0.295 N 
ATOM     20  H   UNL     1       4.260  -4.360   0.448  0.00  0.00    +0.154 HD
BRANCH  19  21
ATOM     21  C   UNL     1       2.741  -4.254  -0.873  0.00  0.00    +0.141 C 
ATOM     22  S   UNL     1       1.663  -5.171  -1.836  0.00  0.00    -0.018 S 
BRANCH  21  23
ATOM     23  N   UNL     1       2.711  -2.908  -0.923  0.00  0.00    -0.264 N 
ATOM     24  C   UNL     1       1.831  -2.283  -1.731  0.00  0.00    +0.250 C 
ATOM     25  O   UNL     1       1.066  -2.934  -2.415  0.00  0.00    -0.270 OA
ATOM     26  H   UNL     1       3.322  -2.388  -0.378  0.00  0.00    +0.157 HD
BRANCH  24  27
ATOM     27  C   UNL     1       1.798  -0.807  -1.786  0.00  0.00    +0.037 A 
ATOM     28  C   UNL     1       0.888  -0.157  -2.622  0.00  0.00    +0.013 A 
ATOM     29  C   UNL     1       0.861   1.222  -2.668  0.00  0.00    +0.005 A 
ATOM     30  C   UNL     1       1.734   1.960  -1.888  0.00  0.00    -0.042 A 
ATOM     31  C   UNL     1       2.638   1.322  -1.058  0.00  0.00    +0.005 A 
ATOM     32  C   UNL     1       2.675  -0.056  -1.002  0.00  0.00    +0.013 A 
BRANCH  30  33
ATOM     33  C   UNL     1       1.700   3.465  -1.944  0.00  0.00    -0.013 C 
ATOM     34  C   UNL     1       0.315   3.960  -1.523  0.00  0.00    +0.015 C 
ATOM     35  C   UNL     1       2.756   4.035  -0.995  0.00  0.00    +0.015 C 
ATOM     36  C   UNL     1       1.994   3.929  -3.372  0.00  0.00    +0.015 C 
ENDBRANCH  30  33
ENDBRANCH  24  27
ENDBRANCH  21  23
ENDBRANCH  19  21
ENDBRANCH   2  19
TORSDOF 7
