REMARK  Name = ZINC58536693
REMARK  5 active torsions:
REMARK  status: ('A' for Active; 'I' for Inactive)
REMARK    1  A    between atoms: C_3  and  N_19
REMARK    2  A    between atoms: C_6  and  C_7
REMARK    3  A    between atoms: C_8  and  C_9
REMARK    4  A    between atoms: C_8  and  C_11
REMARK    5  A    between atoms: N_13  and  C_14
REMARK                            x       y       z     vdW  Elec       q    Type
REMARK                         _______ _______ _______ _____ _____    ______ ____
ROOT
ATOM      1  C   UNL     1      -1.255  -0.756  -0.037  0.00  0.00    +0.032 C 
ATOM      2  C   UNL     1      -1.236  -2.120  -0.100  0.00  0.00    +0.114 C 
ENDROOT
BRANCH   1   8
ATOM      3  C   UNL     1       0.893  -0.347  -1.221  0.00  0.00    +0.010 A 
ATOM      4  C   UNL     1       2.058   0.372  -1.377  0.00  0.00    +0.033 A 
ATOM      5  C   UNL     1       2.336   1.438  -0.538  0.00  0.00    +0.126 A 
ATOM      6  C   UNL     1       1.448   1.791   0.464  0.00  0.00    +0.033 A 
ATOM      7  C   UNL     1       0.278   1.083   0.633  0.00  0.00    +0.010 A 
ATOM      8  C   UNL     1      -0.011   0.003  -0.211  0.00  0.00    -0.024 A 
BRANCH   5   9
ATOM      9  N   UNL     1       3.591   2.204  -0.713  0.00  0.00    +0.056 N 
ATOM     10  O   UNL     1       4.369   1.898  -1.586  0.00  0.00    -0.126 OA
ATOM     11  O   UNL     1       3.837   3.135   0.018  0.00  0.00    -0.126 OA
ENDBRANCH   5   9
ENDBRANCH   1   8
BRANCH   2  12
ATOM     12  C   UNL     1       0.049  -2.839  -0.117  0.00  0.00    +0.255 C 
ATOM     13  O   UNL     1       1.088  -2.232   0.059  0.00  0.00    -0.269 OA
ATOM     14  N   UNL     1       0.074  -4.170  -0.327  0.00  0.00    -0.308 N 
ATOM     15  H   UNL     1      -0.755  -4.655  -0.467  0.00  0.00    +0.149 HD
BRANCH  14  16
ATOM     16  C   UNL     1       1.352  -4.885  -0.344  0.00  0.00    +0.073 C 
ATOM     17  C   UNL     1       1.732  -5.323   1.086  0.00  0.00    +0.022 C 
ATOM     18  C   UNL     1       1.225  -6.784   1.183  0.00  0.00    +0.002 C 
ATOM     19  C   UNL     1       1.533  -7.347  -0.227  0.00  0.00    +0.002 C 
ATOM     20  C   UNL     1       1.226  -6.172  -1.179  0.00  0.00    +0.022 C 
ENDBRANCH  14  16
ENDBRANCH   2  12
BRANCH   2  21
ATOM     21  C   UNL     1      -2.466  -2.852  -0.149  0.00  0.00    +0.104 C 
ATOM     22  N   UNL     1      -3.442  -3.432  -0.189  0.00  0.00    -0.191 NA
ENDBRANCH   2  21
TORSDOF 5
