REMARK  Name = ZINC00039182
REMARK  3 active torsions:
REMARK  status: ('A' for Active; 'I' for Inactive)
REMARK    1  A    between atoms: C_1  and  O_2
REMARK    2  A    between atoms: O_2  and  C_3
REMARK    3  A    between atoms: C_6  and  C_9
REMARK                            x       y       z     vdW  Elec       q    Type
REMARK                         _______ _______ _______ _____ _____    ______ ____
ROOT
ATOM      1  C   UNL     1       3.711  -0.707  -0.037  0.00  0.00    +0.060 C 
ATOM      2  C   UNL     1       4.527  -0.326   1.201  0.00  0.00    +0.109 C 
ATOM      3  C   UNL     1       5.926  -0.867   1.068  0.00  0.00    +0.218 C 
ATOM      4  O   UNL     1       6.517  -1.255   2.054  0.00  0.00    -0.275 OA
ATOM      5  N   UNL     1       6.528  -0.923  -0.135  0.00  0.00    -0.285 N 
ATOM      6  C   UNL     1       5.871  -0.437  -1.274  0.00  0.00    +0.041 A 
ATOM      7  C   UNL     1       4.486  -0.327  -1.273  0.00  0.00    -0.015 A 
ATOM      8  C   UNL     1       3.826   0.129  -2.397  0.00  0.00    +0.055 A 
ATOM      9  C   UNL     1       4.546   0.484  -3.526  0.00  0.00    +0.167 A 
ATOM     10  C   UNL     1       5.936   0.381  -3.527  0.00  0.00    +0.168 A 
ATOM     11  C   UNL     1       6.596  -0.079  -2.401  0.00  0.00    +0.073 A 
ATOM     12  O   UNL     1       6.394   0.792  -4.749  0.00  0.00    -0.453 OA
ATOM     13  C   UNL     1       5.328   1.627  -5.259  0.00  0.00    +0.466 C 
ATOM     14  O   UNL     1       4.152   0.956  -4.749  0.00  0.00    -0.453 OA
ATOM     15  H   UNL     1       7.418  -1.301  -0.214  0.00  0.00    +0.155 HD
ENDROOT
BRANCH   1  19
ATOM     16  C   UNL     1      -0.017   1.383   0.010  0.00  0.00    +0.120 A 
ATOM     17  C   UNL     1       1.177   2.091   0.002  0.00  0.00    +0.046 A 
ATOM     18  C   UNL     1       2.380   1.413  -0.013  0.00  0.00    +0.008 A 
ATOM     19  C   UNL     1       2.396   0.030  -0.021  0.00  0.00    -0.039 A 
ATOM     20  C   UNL     1       1.208  -0.677  -0.013  0.00  0.00    +0.008 A 
ATOM     21  C   UNL     1       0.002  -0.004   0.002  0.00  0.00    +0.046 A 
BRANCH  16  23
ATOM     22  C   UNL     1      -1.145   3.475   0.026  0.00  0.00    +0.277 C 
ATOM     23  O   UNL     1      -1.202   2.048   0.019  0.00  0.00    -0.495 OA
ENDBRANCH  16  23
ENDBRANCH   1  19
TORSDOF 2
