REMARK  Name = ZINC37418308
REMARK  6 active torsions:
REMARK  status: ('A' for Active; 'I' for Inactive)
REMARK    1  A    between atoms: C_6  and  S_7
REMARK    2  A    between atoms: S_7  and  N_10
REMARK    3  A    between atoms: N_10  and  C_11
REMARK    4  A    between atoms: C_11  and  C_13
REMARK    5  A    between atoms: C_11  and  C_15
REMARK    6  A    between atoms: C_13  and  O_14
REMARK                            x       y       z     vdW  Elec       q    Type
REMARK                         _______ _______ _______ _____ _____    ______ ____
ROOT
ATOM      1  S   UNL     1      -1.512  -0.906   0.012  0.00  0.00    +0.059 S 
ATOM      2  O   UNL     1      -1.218  -2.186   0.553  0.00  0.00    -0.153 OA
ATOM      3  O   UNL     1      -2.492  -0.046   0.578  0.00  0.00    -0.153 OA
ENDROOT
BRANCH   1   9
ATOM      4  C   UNL     1      -0.017   1.378   0.010  0.00  0.00    +0.029 A 
ATOM      5  C   UNL     1       1.171   2.086   0.002  0.00  0.00    +0.016 A 
ATOM      6  C   UNL     1       2.378   1.411  -0.013  0.00  0.00    +0.013 A 
ATOM      7  C   UNL     1       2.396   0.028  -0.021  0.00  0.00    +0.016 A 
ATOM      8  C   UNL     1       1.208  -0.679  -0.013  0.00  0.00    +0.029 A 
ATOM      9  C   UNL     1       0.002  -0.004   0.002  0.00  0.00    +0.105 A 
ATOM     10  I   UNL     1       4.178   2.482  -0.025  0.00  0.00    -0.044 I 
ENDBRANCH   1   9
BRANCH   1  11
ATOM     11  N   UNL     1      -1.948  -1.148  -1.567  0.00  0.00    -0.174 NA
ATOM     12  H   UNL     1      -2.756  -0.738  -1.915  0.00  0.00    +0.149 HD
BRANCH  11  13
ATOM     13  C   UNL     1      -1.115  -1.980  -2.438  0.00  0.00    +0.214 C 
BRANCH  13  14
ATOM     14  C   UNL     1      -0.164  -1.102  -3.211  0.00  0.00    +0.376 C 
ATOM     15  O   UNL     1       0.926  -1.533  -3.548  0.00  0.00    -0.244 OA
ATOM     16  O   UNL     1      -0.484   0.038  -3.499  0.00  0.00    -0.244 OA
ENDBRANCH  13  14
BRANCH  13  17
ATOM     17  C   UNL     1      -2.006  -2.749  -3.414  0.00  0.00    +0.187 C 
BRANCH  17  18
ATOM     18  O   UNL     1      -2.663  -1.828  -4.287  0.00  0.00    -0.393 OA
ATOM     19  H   UNL     1      -3.247  -2.247  -4.934  0.00  0.00    +0.209 HD
ENDBRANCH  17  18
ENDBRANCH  13  17
ENDBRANCH  11  13
ENDBRANCH   1  11
TORSDOF 6
