REMARK  Name = ZINC01870950
REMARK  5 active torsions:
REMARK  status: ('A' for Active; 'I' for Inactive)
REMARK    1  A    between atoms: C_12  and  C_35
REMARK    2  A    between atoms: C_14  and  C_26
REMARK    3  A    between atoms: C_26  and  C_28
REMARK    4  A    between atoms: C_35  and  C_37
REMARK    5  A    between atoms: C_40  and  N_43
REMARK                            x       y       z     vdW  Elec       q    Type
REMARK                         _______ _______ _______ _____ _____    ______ ____
ROOT
ATOM      1  C   UNL     1      -0.017   1.377   0.010  0.00  0.00    +0.001 A 
ATOM      2  C   UNL     1       1.164   2.099   0.002  0.00  0.00    +0.002 A 
ATOM      3  C   UNL     1       2.385   1.445  -0.021  0.00  0.00    +0.024 A 
ATOM      4  C   UNL     1       2.418   0.069  -0.032  0.00  0.00    +0.038 A 
ATOM      5  C   UNL     1       1.219  -0.674  -0.011  0.00  0.00    -0.004 A 
ATOM      6  C   UNL     1       0.002  -0.004   0.002  0.00  0.00    +0.010 A 
ATOM      7  C   UNL     1       1.300  -2.147   0.022  0.00  0.00    +0.007 C 
ATOM      8  C   UNL     1       2.423  -2.781  -0.305  0.00  0.00    -0.003 C 
ATOM      9  C   UNL     1       3.644  -2.008  -0.723  0.00  0.00    +0.117 C 
ATOM     10  N   UNL     1       3.589  -0.677  -0.076  0.00  0.00    -0.311 N 
ATOM     11  C   UNL     1       4.900  -0.397   0.515  0.00  0.00    +0.157 C 
ATOM     12  C   UNL     1       5.425  -1.802   0.926  0.00  0.00    +0.110 C 
ATOM     13  C   UNL     1       4.932  -2.682  -0.256  0.00  0.00    +0.108 C 
ATOM     14  C   UNL     1       4.721  -4.099   0.153  0.00  0.00    -0.008 A 
ATOM     15  C   UNL     1       3.905  -4.672   1.105  0.00  0.00    +0.006 A 
ATOM     16  C   UNL     1       3.953  -6.056   1.229  0.00  0.00    +0.000 A 
ATOM     17  C   UNL     1       4.783  -6.821   0.434  0.00  0.00    +0.002 A 
ATOM     18  C   UNL     1       5.606  -6.253  -0.525  0.00  0.00    +0.023 A 
ATOM     19  C   UNL     1       5.568  -4.865  -0.661  0.00  0.00    +0.038 A 
ATOM     20  N   UNL     1       6.274  -4.045  -1.525  0.00  0.00    -0.284 N 
ATOM     21  C   UNL     1       5.962  -2.741  -1.355  0.00  0.00    +0.231 C 
ATOM     22  O   UNL     1       6.420  -1.801  -1.969  0.00  0.00    -0.274 OA
ATOM     23  H   UNL     1       6.917  -4.369  -2.175  0.00  0.00    +0.155 HD
ENDROOT
BRANCH  12  24
ATOM     24  C   UNL     1       6.929  -1.813   1.012  0.00  0.00    +0.170 C 
ATOM     25  O   UNL     1       7.591  -2.067   0.029  0.00  0.00    -0.292 OA
BRANCH  24  26
ATOM     26  C   UNL     1       7.595  -1.515   2.290  0.00  0.00    +0.018 A 
ATOM     27  C   UNL     1       6.834  -1.227   3.428  0.00  0.00    +0.013 A 
ATOM     28  C   UNL     1       7.464  -0.950   4.622  0.00  0.00    +0.020 A 
ATOM     29  C   UNL     1       8.848  -0.955   4.696  0.00  0.00    +0.041 A 
ATOM     30  C   UNL     1       9.608  -1.239   3.573  0.00  0.00    +0.020 A 
ATOM     31  C   UNL     1       8.991  -1.524   2.374  0.00  0.00    +0.013 A 
ATOM     32 CL   UNL     1       9.634  -0.603   6.204  0.00  0.00    -0.084 Cl
ENDBRANCH  24  26
ENDBRANCH  12  24
BRANCH  11  33
ATOM     33  C   UNL     1       5.814   0.237  -0.502  0.00  0.00    +0.184 C 
ATOM     34  O   UNL     1       5.518   0.222  -1.677  0.00  0.00    -0.290 OA
BRANCH  33  35
ATOM     35  C   UNL     1       7.068   0.875  -0.067  0.00  0.00    +0.019 A 
ATOM     36  C   UNL     1       7.416   0.889   1.287  0.00  0.00    +0.013 A 
ATOM     37  C   UNL     1       8.592   1.489   1.686  0.00  0.00    +0.033 A 
ATOM     38  C   UNL     1       9.426   2.075   0.750  0.00  0.00    +0.126 A 
ATOM     39  C   UNL     1       9.088   2.065  -0.592  0.00  0.00    +0.033 A 
ATOM     40  C   UNL     1       7.919   1.464  -1.008  0.00  0.00    +0.013 A 
BRANCH  38  41
ATOM     41  N   UNL     1      10.686   2.718   1.187  0.00  0.00    +0.056 N 
ATOM     42  O   UNL     1      10.985   2.729   2.358  0.00  0.00    -0.126 OA
ATOM     43  O   UNL     1      11.417   3.231   0.372  0.00  0.00    -0.126 OA
ENDBRANCH  38  41
ENDBRANCH  33  35
ENDBRANCH  11  33
TORSDOF 5
