REMARK  Name = ZINC46607041
REMARK  12 active torsions:
REMARK  status: ('A' for Active; 'I' for Inactive)
REMARK    1  A    between atoms: C_1  and  C_2
REMARK    2  A    between atoms: C_2  and  C_3
REMARK    3  A    between atoms: C_3  and  C_5
REMARK    4  A    between atoms: C_3  and  N_24
REMARK    5  A    between atoms: C_5  and  N_6
REMARK    6  A    between atoms: C_7  and  C_9
REMARK    7  A    between atoms: C_9  and  C_10
REMARK    8  A    between atoms: C_10  and  N_11
REMARK    9  A    between atoms: N_11  and  S_12
REMARK   10  A    between atoms: S_12  and  C_15
REMARK   11  A    between atoms: C_18  and  C_21
REMARK   12  A    between atoms: C_21  and  C_23
REMARK                            x       y       z     vdW  Elec       q    Type
REMARK                         _______ _______ _______ _____ _____    ______ ____
ROOT
ATOM      1  N   UNL     1       1.625  -2.544   2.243  0.00  0.00    -0.317 N 
ATOM      2  C   UNL     1       2.002  -3.837   2.299  0.00  0.00    +0.214 C 
ATOM      3  O   UNL     1       1.883  -4.545   1.322  0.00  0.00    -0.276 OA
ATOM      4  H   UNL     1       1.720  -1.977   3.025  0.00  0.00    +0.149 HD
ENDROOT
BRANCH   1   5
ATOM      5  C   UNL     1       1.070  -1.996   1.003  0.00  0.00    +0.089 C 
BRANCH   5   6
ATOM      6  C   UNL     1       0.559  -0.576   1.257  0.00  0.00    -0.051 C 
BRANCH   6   7
ATOM      7  N   UNL     1      -0.637  -0.631   2.108  0.00  0.00    +0.385 N 
ATOM      8  C   UNL     1      -0.298  -1.260   3.394  0.00  0.00    -0.073 C 
ATOM      9  C   UNL     1      -1.454  -1.034   4.368  0.00  0.00    +0.017 C 
ATOM     10  C   UNL     1      -2.753  -1.448   3.724  0.00  0.00    -0.048 A 
ATOM     11  C   UNL     1      -3.861  -1.651   4.532  0.00  0.00    +0.004 A 
ATOM     12  C   UNL     1      -5.067  -2.028   3.977  0.00  0.00    +0.000 A 
ATOM     13  C   UNL     1      -5.171  -2.204   2.610  0.00  0.00    +0.000 A 
ATOM     14  C   UNL     1      -4.067  -2.004   1.805  0.00  0.00    +0.002 A 
ATOM     15  C   UNL     1      -2.854  -1.627   2.361  0.00  0.00    -0.061 A 
ATOM     16  C   UNL     1      -1.674  -1.427   1.446  0.00  0.00    -0.042 C 
ATOM     17  H   UNL     1      -0.981   0.304   2.269  0.00  0.00    -0.081 HD
ENDBRANCH   6   7
BRANCH   6  19
ATOM     18  C   UNL     1      -0.233   1.530   0.170  0.00  0.00    +0.002 C 
ATOM     19  C   UNL     1       0.206   0.085  -0.077  0.00  0.00    -0.017 C 
ENDBRANCH   6  19
ENDBRANCH   5   6
ENDBRANCH   1   5
BRANCH   2  20
ATOM     20  C   UNL     1       2.573  -4.401   3.575  0.00  0.00    +0.112 C 
BRANCH  20  21
ATOM     21  C   UNL     1       2.918  -5.877   3.370  0.00  0.00    +0.115 C 
BRANCH  21  22
ATOM     22  N   UNL     1       3.472  -6.426   4.610  0.00  0.00    -0.189 NA
ATOM     23  H   UNL     1       3.770  -5.828   5.314  0.00  0.00    +0.148 HD
BRANCH  22  24
ATOM     24  S   UNL     1       3.590  -8.065   4.810  0.00  0.00    +0.058 S 
ATOM     25  O   UNL     1       4.183  -8.277   6.084  0.00  0.00    -0.153 OA
ATOM     26  O   UNL     1       2.325  -8.609   4.458  0.00  0.00    -0.153 OA
BRANCH  24  27
ATOM     27  C   UNL     1       4.742  -8.655   3.614  0.00  0.00    +0.105 A 
ATOM     28  C   UNL     1       4.298  -9.040   2.362  0.00  0.00    +0.029 A 
ATOM     29  C   UNL     1       5.193  -9.502   1.421  0.00  0.00    +0.013 A 
ATOM     30  C   UNL     1       6.553  -9.582   1.734  0.00  0.00    +0.017 A 
ATOM     31  C   UNL     1       6.995  -9.190   3.002  0.00  0.00    +0.013 A 
ATOM     32  C   UNL     1       6.088  -8.725   3.931  0.00  0.00    +0.029 A 
BRANCH  30  33
ATOM     33  C   UNL     1       7.515 -10.075   0.736  0.00  0.00    +0.160 C 
ATOM     34  O   UNL     1       7.129 -10.414  -0.362  0.00  0.00    -0.292 OA
ATOM     35  C   UNL     1       8.980 -10.159   1.079  0.00  0.00    +0.091 C 
ENDBRANCH  30  33
ENDBRANCH  24  27
ENDBRANCH  22  24
ENDBRANCH  21  22
ENDBRANCH  20  21
ENDBRANCH   2  20
TORSDOF 10
