REMARK  Name = ZINC26700960
REMARK  4 active torsions:
REMARK  status: ('A' for Active; 'I' for Inactive)
REMARK    1  A    between atoms: C_1  and  C_2
REMARK    2  A    between atoms: C_18  and  C_21
REMARK    3  A    between atoms: C_21  and  C_23
REMARK    4  A    between atoms: C_21  and  O_29
REMARK                            x       y       z     vdW  Elec       q    Type
REMARK                         _______ _______ _______ _____ _____    ______ ____
ROOT
ATOM      1  C   UNL     1       4.428   7.423 -10.374  0.00  0.00    +0.067 C 
ATOM      2  C   UNL     1       4.728   6.695  -9.089  0.00  0.00    +0.063 A 
ATOM      3  C   UNL     1       3.896   6.642  -7.977  0.00  0.00    +0.073 A 
ATOM      4  C   UNL     1       4.532   5.877  -7.010  0.00  0.00    +0.158 A 
ATOM      5  N   UNL     1       4.154   5.526  -5.766  0.00  0.00    -0.212 NA
ATOM      6  C   UNL     1       4.913   4.781  -4.991  0.00  0.00    +0.133 A 
ATOM      7  C   UNL     1       6.214   4.324  -5.497  0.00  0.00    +0.040 A 
ATOM      8  C   UNL     1       7.062   3.525  -4.729  0.00  0.00    +0.013 A 
ATOM      9  C   UNL     1       8.261   3.120  -5.246  0.00  0.00    +0.001 A 
ATOM     10  C   UNL     1       8.639   3.489  -6.529  0.00  0.00    +0.002 A 
ATOM     11  C   UNL     1       7.812   4.272  -7.308  0.00  0.00    +0.028 A 
ATOM     12  C   UNL     1       6.591   4.694  -6.801  0.00  0.00    +0.078 A 
ATOM     13  N   UNL     1       5.727   5.480  -7.543  0.00  0.00    -0.214 N 
ATOM     14  N   UNL     1       5.815   6.007  -8.837  0.00  0.00    -0.170 NA
ATOM     15  N   UNL     1       4.495   4.441  -3.720  0.00  0.00    -0.315 N 
ATOM     16  C   UNL     1       4.320   5.636  -2.886  0.00  0.00    +0.107 C 
ATOM     17  C   UNL     1       3.999   5.215  -1.450  0.00  0.00    +0.025 C 
ATOM     18  C   UNL     1       2.721   4.372  -1.443  0.00  0.00    +0.025 C 
ATOM     19  C   UNL     1       2.912   3.159  -2.358  0.00  0.00    +0.025 C 
ATOM     20  C   UNL     1       3.265   3.640  -3.768  0.00  0.00    +0.107 C 
ENDROOT
BRANCH  18  21
ATOM     21  C   UNL     1       2.429   3.897  -0.018  0.00  0.00    +0.148 C 
BRANCH  21  22
ATOM     22  C   UNL     1       1.172   3.066  -0.014  0.00  0.00    -0.019 A 
ATOM     23  C   UNL     1       1.256   1.686   0.001  0.00  0.00    +0.006 A 
ATOM     24  C   UNL     1       0.103   0.923   0.005  0.00  0.00    +0.000 A 
ATOM     25  C   UNL     1      -1.134   1.541  -0.011  0.00  0.00    +0.000 A 
ATOM     26  C   UNL     1      -1.218   2.920  -0.021  0.00  0.00    +0.000 A 
ATOM     27  C   UNL     1      -0.065   3.683  -0.024  0.00  0.00    +0.006 A 
ENDBRANCH  21  22
BRANCH  21  28
ATOM     28  O   UNL     1       2.254   5.030   0.835  0.00  0.00    -0.387 OA
ATOM     29  H   UNL     1       2.035   4.885   1.903  0.00  0.00    +0.210 HD
ENDBRANCH  21  28
ENDBRANCH  18  21
TORSDOF 3
