REMARK  Name = ZINC64565329
REMARK  4 active torsions:
REMARK  status: ('A' for Active; 'I' for Inactive)
REMARK    1  A    between atoms: C_4  and  N_7
REMARK    2  A    between atoms: N_16  and  C_19
REMARK    3  A    between atoms: C_19  and  C_20
REMARK    4  A    between atoms: C_22  and  C_25
REMARK                            x       y       z     vdW  Elec       q    Type
REMARK                         _______ _______ _______ _____ _____    ______ ____
ROOT
ATOM      1  N   UNL     1       3.624  -0.652  -0.037  0.00  0.00    -0.207 N 
ATOM      2  C   UNL     1       4.839  -0.029  -0.041  0.00  0.00    +0.255 C 
ATOM      3  O   UNL     1       5.057   1.139  -0.282  0.00  0.00    -0.272 OA
ATOM      4  C   UNL     1       5.848  -1.077   0.312  0.00  0.00    +0.246 C 
ATOM      5  C   UNL     1       5.105  -2.296  -0.362  0.00  0.00    +0.216 C 
ATOM      6  C   UNL     1       3.733  -2.020  -0.046  0.00  0.00    +0.251 C 
ATOM      7  O   UNL     1       2.853  -2.826   0.167  0.00  0.00    -0.273 OA
ATOM      8  N   UNL     1       6.150  -3.223  -0.377  0.00  0.00    -0.214 N 
ATOM      9  N   UNL     1       7.265  -2.401  -0.744  0.00  0.00    -0.082 NA
ATOM     10  N   UNL     1       7.113  -1.188  -0.393  0.00  0.00    -0.156 NA
ENDROOT
BRANCH   1  14
ATOM     11  C   UNL     1      -0.017   1.379   0.010  0.00  0.00    +0.000 A 
ATOM     12  C   UNL     1       1.170   2.089   0.002  0.00  0.00    +0.002 A 
ATOM     13  C   UNL     1       2.377   1.419  -0.013  0.00  0.00    +0.024 A 
ATOM     14  C   UNL     1       2.399   0.031  -0.021  0.00  0.00    +0.044 A 
ATOM     15  C   UNL     1       1.207  -0.680  -0.013  0.00  0.00    +0.024 A 
ATOM     16  C   UNL     1       0.002  -0.004   0.002  0.00  0.00    +0.002 A 
ENDBRANCH   1  14
BRANCH   8  17
ATOM     17  C   UNL     1       6.115  -4.660  -0.092  0.00  0.00    +0.227 C 
BRANCH  17  18
ATOM     18  C   UNL     1       5.847  -5.418  -1.366  0.00  0.00    +0.247 A 
ATOM     19  N   UNL     1       6.752  -5.868  -2.188  0.00  0.00    -0.190 NA
ATOM     20  C   UNL     1       6.163  -6.497  -3.221  0.00  0.00    +0.202 A 
ATOM     21  N   UNL     1       4.864  -6.450  -3.055  0.00  0.00    -0.056 NA
ATOM     22  O   UNL     1       4.639  -5.750  -1.840  0.00  0.00    -0.336 OA
BRANCH  20  23
ATOM     23  C   UNL     1       6.867  -7.139  -4.359  0.00  0.00    +0.023 A 
ATOM     24  C   UNL     1       8.259  -7.126  -4.417  0.00  0.00    +0.013 A 
ATOM     25  C   UNL     1       8.909  -7.724  -5.477  0.00  0.00    +0.021 A 
ATOM     26  C   UNL     1       8.181  -8.336  -6.482  0.00  0.00    +0.041 A 
ATOM     27  C   UNL     1       6.797  -8.351  -6.430  0.00  0.00    +0.021 A 
ATOM     28  C   UNL     1       6.138  -7.762  -5.370  0.00  0.00    +0.013 A 
ATOM     29 CL   UNL     1       9.004  -9.086  -7.814  0.00  0.00    -0.084 Cl
ENDBRANCH  20  23
ENDBRANCH  17  18
ENDBRANCH   8  17
TORSDOF 4
