REMARK  Name = ZINC24782139
REMARK  7 active torsions:
REMARK  status: ('A' for Active; 'I' for Inactive)
REMARK    1  A    between atoms: C_1  and  C_2
REMARK    2  A    between atoms: C_2  and  C_4
REMARK    3  A    between atoms: C_2  and  N_19
REMARK    4  A    between atoms: N_6  and  C_7
REMARK    5  A    between atoms: C_8  and  C_17
REMARK    6  A    between atoms: C_22  and  C_25
REMARK    7  A    between atoms: N_27  and  C_28
REMARK                            x       y       z     vdW  Elec       q    Type
REMARK                         _______ _______ _______ _____ _____    ______ ____
ROOT
ATOM      1  C   UNL     1      -5.210   3.851   2.807  0.00  0.00    +0.204 C 
ATOM      2  O   UNL     1      -4.238   3.845   3.533  0.00  0.00    -0.277 OA
ATOM      3  N   UNL     1      -6.327   4.505   3.181  0.00  0.00    -0.280 N 
ATOM      4  H   UNL     1      -7.208   4.511   2.523  0.00  0.00    +0.155 HD
ENDROOT
BRANCH   3   5
ATOM      5  C   UNL     1      -6.365   5.172   4.398  0.00  0.00    +0.090 A 
ATOM      6  C   UNL     1      -7.410   5.893   4.952  0.00  0.00    +0.084 A 
ATOM      7  C   UNL     1      -7.197   6.502   6.257  0.00  0.00    -0.018 A 
ATOM      8  C   UNL     1      -5.972   6.298   6.788  0.00  0.00    -0.004 A 
ATOM      9  S   UNL     1      -5.121   5.299   5.596  0.00  0.00    -0.077 S 
ATOM     10  C   UNL     1      -5.444   6.800   8.095  0.00  0.00    +0.043 C 
ATOM     11  C   UNL     1      -6.463   6.498   9.201  0.00  0.00    +0.005 C 
ATOM     12  C   UNL     1      -7.428   7.676   9.304  0.00  0.00    +0.001 C 
ATOM     13  C   UNL     1      -7.642   8.303   7.928  0.00  0.00    +0.005 C 
ATOM     14  C   UNL     1      -8.280   7.297   6.976  0.00  0.00    +0.037 C 
BRANCH   6  15
ATOM     15  C   UNL     1      -8.658   6.034   4.264  0.00  0.00    +0.102 C 
ATOM     16  N   UNL     1      -9.648   6.146   3.719  0.00  0.00    -0.191 NA
ENDBRANCH   6  15
ENDBRANCH   3   5
BRANCH   1  18
ATOM     17  C   UNL     1      -5.411   4.123   0.350  0.00  0.00    -0.004 C 
ATOM     18  C   UNL     1      -5.168   3.127   1.486  0.00  0.00    +0.016 C 
BRANCH  18  19
ATOM     19  N   UNL     1      -3.851   2.500   1.313  0.00  0.00    +0.387 N 
ATOM     20  C   UNL     1      -3.812   1.686   0.091  0.00  0.00    -0.077 C 
ATOM     21  C   UNL     1      -2.481   0.935   0.019  0.00  0.00    -0.006 C 
ATOM     22  C   UNL     1      -1.330   1.944   0.019  0.00  0.00    +0.071 C 
ATOM     23  C   UNL     1      -1.421   2.811   1.278  0.00  0.00    -0.006 C 
ATOM     24  C   UNL     1      -2.783   3.508   1.313  0.00  0.00    -0.077 C 
ATOM     25  H   UNL     1      -3.679   1.829   2.167  0.00  0.00    -0.081 HD
BRANCH  22  26
ATOM     26  C   UNL     1      -0.014   1.209   0.009  0.00  0.00    +0.216 C 
ATOM     27  O   UNL     1       0.002  -0.004   0.002  0.00  0.00    -0.276 OA
ATOM     28  N   UNL     1       1.143   1.898   0.001  0.00  0.00    -0.318 N 
ATOM     29  C   UNL     1       2.422   1.183  -0.015  0.00  0.00    +0.128 C 
ATOM     30  H   UNL     1       1.129   2.998   0.007  0.00  0.00    +0.148 HD
ENDBRANCH  22  26
ENDBRANCH  18  19
ENDBRANCH   1  18
TORSDOF 5
