REMARK  Name = ZINC24972211
REMARK  8 active torsions:
REMARK  status: ('A' for Active; 'I' for Inactive)
REMARK    1  A    between atoms: C_1  and  C_2
REMARK    2  A    between atoms: C_18  and  S_19
REMARK    3  A    between atoms: S_19  and  C_20
REMARK    4  A    between atoms: C_20  and  C_21
REMARK    5  A    between atoms: N_26  and  C_27
REMARK    6  A    between atoms: C_27  and  C_28
REMARK    7  A    between atoms: C_28  and  C_29
REMARK    8  A    between atoms: C_28  and  C_30
REMARK                            x       y       z     vdW  Elec       q    Type
REMARK                         _______ _______ _______ _____ _____    ______ ____
ROOT
ATOM      1  C   UNL     1      -0.209  -8.386  -0.141  0.00  0.00    +0.045 C 
ATOM      2  C   UNL     1      -0.140  -6.882  -0.069  0.00  0.00    -0.032 A 
ATOM      3  C   UNL     1      -0.000  -6.244   1.156  0.00  0.00    +0.008 A 
ATOM      4  C   UNL     1       0.066  -4.862   1.177  0.00  0.00    +0.047 A 
ATOM      5  C   UNL     1      -0.022  -4.163  -0.021  0.00  0.00    +0.142 A 
ATOM      6  N   UNL     1      -0.155  -4.807  -1.169  0.00  0.00    -0.237 NA
ATOM      7  C   UNL     1      -0.214  -6.124  -1.221  0.00  0.00    +0.116 A 
ATOM      8  N   UNL     1       0.037  -2.767  -0.014  0.00  0.00    -0.240 N 
ATOM      9  C   UNL     1       1.236  -2.145  -0.097  0.00  0.00    +0.268 A 
ATOM     10  O   UNL     1       2.272  -2.780  -0.179  0.00  0.00    -0.267 OA
ATOM     11  C   UNL     1       1.242  -0.677  -0.086  0.00  0.00    +0.063 A 
ATOM     12  C   UNL     1       2.426   0.056  -0.167  0.00  0.00    +0.015 A 
ATOM     13  C   UNL     1       2.375   1.422  -0.151  0.00  0.00    +0.001 A 
ATOM     14  C   UNL     1       1.159   2.086  -0.057  0.00  0.00    +0.002 A 
ATOM     15  C   UNL     1      -0.016   1.394   0.025  0.00  0.00    +0.026 A 
ATOM     16  C   UNL     1       0.003  -0.004   0.012  0.00  0.00    +0.053 A 
ATOM     17  N   UNL     1      -1.137  -0.730   0.090  0.00  0.00    -0.335 N 
ATOM     18  C   UNL     1      -1.118  -2.039   0.078  0.00  0.00    +0.156 A 
ATOM     19  H   UNL     1      -2.110  -0.220   0.167  0.00  0.00    +0.168 HD
ENDROOT
BRANCH  18  20
ATOM     20  S   UNL     1      -2.650  -2.904   0.183  0.00  0.00    -0.080 S 
BRANCH  20  21
ATOM     21  C   UNL     1      -3.794  -1.505   0.280  0.00  0.00    +0.173 C 
BRANCH  21  22
ATOM     22  C   UNL     1      -5.208  -2.018   0.380  0.00  0.00    +0.231 C 
ATOM     23  O   UNL     1      -5.420  -3.211   0.385  0.00  0.00    -0.274 OA
ATOM     24  N   UNL     1      -6.235  -1.150   0.463  0.00  0.00    -0.240 N 
ATOM     25  C   UNL     1      -7.499  -1.609   0.552  0.00  0.00    +0.306 C 
ATOM     26  O   UNL     1      -7.713  -2.805   0.558  0.00  0.00    -0.252 OA
ATOM     27  N   UNL     1      -8.527  -0.741   0.635  0.00  0.00    -0.299 N 
ATOM     28  H   UNL     1      -6.043  -0.067   0.458  0.00  0.00    +0.159 HD
ATOM     29  H   UNL     1      -8.334   0.342   0.630  0.00  0.00    +0.150 HD
BRANCH  27  30
ATOM     30  C   UNL     1      -9.901  -1.240   0.733  0.00  0.00    +0.108 C 
BRANCH  30  31
ATOM     31  C   UNL     1     -10.868  -0.057   0.814  0.00  0.00    -0.000 C 
ATOM     32  C   UNL     1     -12.309  -0.573   0.790  0.00  0.00    +0.009 C 
ATOM     33  C   UNL     1     -10.624   0.713   2.113  0.00  0.00    +0.009 C 
ENDBRANCH  30  31
ENDBRANCH  27  30
ENDBRANCH  21  22
ENDBRANCH  20  21
ENDBRANCH  18  20
TORSDOF 5
