REMARK  Name = ZINC01357792
REMARK  7 active torsions:
REMARK  status: ('A' for Active; 'I' for Inactive)
REMARK    1  A    between atoms: C_1  and  C_2
REMARK    2  A    between atoms: C_2  and  S_3
REMARK    3  A    between atoms: S_3  and  N_6
REMARK    4  A    between atoms: N_9  and  S_12
REMARK    5  A    between atoms: S_12  and  C_15
REMARK    6  A    between atoms: C_18  and  S_21
REMARK    7  A    between atoms: S_21  and  N_24
REMARK                            x       y       z     vdW  Elec       q    Type
REMARK                         _______ _______ _______ _____ _____    ______ ____
ROOT
ATOM      1  S   UNL     1      -1.216   0.495   2.371  0.00  0.00    +0.061 S 
ATOM      2  O   UNL     1      -2.282   1.127   3.066  0.00  0.00    -0.153 OA
ATOM      3  O   UNL     1      -1.367  -0.762   1.726  0.00  0.00    -0.153 OA
ENDROOT
BRANCH   1   7
ATOM      4  N   UNL     1      -0.997   3.039  -1.073  0.00  0.00    -0.179 NA
ATOM      5  C   UNL     1      -0.761   1.597  -1.229  0.00  0.00    +0.126 C 
ATOM      6  C   UNL     1      -0.013   1.086   0.008  0.00  0.00    +0.126 C 
ATOM      7  N   UNL     1      -0.707   1.563   1.212  0.00  0.00    -0.174 NA
ATOM      8  C   UNL     1      -0.947   3.005   1.367  0.00  0.00    +0.126 C 
ATOM      9  C   UNL     1      -1.695   3.517   0.130  0.00  0.00    +0.126 C 
BRANCH   4  10
ATOM     10  S   UNL     1      -0.484   4.108  -2.229  0.00  0.00    +0.032 S 
ATOM     11  O   UNL     1      -0.300   5.333  -1.535  0.00  0.00    -0.158 OA
ATOM     12  O   UNL     1       0.612   3.460  -2.861  0.00  0.00    -0.158 OA
BRANCH  10  14
ATOM     13  C   UNL     1      -1.511   5.220  -4.508  0.00  0.00    +0.029 C 
ATOM     14  C   UNL     1      -1.876   4.247  -3.384  0.00  0.00    +0.182 C 
ENDBRANCH  10  14
ENDBRANCH   4  10
ENDBRANCH   1   7
BRANCH   1  15
ATOM     15  C   UNL     1       0.102   0.313   3.526  0.00  0.00    +0.106 A 
ATOM     16  C   UNL     1       1.055  -0.670   3.338  0.00  0.00    +0.030 A 
ATOM     17  C   UNL     1       2.091  -0.810   4.243  0.00  0.00    +0.030 A 
ATOM     18  C   UNL     1       2.169   0.027   5.340  0.00  0.00    +0.106 A 
ATOM     19  C   UNL     1       1.212   1.007   5.530  0.00  0.00    +0.030 A 
ATOM     20  C   UNL     1       0.179   1.150   4.624  0.00  0.00    +0.030 A 
BRANCH  18  21
ATOM     21  S   UNL     1       3.487  -0.154   6.495  0.00  0.00    +0.061 S 
ATOM     22  O   UNL     1       4.552  -0.787   5.799  0.00  0.00    -0.153 OA
ATOM     23  O   UNL     1       3.638   1.104   7.139  0.00  0.00    -0.153 OA
BRANCH  21  24
ATOM     24  N   UNL     1       2.978  -1.221   7.655  0.00  0.00    -0.177 NA
ATOM     25  C   UNL     1       2.283  -0.866   8.900  0.00  0.00    +0.109 C 
ATOM     26  C   UNL     1       2.031  -2.176   9.675  0.00  0.00    +0.018 C 
ATOM     27  C   UNL     1       3.107  -3.132   9.094  0.00  0.00    +0.018 C 
ATOM     28  C   UNL     1       3.154  -2.684   7.612  0.00  0.00    +0.109 C 
ENDBRANCH  21  24
ENDBRANCH  18  21
ENDBRANCH   1  15
TORSDOF 6
