REMARK  Name = ZINC04785127
REMARK  1 active torsions:
REMARK  status: ('A' for Active; 'I' for Inactive)
REMARK    1  A    between atoms: C_11  and  N_12
REMARK                            x       y       z     vdW  Elec       q    Type
REMARK                         _______ _______ _______ _____ _____    ______ ____
ROOT
ATOM      1  C   UNL     1      -0.019   1.529   0.010  0.00  0.00    +0.006 C 
ATOM      2  C   UNL     1       1.405   2.078  -0.000  0.00  0.00    +0.010 C 
ATOM      3  C   UNL     1       2.193   1.580  -1.210  0.00  0.00    +0.096 C 
ATOM      4  C   UNL     1       2.959   0.319  -0.826  0.00  0.00    +0.217 C 
ATOM      5  O   UNL     1       3.898   0.347  -0.059  0.00  0.00    -0.275 OA
ATOM      6  N   UNL     1       2.530  -0.833  -1.392  0.00  0.00    -0.283 N 
ATOM      7  C   UNL     1       1.272  -0.900  -2.034  0.00  0.00    +0.075 A 
ATOM      8  C   UNL     1       0.128  -0.490  -1.415  0.00  0.00    +0.014 A 
ATOM      9  S   UNL     1      -1.135  -0.707  -2.635  0.00  0.00    -0.082 S 
ATOM     10  C   UNL     1      -0.104  -1.392  -3.924  0.00  0.00    +0.087 A 
ATOM     11  C   UNL     1       1.116  -1.385  -3.341  0.00  0.00    +0.168 A 
ATOM     12 BR   UNL     1      -0.594  -1.976  -5.655  0.00  0.00    -0.040 Br
ATOM     13  C   UNL     1       0.002  -0.004   0.002  0.00  0.00    +0.044 C 
ATOM     14  H   UNL     1       3.093  -1.623  -1.357  0.00  0.00    +0.155 HD
ENDROOT
BRANCH  11  15
ATOM     15  N   UNL     1       2.292  -1.889  -4.086  0.00  0.00    +0.060 N 
ATOM     16  O   UNL     1       2.598  -3.056  -4.012  0.00  0.00    -0.126 OA
ATOM     17  O   UNL     1       2.946  -1.134  -4.767  0.00  0.00    -0.126 OA
ENDBRANCH  11  15
TORSDOF 1
