REMARK  Name = ZINC37525618
REMARK  4 active torsions:
REMARK  status: ('A' for Active; 'I' for Inactive)
REMARK    1  A    between atoms: C_4  and  N_21
REMARK    2  A    between atoms: C_5  and  C_7
REMARK    3  A    between atoms: C_24  and  N_27
REMARK    4  A    between atoms: C_28  and  C_30
REMARK                            x       y       z     vdW  Elec       q    Type
REMARK                         _______ _______ _______ _____ _____    ______ ____
ROOT
ATOM      1  C   UNL     1       0.187   1.620  -0.247  0.00  0.00    +0.001 A 
ATOM      2  C   UNL     1       1.437   2.124   0.078  0.00  0.00    +0.002 A 
ATOM      3  C   UNL     1       2.495   1.270   0.312  0.00  0.00    +0.024 A 
ATOM      4  C   UNL     1       2.313  -0.104   0.223  0.00  0.00    +0.042 A 
ATOM      5  C   UNL     1       1.049  -0.618  -0.104  0.00  0.00    +0.058 A 
ATOM      6  C   UNL     1      -0.013   0.260  -0.339  0.00  0.00    +0.015 A 
ENDROOT
BRANCH   5   7
ATOM      7  C   UNL     1       0.843  -2.074  -0.202  0.00  0.00    +0.248 C 
ATOM      8  O   UNL     1       1.168  -2.798   0.719  0.00  0.00    -0.270 OA
ATOM      9  N   UNL     1       0.293  -2.604  -1.313  0.00  0.00    -0.294 N 
ATOM     10  C   UNL     1       0.016  -1.762  -2.485  0.00  0.00    +0.127 C 
ATOM     11  C   UNL     1       0.714  -2.375  -3.705  0.00  0.00    +0.125 C 
ATOM     12  N   UNL     1       0.382  -3.805  -3.767  0.00  0.00    -0.314 N 
ATOM     13  C   UNL     1       0.659  -4.648  -2.595  0.00  0.00    +0.125 C 
ATOM     14  C   UNL     1      -0.034  -4.035  -1.376  0.00  0.00    +0.127 C 
ATOM     15  C   UNL     1      -0.185  -4.352  -4.912  0.00  0.00    +0.099 A 
ATOM     16  C   UNL     1      -0.563  -3.518  -5.960  0.00  0.00    +0.042 A 
ATOM     17  C   UNL     1      -1.125  -4.074  -7.094  0.00  0.00    +0.005 A 
ATOM     18  C   UNL     1      -1.292  -5.452  -7.143  0.00  0.00    +0.018 A 
ATOM     19  C   UNL     1      -0.894  -6.220  -6.067  0.00  0.00    +0.084 A 
ATOM     20  N   UNL     1      -0.355  -5.662  -5.000  0.00  0.00    -0.350 N 
ATOM     21  H   UNL     1      -0.081  -6.225  -4.259  0.00  0.00    +0.166 HD
ENDBRANCH   5   7
BRANCH   4  22
ATOM     22  N   UNL     1       3.377  -0.966   0.458  0.00  0.00    -0.329 N 
ATOM     23  C   UNL     1       4.136  -1.540  -0.662  0.00  0.00    +0.107 C 
ATOM     24  C   UNL     1       4.163  -3.064  -0.508  0.00  0.00    +0.041 C 
ATOM     25  C   UNL     1       4.713  -3.424   0.874  0.00  0.00    +0.076 C 
ATOM     26  C   UNL     1       3.798  -2.846   1.955  0.00  0.00    +0.041 C 
ATOM     27  C   UNL     1       3.770  -1.315   1.830  0.00  0.00    +0.107 C 
BRANCH  25  28
ATOM     28  N   UNL     1       4.772  -4.881   1.012  0.00  0.00    -0.312 N 
ATOM     29  C   UNL     1       5.646  -5.442   1.871  0.00  0.00    +0.216 C 
ATOM     30  O   UNL     1       6.383  -4.740   2.530  0.00  0.00    -0.276 OA
ATOM     31  H   UNL     1       4.182  -5.442   0.484  0.00  0.00    +0.149 HD
BRANCH  29  32
ATOM     32  C   UNL     1       5.706  -6.941   2.013  0.00  0.00    +0.075 C 
ATOM     33  C   UNL     1       4.345  -7.465   2.475  0.00  0.00    +0.013 C 
ATOM     34  C   UNL     1       4.406  -8.987   2.619  0.00  0.00    +0.001 C 
ATOM     35  C   UNL     1       5.473  -9.359   3.651  0.00  0.00    +0.000 C 
ATOM     36  C   UNL     1       6.834  -8.835   3.189  0.00  0.00    +0.001 C 
ATOM     37  C   UNL     1       6.773  -7.313   3.045  0.00  0.00    +0.013 C 
ENDBRANCH  29  32
ENDBRANCH  25  28
ENDBRANCH   4  22
TORSDOF 4
