REMARK  Name = ZINC06637382
REMARK  6 active torsions:
REMARK  status: ('A' for Active; 'I' for Inactive)
REMARK    1  A    between atoms: C_1  and  N_2
REMARK    2  A    between atoms: N_2  and  C_3
REMARK    3  A    between atoms: C_6  and  C_12
REMARK    4  A    between atoms: C_8  and  N_9
REMARK    5  A    between atoms: C_13  and  C_14
REMARK    6  A    between atoms: C_13  and  C_16
REMARK                            x       y       z     vdW  Elec       q    Type
REMARK                         _______ _______ _______ _____ _____    ______ ____
ROOT
ATOM      1  C   UNL     1       0.469  -0.888   0.996  0.00  0.00    +0.058 A 
ATOM      2  C   UNL     1       0.434  -0.184   2.198  0.00  0.00    +0.026 A 
ATOM      3  C   UNL     1       1.104  -0.657   3.289  0.00  0.00    +0.010 A 
ATOM      4  C   UNL     1       1.830  -1.855   3.199  0.00  0.00    -0.021 A 
ATOM      5  C   UNL     1       1.862  -2.560   1.987  0.00  0.00    +0.042 A 
ATOM      6  C   UNL     1       1.183  -2.081   0.903  0.00  0.00    +0.147 A 
ENDROOT
BRANCH   1   8
ATOM      7  C   UNL     1      -1.046   0.797   0.010  0.00  0.00    +0.125 C 
ATOM      8  N   UNL     1      -0.214  -0.403  -0.111  0.00  0.00    -0.345 N 
ATOM      9  H   UNL     1      -0.141  -0.858  -0.965  0.00  0.00    +0.146 HD
ENDBRANCH   1   8
BRANCH   6  10
ATOM     10  N   UNL     1       1.211  -2.828  -0.375  0.00  0.00    +0.058 N 
ATOM     11  O   UNL     1       1.177  -4.036  -0.370  0.00  0.00    -0.126 OA
ATOM     12  O   UNL     1       1.269  -2.229  -1.424  0.00  0.00    -0.126 OA
ENDBRANCH   6  10
BRANCH   4  13
ATOM     13  C   UNL     1       2.550  -2.366   4.365  0.00  0.00    +0.032 C 
ATOM     14  C   UNL     1       3.031  -1.491   5.316  0.00  0.00    +0.114 C 
BRANCH  14  15
ATOM     15  C   UNL     1       3.614  -2.009   6.564  0.00  0.00    +0.257 C 
ATOM     16  O   UNL     1       3.672  -3.209   6.756  0.00  0.00    -0.269 OA
ATOM     17  N   UNL     1       4.084  -1.154   7.494  0.00  0.00    -0.297 N 
ATOM     18  C   UNL     1       4.072   0.313   7.393  0.00  0.00    +0.108 C 
ATOM     19  C   UNL     1       4.733   0.866   8.673  0.00  0.00    +0.020 C 
ATOM     20  C   UNL     1       5.591  -0.330   9.165  0.00  0.00    +0.020 C 
ATOM     21  C   UNL     1       4.691  -1.534   8.782  0.00  0.00    +0.108 C 
ENDBRANCH  14  15
BRANCH  14  22
ATOM     22  C   UNL     1       2.963  -0.079   5.090  0.00  0.00    +0.104 C 
ATOM     23  N   UNL     1       2.910   1.042   4.910  0.00  0.00    -0.191 NA
ENDBRANCH  14  22
ENDBRANCH   4  13
TORSDOF 5
