REMARK  Name = ZINC45632962
REMARK  10 active torsions:
REMARK  status: ('A' for Active; 'I' for Inactive)
REMARK    1  A    between atoms: C_1  and  C_2
REMARK    2  A    between atoms: C_5  and  N_9
REMARK    3  A    between atoms: C_7  and  C_8
REMARK    4  A    between atoms: C_10  and  C_31
REMARK    5  A    between atoms: C_13  and  S_14
REMARK    6  A    between atoms: S_14  and  C_15
REMARK    7  A    between atoms: C_15  and  C_16
REMARK    8  A    between atoms: N_18  and  C_19
REMARK    9  A    between atoms: C_23  and  C_25
REMARK   10  A    between atoms: N_27  and  C_28
REMARK                            x       y       z     vdW  Elec       q    Type
REMARK                         _______ _______ _______ _____ _____    ______ ____
ROOT
ATOM      1  N   UNL     1       0.053  -4.173  -0.009  0.00  0.00    -0.270 N 
ATOM      2  C   UNL     1      -0.935  -5.017  -0.469  0.00  0.00    +0.169 A 
ATOM      3  N   UNL     1      -0.511  -6.245  -0.280  0.00  0.00    -0.128 NA
ATOM      4  N   UNL     1       0.656  -6.229   0.257  0.00  0.00    -0.122 NA
ATOM      5  C   UNL     1       1.054  -4.989   0.441  0.00  0.00    +0.197 A 
ENDROOT
BRANCH   1  10
ATOM      6  C   UNL     1      -0.010   1.502  -0.010  0.00  0.00    +0.044 C 
ATOM      7  C   UNL     1       0.007  -0.005  -0.010  0.00  0.00    -0.047 A 
ATOM      8  C   UNL     1       0.003  -0.695  -1.208  0.00  0.00    +0.005 A 
ATOM      9  C   UNL     1       0.018  -2.076  -1.211  0.00  0.00    +0.026 A 
ATOM     10  C   UNL     1       0.038  -2.771  -0.010  0.00  0.00    +0.051 A 
ATOM     11  C   UNL     1       0.042  -2.076   1.192  0.00  0.00    +0.030 A 
ATOM     12  C   UNL     1       0.031  -0.694   1.188  0.00  0.00    -0.046 A 
ATOM     13  C   UNL     1       0.041   0.062   2.492  0.00  0.00    +0.044 C 
ENDBRANCH   1  10
BRANCH   2  14
ATOM     14  C   UNL     1      -2.228  -4.616  -1.060  0.00  0.00    +0.022 A 
ATOM     15  C   UNL     1      -2.701  -3.304  -0.934  0.00  0.00    +0.031 A 
ATOM     16  C   UNL     1      -3.913  -2.973  -1.502  0.00  0.00    +0.111 A 
ATOM     17  N   UNL     1      -4.623  -3.872  -2.157  0.00  0.00    -0.263 NA
ATOM     18  C   UNL     1      -4.215  -5.119  -2.299  0.00  0.00    +0.111 A 
ATOM     19  C   UNL     1      -3.012  -5.535  -1.768  0.00  0.00    +0.031 A 
ENDBRANCH   2  14
BRANCH   5  20
ATOM     20  S   UNL     1       2.587  -4.474   1.139  0.00  0.00    -0.076 S 
BRANCH  20  21
ATOM     21  C   UNL     1       3.440  -6.029   1.519  0.00  0.00    +0.173 C 
BRANCH  21  22
ATOM     22  C   UNL     1       4.784  -5.729   2.130  0.00  0.00    +0.227 C 
ATOM     23  O   UNL     1       5.133  -4.579   2.294  0.00  0.00    -0.275 OA
ATOM     24  N   UNL     1       5.600  -6.738   2.495  0.00  0.00    -0.285 N 
ATOM     25  H   UNL     1       5.295  -7.657   2.426  0.00  0.00    +0.155 HD
BRANCH  24  26
ATOM     26  C   UNL     1       6.886  -6.461   2.973  0.00  0.00    +0.034 A 
ATOM     27  C   UNL     1       7.938  -7.318   2.674  0.00  0.00    +0.023 A 
ATOM     28  C   UNL     1       9.210  -7.049   3.143  0.00  0.00    +0.003 A 
ATOM     29  C   UNL     1       9.443  -5.928   3.913  0.00  0.00    +0.013 A 
ATOM     30  C   UNL     1       8.393  -5.061   4.219  0.00  0.00    +0.038 A 
ATOM     31  C   UNL     1       7.111  -5.329   3.740  0.00  0.00    +0.036 A 
BRANCH  30  32
ATOM     32  C   UNL     1       8.640  -3.858   5.044  0.00  0.00    +0.244 C 
ATOM     33  O   UNL     1       7.724  -3.104   5.309  0.00  0.00    -0.270 OA
ATOM     34  N   UNL     1       9.881  -3.598   5.501  0.00  0.00    -0.308 N 
ATOM     35  H   UNL     1      10.612  -4.200   5.289  0.00  0.00    +0.149 HD
BRANCH  34  36
ATOM     36  C   UNL     1      10.126  -2.407   6.318  0.00  0.00    +0.073 C 
ATOM     37  C   UNL     1      11.376  -1.581   6.006  0.00  0.00    +0.024 C 
ATOM     38  C   UNL     1      11.322  -2.438   7.272  0.00  0.00    +0.024 C 
ENDBRANCH  34  36
ENDBRANCH  30  32
ENDBRANCH  24  26
ENDBRANCH  21  22
ENDBRANCH  20  21
ENDBRANCH   5  20
TORSDOF 8
