REMARK  Name = ZINC09562172
REMARK  5 active torsions:
REMARK  status: ('A' for Active; 'I' for Inactive)
REMARK    1  A    between atoms: C_6  and  C_7
REMARK    2  A    between atoms: C_16  and  C_18
REMARK    3  A    between atoms: C_18  and  S_19
REMARK    4  A    between atoms: S_19  and  C_20
REMARK    5  A    between atoms: C_23  and  C_25
REMARK                            x       y       z     vdW  Elec       q    Type
REMARK                         _______ _______ _______ _____ _____    ______ ____
ROOT
ATOM      1  C   UNL     1      -1.309   2.116   0.020  0.00  0.00    +0.004 A 
ATOM      2  C   UNL     1      -2.280   1.810  -0.874  0.00  0.00    +0.056 A 
ATOM      3  S   UNL     1      -3.598   2.935  -0.454  0.00  0.00    -0.076 S 
ATOM      4  C   UNL     1      -2.819   3.788   0.893  0.00  0.00    +0.116 A 
ATOM      5  C   UNL     1      -1.557   3.178   0.988  0.00  0.00    +0.080 A 
ATOM      6  C   UNL     1      -0.700   3.684   2.017  0.00  0.00    +0.260 A 
ATOM      7  O   UNL     1       0.415   3.218   2.178  0.00  0.00    -0.267 OA
ATOM      8  N   UNL     1      -1.144   4.681   2.804  0.00  0.00    -0.310 N 
ATOM      9  H   UNL     1      -0.568   5.028   3.503  0.00  0.00    +0.170 HD
ATOM     10  C   UNL     1      -2.383   5.212   2.639  0.00  0.00    +0.121 A 
ATOM     11  N   UNL     1      -3.188   4.771   1.709  0.00  0.00    -0.226 NA
ENDROOT
BRANCH   1  17
ATOM     12  C   UNL     1       1.184   2.099   0.002  0.00  0.00    +0.010 A 
ATOM     13  C   UNL     1       2.384   1.418  -0.014  0.00  0.00    +0.020 A 
ATOM     14  C   UNL     1       2.397   0.033  -0.021  0.00  0.00    +0.041 A 
ATOM     15  C   UNL     1       1.208  -0.675  -0.013  0.00  0.00    +0.020 A 
ATOM     16  C   UNL     1       0.002  -0.004   0.002  0.00  0.00    +0.010 A 
ATOM     17  C   UNL     1      -0.017   1.390   0.010  0.00  0.00    -0.016 A 
ATOM     18 CL   UNL     1       3.910  -0.817  -0.040  0.00  0.00    -0.084 Cl
ENDBRANCH   1  17
BRANCH  10  19
ATOM     19  C   UNL     1      -2.837   6.328   3.544  0.00  0.00    +0.153 C 
BRANCH  19  20
ATOM     20  S   UNL     1      -4.516   6.827   3.089  0.00  0.00    -0.058 S 
BRANCH  20  21
ATOM     21  C   UNL     1      -4.786   8.105   4.272  0.00  0.00    +0.278 A 
ATOM     22  N   UNL     1      -3.939   8.504   5.191  0.00  0.00    -0.101 NA
ATOM     23  N   UNL     1      -4.466   9.457   5.876  0.00  0.00    -0.106 NA
ATOM     24  C   UNL     1      -5.673   9.700   5.426  0.00  0.00    +0.249 A 
ATOM     25  O   UNL     1      -5.902   8.849   4.401  0.00  0.00    -0.411 OA
BRANCH  24  26
ATOM     26  C   UNL     1      -6.612  10.716   5.945  0.00  0.00    +0.042 A 
ATOM     27  C   UNL     1      -7.872  10.867   5.362  0.00  0.00    +0.017 A 
ATOM     28  C   UNL     1      -8.749  11.812   5.852  0.00  0.00    +0.050 A 
ATOM     29  C   UNL     1      -8.380  12.622   6.916  0.00  0.00    +0.166 A 
ATOM     30  C   UNL     1      -7.121  12.480   7.499  0.00  0.00    +0.167 A 
ATOM     31  C   UNL     1      -6.240  11.530   7.016  0.00  0.00    +0.062 A 
ATOM     32  O   UNL     1      -7.007  13.384   8.515  0.00  0.00    -0.453 OA
ATOM     33  C   UNL     1      -8.352  13.800   8.813  0.00  0.00    +0.466 C 
ATOM     34  O   UNL     1      -9.052  13.616   7.568  0.00  0.00    -0.453 OA
ENDBRANCH  24  26
ENDBRANCH  20  21
ENDBRANCH  19  20
ENDBRANCH  10  19
TORSDOF 5
