REMARK  Name = ZINC00910528
REMARK  11 active torsions:
REMARK  status: ('A' for Active; 'I' for Inactive)
REMARK    1  A    between atoms: C_1  and  C_2
REMARK    2  A    between atoms: C_2  and  C_3
REMARK    3  A    between atoms: C_3  and  C_4
REMARK    4  A    between atoms: C_3  and  C_5
REMARK    5  A    between atoms: C_3  and  N_6
REMARK    6  A    between atoms: C_7  and  C_11
REMARK    7  A    between atoms: C_11  and  C_13
REMARK    8  A    between atoms: C_11  and  N_65
REMARK    9  A    between atoms: C_17  and  C_26
REMARK   10  A    between atoms: C_18  and  C_25
REMARK   11  A    between atoms: C_29  and  C_32
REMARK                            x       y       z     vdW  Elec       q    Type
REMARK                         _______ _______ _______ _____ _____    ______ ____
ROOT
ATOM      1  C   UNL     1      -0.697   2.019   1.025  0.00  0.00    +0.039 C 
ENDROOT
BRANCH   1   2
ATOM      2  C   UNL     1       0.275   1.463   2.034  0.00  0.00    +0.011 A 
ATOM      3  C   UNL     1      -0.172   0.660   3.030  0.00  0.00    +0.017 A 
ATOM      4  C   UNL     1       0.798   0.137   3.994  0.00  0.00    -0.001 A 
ATOM      5  C   UNL     1       0.397  -0.697   5.044  0.00  0.00    +0.013 A 
ATOM      6  C   UNL     1       1.327  -1.169   5.927  0.00  0.00    -0.047 A 
ATOM      7  C   UNL     1       2.666  -0.829   5.791  0.00  0.00    -0.046 A 
ATOM      8  C   UNL     1       3.083  -0.009   4.765  0.00  0.00    +0.030 A 
ATOM      9  C   UNL     1       2.155   0.483   3.854  0.00  0.00    +0.049 A 
ATOM     10  N   UNL     1       2.545   1.304   2.817  0.00  0.00    -0.322 N 
ATOM     11  H   UNL     1       3.509   1.553   2.721  0.00  0.00    +0.169 HD
ATOM     12  C   UNL     1       1.647   1.776   1.934  0.00  0.00    +0.251 A 
ATOM     13  O   UNL     1       2.028   2.496   1.027  0.00  0.00    -0.268 OA
ATOM     14  C   UNL     1       3.674  -1.361   6.777  0.00  0.00    +0.044 C 
ATOM     15  C   UNL     1       0.895  -2.066   7.058  0.00  0.00    +0.044 C 
ENDBRANCH   1   2
BRANCH   1  22
ATOM     16  C   UNL     1      -0.059   0.215  -0.457  0.00  0.00    -0.077 C 
ATOM     17  C   UNL     1       0.541  -0.102  -1.829  0.00  0.00    -0.015 C 
ATOM     18  C   UNL     1      -0.405   0.403  -2.923  0.00  0.00    -0.018 C 
ATOM     19  C   UNL     1      -0.629   1.906  -2.738  0.00  0.00    -0.015 C 
ATOM     20  C   UNL     1      -1.194   2.165  -1.340  0.00  0.00    -0.077 C 
ATOM     21  C   UNL     1       0.217   0.143  -4.296  0.00  0.00    +0.007 C 
ATOM     22  N   UNL     1      -0.227   1.678  -0.334  0.00  0.00    +0.389 N 
ATOM     23  H   UNL     1       0.680   2.132  -0.496  0.00  0.00    -0.080 HD
ENDBRANCH   1  22
BRANCH   1  25
ATOM     24  N   UNL     1      -1.795   4.245   1.611  0.00  0.00    -0.225 N 
ATOM     25  C   UNL     1      -0.756   3.519   1.158  0.00  0.00    +0.143 A 
ATOM     26  N   UNL     1       0.196   4.369   0.859  0.00  0.00    -0.115 NA
ATOM     27  N   UNL     1      -0.238   5.556   1.109  0.00  0.00    -0.023 NA
ATOM     28  N   UNL     1      -1.440   5.485   1.566  0.00  0.00    -0.043 NA
BRANCH  24  29
ATOM     29  C   UNL     1      -3.086   3.726   2.069  0.00  0.00    +0.061 C 
ATOM     30  C   UNL     1      -3.788   3.011   0.912  0.00  0.00    +0.036 C 
ATOM     31  C   UNL     1      -2.860   2.739   3.216  0.00  0.00    +0.036 C 
BRANCH  29  33
ATOM     32  C   UNL     1      -5.306   4.342   3.035  0.00  0.00    +0.006 C 
ATOM     33  C   UNL     1      -3.958   4.885   2.557  0.00  0.00    +0.026 C 
ENDBRANCH  29  33
ENDBRANCH  24  29
ENDBRANCH   1  25
TORSDOF 5
