REMARK  Name = ZINC15906353
REMARK  6 active torsions:
REMARK  status: ('A' for Active; 'I' for Inactive)
REMARK    1  A    between atoms: C_1  and  S_2
REMARK    2  A    between atoms: S_2  and  N_5
REMARK    3  A    between atoms: N_5  and  C_6
REMARK    4  A    between atoms: C_15  and  C_17
REMARK    5  A    between atoms: C_18  and  N_30
REMARK    6  A    between atoms: C_20  and  C_21
REMARK                            x       y       z     vdW  Elec       q    Type
REMARK                         _______ _______ _______ _____ _____    ______ ____
ROOT
ATOM      1  C   UNL     1      -2.169   2.506  -1.064  0.00  0.00    +0.036 C 
ATOM      2  C   UNL     1      -1.743   3.468  -1.950  0.00  0.00    +0.041 C 
ATOM      3  C   UNL     1      -1.660   4.871  -1.527  0.00  0.00    -0.025 C 
ATOM      4  C   UNL     1      -1.026   5.791  -2.283  0.00  0.00    +0.013 C 
ATOM      5  C   UNL     1      -2.317   5.249  -0.215  0.00  0.00    +0.037 C 
ATOM      6  C   UNL     1      -1.972   4.153   0.803  0.00  0.00    +0.010 C 
ATOM      7  C   UNL     1      -2.581   2.830   0.342  0.00  0.00    +0.042 C 
ENDROOT
BRANCH   1  12
ATOM      8  N   UNL     1      -4.584  -1.488  -1.750  0.00  0.00    -0.157 N 
ATOM      9  C   UNL     1      -3.417  -0.814  -1.784  0.00  0.00    +0.328 C 
ATOM     10  O   UNL     1      -2.410  -1.364  -2.186  0.00  0.00    -0.251 OA
ATOM     11  N   UNL     1      -3.367   0.468  -1.373  0.00  0.00    -0.235 N 
ATOM     12  C   UNL     1      -2.222   1.169  -1.492  0.00  0.00    +0.249 C 
ATOM     13  O   UNL     1      -1.232   0.644  -1.971  0.00  0.00    -0.270 OA
ATOM     14  H   UNL     1      -4.154   0.887  -0.992  0.00  0.00    +0.159 HD
BRANCH   8  15
ATOM     15  C   UNL     1      -5.818  -0.795  -1.371  0.00  0.00    +0.102 C 
ATOM     16  C   UNL     1      -5.968   0.475  -2.210  0.00  0.00    +0.024 C 
ATOM     17  C   UNL     1      -7.257   1.199  -1.815  0.00  0.00    +0.002 C 
ATOM     18  C   UNL     1      -7.199   1.571  -0.332  0.00  0.00    +0.000 C 
ATOM     19  C   UNL     1      -7.049   0.300   0.507  0.00  0.00    +0.002 C 
ATOM     20  C   UNL     1      -5.760  -0.423   0.112  0.00  0.00    +0.024 C 
ENDBRANCH   8  15
BRANCH   8  22
ATOM     21  C   UNL     1      -4.345  -3.960  -0.564  0.00  0.00    +0.219 C 
ATOM     22  S   UNL     1      -4.623  -3.098  -2.135  0.00  0.00    +0.046 S 
ATOM     23  O   UNL     1      -5.948  -3.329  -2.593  0.00  0.00    -0.155 OA
ATOM     24  O   UNL     1      -3.513  -3.290  -3.002  0.00  0.00    -0.155 OA
ENDBRANCH   8  22
ENDBRANCH   1  12
BRANCH   4  25
ATOM     25  C   UNL     1       0.246   5.453  -2.940  0.00  0.00    -0.025 A 
ATOM     26  C   UNL     1       1.109   4.517  -2.362  0.00  0.00    +0.008 A 
ATOM     27  C   UNL     1       2.298   4.202  -2.986  0.00  0.00    +0.001 A 
ATOM     28  C   UNL     1       2.642   4.818  -4.177  0.00  0.00    +0.000 A 
ATOM     29  C   UNL     1       1.796   5.749  -4.753  0.00  0.00    +0.001 A 
ATOM     30  C   UNL     1       0.602   6.071  -4.144  0.00  0.00    +0.008 A 
ENDBRANCH   4  25
BRANCH   2  31
ATOM     31  N   UNL     1      -1.389   3.113  -3.234  0.00  0.00    -0.325 N 
ATOM     32  C   UNL     1      -0.267   2.193  -3.483  0.00  0.00    +0.133 C 
ATOM     33  C   UNL     1      -0.748   1.091  -4.435  0.00  0.00    +0.178 C 
ATOM     34  O   UNL     1      -1.345   1.692  -5.587  0.00  0.00    -0.377 OA
ATOM     35  C   UNL     1      -2.506   2.475  -5.303  0.00  0.00    +0.178 C 
ATOM     36  C   UNL     1      -2.116   3.647  -4.396  0.00  0.00    +0.133 C 
ENDBRANCH   2  31
TORSDOF 5
