REMARK  Name = ZINC40570125
REMARK  14 active torsions:
REMARK  status: ('A' for Active; 'I' for Inactive)
REMARK    1  A    between atoms: C_1  and  C_2
REMARK    2  A    between atoms: C_2  and  C_3
REMARK    3  A    between atoms: C_2  and  O_4
REMARK    4  A    between atoms: O_4  and  C_5
REMARK    5  A    between atoms: C_5  and  C_7
REMARK    6  A    between atoms: C_8  and  N_33
REMARK    7  A    between atoms: C_10  and  C_21
REMARK    8  A    between atoms: N_18  and  C_20
REMARK    9  A    between atoms: C_23  and  O_31
REMARK   10  A    between atoms: C_24  and  O_29
REMARK   11  A    between atoms: C_25  and  O_27
REMARK   12  A    between atoms: O_27  and  C_28
REMARK   13  A    between atoms: O_29  and  C_30
REMARK   14  A    between atoms: O_31  and  C_32
REMARK                            x       y       z     vdW  Elec       q    Type
REMARK                         _______ _______ _______ _____ _____    ______ ____
ROOT
ATOM      1  C   UNL     1       0.669  -0.687   3.717  0.00  0.00    +0.119 A 
ATOM      2  C   UNL     1      -0.005  -1.415   4.676  0.00  0.00    +0.056 A 
ATOM      3  C   UNL     1       0.750  -2.358   5.481  0.00  0.00    +0.037 A 
ATOM      4  C   UNL     1       0.287  -3.214   6.524  0.00  0.00    -0.003 A 
ATOM      5  C   UNL     1       1.195  -4.048   7.171  0.00  0.00    -0.034 A 
ATOM      6  C   UNL     1       2.525  -4.039   6.799  0.00  0.00    +0.043 A 
ATOM      7  N   UNL     1       2.943  -3.238   5.831  0.00  0.00    -0.244 NA
ATOM      8  C   UNL     1       2.129  -2.431   5.188  0.00  0.00    +0.112 A 
ATOM      9  S   UNL     1       2.349  -1.262   3.870  0.00  0.00    -0.060 S 
ATOM     10  C   UNL     1       3.534  -4.935   7.473  0.00  0.00    +0.037 C 
ATOM     11  C   UNL     1       2.963  -5.459   8.791  0.00  0.00    -0.073 C 
ATOM     12  N   UNL     1       1.633  -6.031   8.531  0.00  0.00    +0.381 N 
ATOM     13  C   UNL     1       0.688  -4.942   8.273  0.00  0.00    -0.041 C 
ATOM     14  C   UNL     1       1.191  -6.799   9.702  0.00  0.00    -0.096 C 
ATOM     15  H   UNL     1       1.678  -6.637   7.725  0.00  0.00    -0.082 HD
ENDROOT
BRANCH   4  16
ATOM     16  C   UNL     1      -1.142  -3.216   6.913  0.00  0.00    -0.010 A 
ATOM     17  C   UNL     1      -2.098  -3.768   6.061  0.00  0.00    +0.058 A 
ATOM     18  C   UNL     1      -3.432  -3.769   6.427  0.00  0.00    +0.166 A 
ATOM     19  C   UNL     1      -3.820  -3.219   7.645  0.00  0.00    +0.204 A 
ATOM     20  C   UNL     1      -2.869  -2.668   8.496  0.00  0.00    +0.166 A 
ATOM     21  C   UNL     1      -1.533  -2.670   8.136  0.00  0.00    +0.058 A 
BRANCH  20  22
ATOM     22  O   UNL     1      -3.251  -2.131   9.686  0.00  0.00    -0.491 OA
ATOM     23  C   UNL     1      -2.221  -1.582  10.511  0.00  0.00    +0.277 C 
ENDBRANCH  20  22
BRANCH  19  24
ATOM     24  O   UNL     1      -5.133  -3.221   8.003  0.00  0.00    -0.488 OA
ATOM     25  C   UNL     1      -5.604  -4.355   8.734  0.00  0.00    +0.277 C 
ENDBRANCH  19  24
BRANCH  18  26
ATOM     26  O   UNL     1      -4.364  -4.307   5.596  0.00  0.00    -0.491 OA
ATOM     27  C   UNL     1      -3.895  -4.853   4.361  0.00  0.00    +0.277 C 
ENDBRANCH  18  26
ENDBRANCH   4  16
BRANCH   2  28
ATOM     28  N   UNL     1      -1.370  -1.250   4.866  0.00  0.00    -0.356 N 
ATOM     29  H   UNL     1      -1.912  -0.850   4.168  0.00  0.00    +0.142 HD
ATOM     30  H   UNL     1      -1.781  -1.534   5.697  0.00  0.00    +0.142 HD
ENDBRANCH   2  28
BRANCH   1  31
ATOM     31  C   UNL     1       0.150   0.279   2.823  0.00  0.00    +0.348 C 
ATOM     32  O   UNL     1      -1.034   0.558   2.849  0.00  0.00    -0.244 OA
BRANCH  31  33
ATOM     33  O   UNL     1       0.968   0.890   1.940  0.00  0.00    -0.458 OA
BRANCH  33  35
ATOM     34  C   UNL     1       0.432   3.236   1.722  0.00  0.00    +0.052 C 
ATOM     35  C   UNL     1       0.377   1.855   1.068  0.00  0.00    +0.171 C 
ATOM     36  C   UNL     1       1.146   1.886  -0.255  0.00  0.00    +0.052 C 
ENDBRANCH  33  35
ENDBRANCH  31  33
ENDBRANCH   1  31
TORSDOF 8
