REMARK  Name = ZINC39336742
REMARK  5 active torsions:
REMARK  status: ('A' for Active; 'I' for Inactive)
REMARK    1  A    between atoms: C_4  and  N_7
REMARK    2  A    between atoms: C_9  and  C_18
REMARK    3  A    between atoms: C_10  and  C_13
REMARK    4  A    between atoms: N_19  and  N_20
REMARK    5  A    between atoms: C_21  and  C_27
REMARK                            x       y       z     vdW  Elec       q    Type
REMARK                         _______ _______ _______ _____ _____    ______ ____
ROOT
ATOM      1  N   UNL     1       3.635  -0.695  -0.133  0.00  0.00    -0.242 N 
ATOM      2  C   UNL     1       4.853  -0.072  -0.062  0.00  0.00    +0.100 C 
ATOM      3  C   UNL     1       5.859  -0.938  -0.274  0.00  0.00    +0.011 C 
ATOM      4  C   UNL     1       5.218  -2.289  -0.511  0.00  0.00    +0.142 C 
ATOM      5  N   UNL     1       3.769  -2.028  -0.393  0.00  0.00    -0.224 NA
ATOM      6  H   UNL     1       3.359  -2.583   0.343  0.00  0.00    +0.146 HD
ENDROOT
BRANCH   1  10
ATOM      7  C   UNL     1      -0.018   1.233   0.396  0.00  0.00    +0.000 A 
ATOM      8  C   UNL     1       1.161   1.952   0.481  0.00  0.00    +0.002 A 
ATOM      9  C   UNL     1       2.374   1.316   0.306  0.00  0.00    +0.025 A 
ATOM     10  C   UNL     1       2.410  -0.049   0.045  0.00  0.00    +0.049 A 
ATOM     11  C   UNL     1       1.224  -0.768  -0.040  0.00  0.00    +0.025 A 
ATOM     12  C   UNL     1       0.014  -0.125   0.136  0.00  0.00    +0.002 A 
ENDBRANCH   1  10
BRANCH   4  13
ATOM     13  C   UNL     1       5.661  -3.275   0.539  0.00  0.00    +0.013 A 
ATOM     14  C   UNL     1       6.614  -4.235   0.461  0.00  0.00    +0.013 A 
ATOM     15  C   UNL     1       6.854  -5.033   1.563  0.00  0.00    +0.008 A 
ATOM     16  C   UNL     1       6.130  -4.832   2.691  0.00  0.00    +0.045 A 
ATOM     17  S   UNL     1       5.072  -3.476   2.212  0.00  0.00    -0.100 S 
ENDBRANCH   4  13
BRANCH   3  18
ATOM     18  C   UNL     1       7.247  -0.644  -0.275  0.00  0.00    +0.137 C 
ATOM     19  N   UNL     1       7.655   0.573  -0.054  0.00  0.00    -0.184 NA
BRANCH  19  20
ATOM     20  N   UNL     1       9.026   0.845   0.044  0.00  0.00    -0.173 N 
ATOM     21  C   UNL     1       9.678   2.161   0.177  0.00  0.00    +0.264 C 
ATOM     22  N   UNL     1      11.112   1.839   0.236  0.00  0.00    -0.189 NA
ATOM     23  N   UNL     1      11.234   0.614   0.153  0.00  0.00    -0.219 N 
ATOM     24  C   UNL     1      10.047  -0.040   0.043  0.00  0.00    +0.174 C 
ATOM     25  S   UNL     1       9.872  -1.738  -0.082  0.00  0.00    -0.015 S 
ATOM     26  H   UNL     1      12.092   0.162   0.169  0.00  0.00    +0.176 HD
BRANCH  21  27
ATOM     27  C   UNL     1       9.376   3.026  -1.020  0.00  0.00    +0.001 A 
ATOM     28  C   UNL     1       8.182   2.887  -1.712  0.00  0.00    +0.025 A 
ATOM     29  C   UNL     1       7.939   3.697  -2.804  0.00  0.00    +0.083 A 
ATOM     30  N   UNL     1       8.827   4.593  -3.191  0.00  0.00    -0.367 N 
ATOM     31  C   UNL     1       9.972   4.752  -2.557  0.00  0.00    +0.083 A 
ATOM     32  C   UNL     1      10.281   3.982  -1.452  0.00  0.00    +0.025 A 
ATOM     33  H   UNL     1       8.632   5.149  -3.962  0.00  0.00    +0.165 HD
ENDBRANCH  21  27
ENDBRANCH  19  20
ENDBRANCH   3  18
TORSDOF 5
