REMARK  Name = ZINC06282103
REMARK  10 active torsions:
REMARK  status: ('A' for Active; 'I' for Inactive)
REMARK    1  A    between atoms: C_1  and  C_2
REMARK    2  A    between atoms: C_7  and  C_14
REMARK    3  A    between atoms: C_14  and  C_16
REMARK    4  A    between atoms: C_14  and  N_65
REMARK    5  A    between atoms: N_20  and  C_21
REMARK    6  A    between atoms: C_21  and  C_22
REMARK    7  A    between atoms: C_22  and  O_23
REMARK    8  A    between atoms: O_23  and  C_24
REMARK    9  A    between atoms: N_27  and  C_30
REMARK   10  A    between atoms: C_33  and  N_36
REMARK                            x       y       z     vdW  Elec       q    Type
REMARK                         _______ _______ _______ _____ _____    ______ ____
ROOT
ATOM      1  C   UNL     1      -2.547   1.788   0.023  0.00  0.00    +0.039 C 
ENDROOT
BRANCH   1   8
ATOM      2  C   UNL     1      -5.589   2.346  -7.330  0.00  0.00    +0.044 C 
ATOM      3  C   UNL     1      -5.063   2.012  -5.957  0.00  0.00    -0.048 A 
ATOM      4  C   UNL     1      -5.110   0.701  -5.503  0.00  0.00    +0.004 A 
ATOM      5  C   UNL     1      -4.639   0.378  -4.263  0.00  0.00    +0.010 A 
ATOM      6  C   UNL     1      -4.104   1.376  -3.442  0.00  0.00    -0.001 A 
ATOM      7  C   UNL     1      -3.586   1.064  -2.109  0.00  0.00    +0.017 A 
ATOM      8  C   UNL     1      -3.084   2.074  -1.356  0.00  0.00    +0.011 A 
ATOM      9  C   UNL     1      -3.058   3.392  -1.861  0.00  0.00    +0.251 A 
ATOM     10  O   UNL     1      -2.599   4.284  -1.169  0.00  0.00    -0.268 OA
ATOM     11  N   UNL     1      -3.527   3.687  -3.086  0.00  0.00    -0.322 N 
ATOM     12  H   UNL     1      -3.494   4.604  -3.402  0.00  0.00    +0.169 HD
ATOM     13  C   UNL     1      -4.054   2.707  -3.899  0.00  0.00    +0.049 A 
ATOM     14  C   UNL     1      -4.541   3.012  -5.166  0.00  0.00    +0.029 A 
ENDBRANCH   1   8
BRANCH   1  20
ATOM     15  C   UNL     1      -2.659   2.463   2.346  0.00  0.00    -0.058 C 
ATOM     16  C   UNL     1      -3.312   3.452   3.314  0.00  0.00    +0.086 C 
ATOM     17  N   UNL     1      -4.768   3.255   3.303  0.00  0.00    -0.333 N 
ATOM     18  C   UNL     1      -5.315   3.460   1.954  0.00  0.00    +0.086 C 
ATOM     19  C   UNL     1      -4.661   2.471   0.986  0.00  0.00    -0.058 C 
ATOM     20  N   UNL     1      -3.200   2.695   0.990  0.00  0.00    +0.391 N 
ATOM     21  H   UNL     1      -3.011   3.667   0.717  0.00  0.00    -0.080 HD
BRANCH  17  22
ATOM     22  C   UNL     1      -5.394   4.092   4.229  0.00  0.00    +0.030 A 
ATOM     23  C   UNL     1      -6.387   4.970   3.815  0.00  0.00    +0.025 A 
ATOM     24  C   UNL     1      -7.008   5.793   4.734  0.00  0.00    +0.034 A 
ATOM     25  C   UNL     1      -6.633   5.751   6.065  0.00  0.00    +0.126 A 
ATOM     26  C   UNL     1      -5.641   4.882   6.480  0.00  0.00    +0.034 A 
ATOM     27  C   UNL     1      -5.020   4.052   5.567  0.00  0.00    +0.025 A 
BRANCH  25  28
ATOM     28  N   UNL     1      -7.296   6.638   7.047  0.00  0.00    +0.056 N 
ATOM     29  O   UNL     1      -6.968   6.602   8.219  0.00  0.00    -0.126 OA
ATOM     30  O   UNL     1      -8.171   7.404   6.682  0.00  0.00    -0.126 OA
ENDBRANCH  25  28
ENDBRANCH  17  22
ENDBRANCH   1  20
BRANCH   1  31
ATOM     31  C   UNL     1      -1.061   2.036   0.044  0.00  0.00    +0.143 A 
ATOM     32  N   UNL     1      -0.462   3.202   0.061  0.00  0.00    -0.115 NA
ATOM     33  N   UNL     1       0.809   2.996   0.072  0.00  0.00    -0.023 NA
ATOM     34  N   UNL     1       1.038   1.729   0.067  0.00  0.00    -0.044 NA
ATOM     35  N   UNL     1      -0.090   1.103   0.054  0.00  0.00    -0.228 N 
BRANCH  35  36
ATOM     36  C   UNL     1      -0.280  -0.349   0.044  0.00  0.00    +0.175 C 
BRANCH  36  37
ATOM     37  C   UNL     1      -0.359  -0.863   1.483  0.00  0.00    +0.183 C 
BRANCH  37  38
ATOM     38  O   UNL     1      -0.543  -2.280   1.473  0.00  0.00    -0.381 OA
ATOM     39  C   UNL     1      -0.630  -2.864   2.775  0.00  0.00    +0.194 C 
ENDBRANCH  37  38
ENDBRANCH  36  37
ENDBRANCH  35  36
ENDBRANCH   1  31
TORSDOF 8
