REMARK  Name = ZINC39479118
REMARK  4 active torsions:
REMARK  status: ('A' for Active; 'I' for Inactive)
REMARK    1  A    between atoms: C_1  and  C_2
REMARK    2  A    between atoms: C_7  and  C_8
REMARK    3  A    between atoms: C_11  and  C_13
REMARK    4  A    between atoms: N_22  and  C_23
REMARK                            x       y       z     vdW  Elec       q    Type
REMARK                         _______ _______ _______ _____ _____    ______ ____
ROOT
ATOM      1  C   UNL     1       0.025   0.018   2.493  0.00  0.00    +0.109 A 
ATOM      2  N   UNL     1       0.003   1.323   2.721  0.00  0.00    -0.247 NA
ATOM      3  C   UNL     1       0.009   1.802   3.943  0.00  0.00    +0.126 A 
ATOM      4  C   UNL     1       0.037   0.951   5.004  0.00  0.00    +0.048 A 
ATOM      5  S   UNL     1       0.049  -0.626   4.160  0.00  0.00    -0.069 S 
ENDROOT
BRANCH   4   6
ATOM      6  C   UNL     1       0.050   1.253   6.480  0.00  0.00    +0.213 C 
ATOM      7  N   UNL     1      -0.648   0.173   7.234  0.00  0.00    -0.267 NA
ATOM      8  C   UNL     1      -2.033   0.658   7.192  0.00  0.00    +0.211 C 
ATOM      9  C   UNL     1      -1.887   2.179   7.214  0.00  0.00    +0.094 C 
ATOM     10  N   UNL     1      -0.718   2.479   6.756  0.00  0.00    -0.259 NA
ATOM     11  C   UNL     1      -3.112   2.602   7.890  0.00  0.00    +0.156 C 
ATOM     12  N   UNL     1      -3.622   1.586   8.528  0.00  0.00    -0.189 NA
ATOM     13  N   UNL     1      -2.822   0.415   8.400  0.00  0.00    -0.235 N 
ATOM     14  C   UNL     1      -2.782  -0.759   9.276  0.00  0.00    +0.154 C 
ATOM     15  H   UNL     1      -0.561  -0.713   6.761  0.00  0.00    +0.126 HD
ENDBRANCH   4   6
BRANCH   1  22
ATOM     16  C   UNL     1      -0.018   1.503   0.010  0.00  0.00    +0.044 C 
ATOM     17  C   UNL     1       0.002  -0.004   0.002  0.00  0.00    -0.041 A 
ATOM     18  C   UNL     1       0.006  -0.689  -1.196  0.00  0.00    +0.004 A 
ATOM     19  C   UNL     1       0.025  -2.072  -1.205  0.00  0.00    +0.000 A 
ATOM     20  C   UNL     1       0.040  -2.778  -0.015  0.00  0.00    +0.001 A 
ATOM     21  C   UNL     1       0.037  -2.105   1.189  0.00  0.00    +0.011 A 
ATOM     22  C   UNL     1       0.023  -0.710   1.206  0.00  0.00    +0.010 A 
ENDBRANCH   1  22
TORSDOF 2
