REMARK  Name = ZINC24641489
REMARK  7 active torsions:
REMARK  status: ('A' for Active; 'I' for Inactive)
REMARK    1  A    between atoms: C_1  and  C_2
REMARK    2  A    between atoms: C_2  and  C_3
REMARK    3  A    between atoms: C_3  and  C_25
REMARK    4  A    between atoms: N_6  and  N_10
REMARK    5  A    between atoms: C_11  and  C_13
REMARK    6  A    between atoms: C_16  and  C_18
REMARK    7  A    between atoms: C_21  and  C_24
REMARK                            x       y       z     vdW  Elec       q    Type
REMARK                         _______ _______ _______ _____ _____    ______ ____
ROOT
ATOM      1  C   UNL     1       4.533  -5.215  -0.683  0.00  0.00    +0.139 C 
ATOM      2  C   UNL     1       4.161  -3.817  -1.136  0.00  0.00    +0.268 C 
ATOM      3  O   UNL     1       4.300  -3.345  -2.244  0.00  0.00    -0.271 OA
ATOM      4  N   UNL     1       3.645  -3.208  -0.051  0.00  0.00    -0.137 N 
ATOM      5  C   UNL     1       3.643  -4.016   1.015  0.00  0.00    +0.327 C 
ATOM      6  O   UNL     1       3.230  -3.689   2.110  0.00  0.00    -0.251 OA
ATOM      7  N   UNL     1       4.147  -5.232   0.738  0.00  0.00    -0.280 N 
ATOM      8  H   UNL     1       4.301  -6.141   1.339  0.00  0.00    +0.152 HD
ENDROOT
BRANCH   1   9
ATOM      9  C   UNL     1       6.015  -5.445  -0.836  0.00  0.00    -0.015 A 
ATOM     10  C   UNL     1       6.514  -5.977  -2.011  0.00  0.00    +0.006 A 
ATOM     11  C   UNL     1       7.873  -6.184  -2.153  0.00  0.00    +0.000 A 
ATOM     12  C   UNL     1       8.732  -5.868  -1.117  0.00  0.00    +0.000 A 
ATOM     13  C   UNL     1       8.233  -5.341   0.059  0.00  0.00    +0.000 A 
ATOM     14  C   UNL     1       6.874  -5.130   0.199  0.00  0.00    +0.006 A 
ENDBRANCH   1   9
BRANCH   4  15
ATOM     15  N   UNL     1       3.173  -1.889  -0.039  0.00  0.00    -0.218 N 
ATOM     16  C   UNL     1       1.847  -1.647  -0.025  0.00  0.00    +0.280 C 
ATOM     17  O   UNL     1       1.060  -2.575  -0.023  0.00  0.00    -0.267 OA
ATOM     18  H   UNL     1       3.885  -1.050  -0.041  0.00  0.00    +0.174 HD
BRANCH  16  19
ATOM     19  C   UNL     1       1.351  -0.260  -0.012  0.00  0.00    +0.135 A 
ATOM     20  C   UNL     1       0.002  -0.004   0.002  0.00  0.00    +0.080 A 
ATOM     21  S   UNL     1      -0.021   1.732   0.012  0.00  0.00    -0.075 S 
ATOM     22  C   UNL     1       1.745   1.995  -0.004  0.00  0.00    +0.109 A 
ATOM     23  N   UNL     1       2.200   0.756  -0.015  0.00  0.00    -0.234 NA
BRANCH  22  24
ATOM     24  C   UNL     1       2.499   3.268  -0.005  0.00  0.00    +0.007 A 
ATOM     25  C   UNL     1       3.894   3.255  -0.013  0.00  0.00    +0.011 A 
ATOM     26  C   UNL     1       4.593   4.445  -0.019  0.00  0.00    +0.004 A 
ATOM     27  C   UNL     1       3.912   5.649  -0.007  0.00  0.00    -0.050 A 
ATOM     28  C   UNL     1       2.529   5.669   0.007  0.00  0.00    +0.004 A 
ATOM     29  C   UNL     1       1.819   4.486   0.008  0.00  0.00    +0.011 A 
ATOM     30  C   UNL     1       4.681   6.945  -0.008  0.00  0.00    +0.044 C 
ENDBRANCH  22  24
ENDBRANCH  16  19
ENDBRANCH   4  15
BRANCH   1  32
ATOM     31  C   UNL     1       2.245  -6.040  -1.254  0.00  0.00    +0.007 C 
ATOM     32  C   UNL     1       3.743  -6.264  -1.469  0.00  0.00    +0.037 C 
ENDBRANCH   1  32
TORSDOF 5
