REMARK  Name = ZINC08610081
REMARK  10 active torsions:
REMARK  status: ('A' for Active; 'I' for Inactive)
REMARK    1  A    between atoms: C_1  and  C_2
REMARK    2  A    between atoms: C_2  and  O_3
REMARK    3  A    between atoms: O_3  and  C_4
REMARK    4  A    between atoms: C_4  and  C_6
REMARK    5  A    between atoms: C_7  and  N_32
REMARK    6  A    between atoms: N_13  and  C_14
REMARK    7  A    between atoms: C_14  and  C_15
REMARK    8  A    between atoms: C_16  and  C_27
REMARK    9  A    between atoms: C_18  and  C_20
REMARK   10  A    between atoms: C_33  and  C_35
REMARK                            x       y       z     vdW  Elec       q    Type
REMARK                         _______ _______ _______ _____ _____    ______ ____
ROOT
ATOM      1  C   UNL     1       2.683  -2.446   2.220  0.00  0.00    +0.150 A 
ATOM      2  C   UNL     1       1.848  -3.501   2.534  0.00  0.00    +0.074 A 
ATOM      3  C   UNL     1       1.427  -3.336   3.893  0.00  0.00    +0.033 A 
ATOM      4  C   UNL     1       0.576  -4.029   4.868  0.00  0.00    -0.026 A 
ATOM      5  C   UNL     1       0.474  -3.473   6.091  0.00  0.00    -0.004 A 
ATOM      6  S   UNL     1       1.486  -2.020   6.016  0.00  0.00    -0.075 S 
ATOM      7  C   UNL     1       2.043  -2.168   4.337  0.00  0.00    +0.091 A 
ATOM      8  N   UNL     1       2.798  -1.635   3.344  0.00  0.00    -0.322 N 
ATOM      9  C   UNL     1      -0.324  -3.977   7.254  0.00  0.00    +0.043 C 
ATOM     10  C   UNL     1      -1.315  -5.031   6.740  0.00  0.00    +0.005 C 
ATOM     11  C   UNL     1      -0.562  -6.013   5.837  0.00  0.00    +0.005 C 
ATOM     12  C   UNL     1      -0.165  -5.320   4.533  0.00  0.00    +0.036 C 
ENDROOT
BRANCH   2  13
ATOM     13  N   UNL     1       1.481  -4.538   1.682  0.00  0.00    -0.283 N 
ATOM     14  C   UNL     1       0.657  -4.298   0.643  0.00  0.00    +0.214 C 
ATOM     15  O   UNL     1       0.308  -3.163   0.396  0.00  0.00    -0.276 OA
ATOM     16  C   UNL     1       0.168  -5.439  -0.211  0.00  0.00    +0.109 C 
ATOM     17  H   UNL     1       1.819  -5.434   1.835  0.00  0.00    +0.155 HD
ENDBRANCH   2  13
BRANCH   1  18
ATOM     18  C   UNL     1       3.315  -2.232   0.975  0.00  0.00    +0.358 C 
ATOM     19  O   UNL     1       4.413  -2.711   0.760  0.00  0.00    -0.243 OA
BRANCH  18  20
ATOM     20  O   UNL     1       2.701  -1.495   0.024  0.00  0.00    -0.460 OA
BRANCH  20  22
ATOM     21  C   UNL     1       2.579  -0.430  -2.142  0.00  0.00    +0.048 C 
ATOM     22  C   UNL     1       3.363  -1.383  -1.237  0.00  0.00    +0.229 C 
ENDBRANCH  20  22
ENDBRANCH  18  20
ENDBRANCH   1  18
BRANCH   8  23
ATOM     23  C   UNL     1       3.597  -0.411   3.439  0.00  0.00    +0.182 C 
BRANCH  23  24
ATOM     24  C   UNL     1       5.023  -0.766   3.770  0.00  0.00    +0.102 A 
ATOM     25  C   UNL     1       5.539  -0.906   5.005  0.00  0.00    +0.127 A 
ATOM     26  O   UNL     1       6.840  -1.226   4.861  0.00  0.00    -0.440 OA
ATOM     27  C   UNL     1       7.106  -1.278   3.545  0.00  0.00    +0.228 A 
ATOM     28  N   UNL     1       6.004  -1.005   2.886  0.00  0.00    -0.212 NA
ATOM     29  C   UNL     1       4.798  -0.737   6.306  0.00  0.00    +0.088 C 
BRANCH  27  30
ATOM     30  C   UNL     1       8.416  -1.595   2.940  0.00  0.00    +0.037 A 
ATOM     31  C   UNL     1       8.563  -1.610   1.552  0.00  0.00    +0.014 A 
ATOM     32  C   UNL     1       9.789  -1.906   0.994  0.00  0.00    +0.021 A 
ATOM     33  C   UNL     1      10.873  -2.189   1.807  0.00  0.00    +0.041 A 
ATOM     34  C   UNL     1      10.734  -2.176   3.185  0.00  0.00    +0.021 A 
ATOM     35  C   UNL     1       9.514  -1.875   3.755  0.00  0.00    +0.014 A 
ATOM     36 CL   UNL     1      12.413  -2.561   1.097  0.00  0.00    -0.084 Cl
ENDBRANCH  27  30
ENDBRANCH  23  24
ENDBRANCH   8  23
TORSDOF 7
