REMARK  Name = ZINC12487744
REMARK  9 active torsions:
REMARK  status: ('A' for Active; 'I' for Inactive)
REMARK    1  A    between atoms: C_5  and  C_7
REMARK    2  A    between atoms: C_7  and  C_9
REMARK    3  A    between atoms: C_7  and  N_18
REMARK    4  A    between atoms: N_11  and  C_12
REMARK    5  A    between atoms: C_12  and  C_13
REMARK    6  A    between atoms: N_18  and  C_19
REMARK    7  A    between atoms: C_26  and  C_28
REMARK    8  A    between atoms: C_28  and  N_29
REMARK    9  A    between atoms: C_30  and  C_32
REMARK                            x       y       z     vdW  Elec       q    Type
REMARK                         _______ _______ _______ _____ _____    ______ ____
ROOT
ATOM      1  N   UNL     1       0.340   1.095  -0.904  0.00  0.00    -0.251 N 
ATOM      2  C   UNL     1       0.461  -0.244  -0.814  0.00  0.00    +0.238 C 
ATOM      3  O   UNL     1       1.357  -0.729  -0.156  0.00  0.00    -0.274 OA
ENDROOT
BRANCH   1   4
ATOM      4  C   UNL     1      -0.691   1.656  -1.668  0.00  0.00    +0.073 A 
ATOM      5  C   UNL     1      -1.949   1.841  -1.111  0.00  0.00    +0.026 A 
ATOM      6  C   UNL     1      -2.964   2.394  -1.867  0.00  0.00    +0.002 A 
ATOM      7  C   UNL     1      -2.729   2.764  -3.178  0.00  0.00    +0.003 A 
ATOM      8  C   UNL     1      -1.478   2.583  -3.738  0.00  0.00    +0.040 A 
ATOM      9  C   UNL     1      -0.456   2.033  -2.986  0.00  0.00    +0.145 A 
ATOM     10  F   UNL     1       0.768   1.860  -3.531  0.00  0.00    -0.204 F 
ENDBRANCH   1   4
BRANCH   1  11
ATOM     11  C   UNL     1       1.291   1.965  -0.207  0.00  0.00    +0.200 C 
BRANCH  11  16
ATOM     12  C   UNL     1      -0.098   1.087   3.192  0.00  0.00    +0.001 A 
ATOM     13  C   UNL     1       0.999   1.306   4.005  0.00  0.00    +0.003 A 
ATOM     14  C   UNL     1       2.191   1.739   3.456  0.00  0.00    +0.039 A 
ATOM     15  C   UNL     1       2.287   1.953   2.092  0.00  0.00    +0.129 A 
ATOM     16  C   UNL     1       1.188   1.733   1.279  0.00  0.00    +0.017 A 
ATOM     17  C   UNL     1      -0.005   1.305   1.831  0.00  0.00    +0.009 A 
ATOM     18  F   UNL     1       3.452   2.377   1.554  0.00  0.00    -0.205 F 
ENDBRANCH  11  16
BRANCH  11  19
ATOM     19  C   UNL     1       0.972   3.406  -0.513  0.00  0.00    +0.239 C 
ATOM     20  O   UNL     1      -0.176   3.794  -0.472  0.00  0.00    -0.273 OA
ATOM     21  N   UNL     1       1.962   4.262  -0.833  0.00  0.00    -0.306 N 
ATOM     22  H   UNL     1       2.880   3.951  -0.865  0.00  0.00    +0.149 HD
BRANCH  21  23
ATOM     23  C   UNL     1       1.652   5.662  -1.131  0.00  0.00    +0.178 C 
BRANCH  23  24
ATOM     24  C   UNL     1       2.925   6.401  -1.455  0.00  0.00    +0.122 A 
ATOM     25  C   UNL     1       3.467   6.535  -2.679  0.00  0.00    +0.046 A 
ATOM     26  C   UNL     1       4.648   7.296  -2.522  0.00  0.00    +0.041 A 
ATOM     27  C   UNL     1       4.757   7.582  -1.212  0.00  0.00    +0.195 A 
ATOM     28  O   UNL     1       3.708   7.042  -0.571  0.00  0.00    -0.466 OA
ENDBRANCH  23  24
ENDBRANCH  21  23
ENDBRANCH  11  19
ENDBRANCH   1  11
BRANCH   2  29
ATOM     29  C   UNL     1      -0.517  -1.139  -1.531  0.00  0.00    +0.201 C 
BRANCH  29  30
ATOM     30  N   UNL     1      -0.173  -2.540  -1.278  0.00  0.00    -0.302 N 
ATOM     31  C   UNL     1      -0.915  -3.525  -1.822  0.00  0.00    +0.251 C 
ATOM     32  O   UNL     1      -1.871  -3.250  -2.524  0.00  0.00    -0.270 OA
ATOM     33  H   UNL     1       0.589  -2.759  -0.719  0.00  0.00    +0.150 HD
BRANCH  31  34
ATOM     34  C   UNL     1      -0.571  -4.927  -1.569  0.00  0.00    +0.074 A 
ATOM     35  C   UNL     1      -1.199  -6.076  -2.022  0.00  0.00    +0.021 A 
ATOM     36  C   UNL     1      -0.662  -7.278  -1.632  0.00  0.00    +0.008 A 
ATOM     37  C   UNL     1       0.434  -7.285  -0.828  0.00  0.00    +0.046 A 
ATOM     38  S   UNL     1       0.761  -5.599  -0.590  0.00  0.00    -0.092 S 
ENDBRANCH  31  34
ENDBRANCH  29  30
ENDBRANCH   2  29
TORSDOF 9
