REMARK  Name = ZINC40704687
REMARK  6 active torsions:
REMARK  status: ('A' for Active; 'I' for Inactive)
REMARK    1  A    between atoms: C_1  and  C_2
REMARK    2  A    between atoms: C_5  and  C_29
REMARK    3  A    between atoms: C_6  and  N_8
REMARK    4  A    between atoms: C_10  and  N_28
REMARK    5  A    between atoms: C_11  and  N_15
REMARK    6  A    between atoms: N_18  and  C_21
REMARK                            x       y       z     vdW  Elec       q    Type
REMARK                         _______ _______ _______ _____ _____    ______ ____
ROOT
ATOM      1  N   UNL     1       0.051  -2.797   2.391  0.00  0.00    -0.298 N 
ATOM      2  C   UNL     1       0.153  -2.113   3.598  0.00  0.00    +0.149 A 
ATOM      3  C   UNL     1       0.281  -2.812   4.800  0.00  0.00    +0.106 A 
ATOM      4  C   UNL     1       0.380  -2.076   5.982  0.00  0.00    +0.147 A 
ATOM      5  N   UNL     1       0.349  -0.747   5.919  0.00  0.00    -0.219 NA
ATOM      6  C   UNL     1       0.228  -0.127   4.763  0.00  0.00    +0.225 A 
ATOM      7  N   UNL     1       0.136  -0.783   3.623  0.00  0.00    -0.219 NA
ATOM      8  H   UNL     1      -0.019  -3.765   2.387  0.00  0.00    +0.154 HD
ENDROOT
BRANCH   1  14
ATOM      9  C   UNL     1       1.272   1.224  -0.157  0.00  0.00    +0.044 C 
ATOM     10  C   UNL     1       0.634  -0.139  -0.079  0.00  0.00    -0.049 A 
ATOM     11  C   UNL     1       0.047  -0.692  -1.202  0.00  0.00    +0.004 A 
ATOM     12  C   UNL     1      -0.539  -1.943  -1.135  0.00  0.00    +0.005 A 
ATOM     13  C   UNL     1      -0.539  -2.644   0.056  0.00  0.00    -0.029 A 
ATOM     14  C   UNL     1       0.050  -2.091   1.185  0.00  0.00    +0.036 A 
ATOM     15  C   UNL     1       0.642  -0.836   1.113  0.00  0.00    +0.027 A 
ATOM     16  C   UNL     1      -1.179  -4.006   0.128  0.00  0.00    +0.045 C 
ENDBRANCH   1  14
BRANCH   4  17
ATOM     17  N   UNL     1       0.508  -2.721   7.206  0.00  0.00    -0.311 N 
ATOM     18  C   UNL     1       1.829  -3.138   7.697  0.00  0.00    +0.125 C 
ATOM     19  C   UNL     1       2.049  -2.529   9.088  0.00  0.00    +0.124 C 
ATOM     20  N   UNL     1       0.866  -2.807   9.915  0.00  0.00    -0.325 N 
ATOM     21  C   UNL     1      -0.455  -2.390   9.423  0.00  0.00    +0.124 C 
ATOM     22  C   UNL     1      -0.674  -2.994   8.035  0.00  0.00    +0.125 C 
BRANCH  20  23
ATOM     23  C   UNL     1       0.995  -3.456  11.146  0.00  0.00    +0.065 A 
ATOM     24  C   UNL     1       1.186  -2.717  12.306  0.00  0.00    +0.026 A 
ATOM     25  C   UNL     1       1.313  -3.362  13.521  0.00  0.00    +0.002 A 
ATOM     26  C   UNL     1       1.250  -4.741  13.585  0.00  0.00    +0.003 A 
ATOM     27  C   UNL     1       1.061  -5.482  12.433  0.00  0.00    +0.040 A 
ATOM     28  C   UNL     1       0.927  -4.844  11.213  0.00  0.00    +0.144 A 
ATOM     29  F   UNL     1       0.736  -5.567  10.088  0.00  0.00    -0.204 F 
ENDBRANCH  20  23
ENDBRANCH   4  17
BRANCH   3  30
ATOM     30  N   UNL     1       0.308  -4.215   4.819  0.00  0.00    -0.353 N 
ATOM     31  H   UNL     1       0.311  -4.712   3.986  0.00  0.00    +0.143 HD
ATOM     32  H   UNL     1       0.323  -4.689   5.666  0.00  0.00    +0.143 HD
ENDBRANCH   3  30
TORSDOF 4
