REMARK  Name = ZINC20214206
REMARK  9 active torsions:
REMARK  status: ('A' for Active; 'I' for Inactive)
REMARK    1  A    between atoms: C_1  and  C_2
REMARK    2  A    between atoms: C_2  and  N_3
REMARK    3  A    between atoms: N_6  and  C_9
REMARK    4  A    between atoms: C_9  and  C_10
REMARK    5  A    between atoms: C_11  and  C_25
REMARK    6  A    between atoms: C_12  and  C_18
REMARK    7  A    between atoms: C_25  and  O_27
REMARK    8  A    between atoms: O_27  and  C_28
REMARK    9  A    between atoms: C_28  and  C_29
REMARK                            x       y       z     vdW  Elec       q    Type
REMARK                         _______ _______ _______ _____ _____    ______ ____
ROOT
ATOM      1  C   UNL     1      -4.892  -4.146  -1.246  0.00  0.00    +0.038 C 
ATOM      2  C   UNL     1      -5.181  -4.893  -0.159  0.00  0.00    +0.079 C 
ATOM      3  C   UNL     1      -5.008  -6.394  -0.268  0.00  0.00    +0.144 C 
ATOM      4  N   UNL     1      -4.534  -6.919  -1.560  0.00  0.00    -0.288 N 
ATOM      5  C   UNL     1      -4.286  -6.044  -2.556  0.00  0.00    +0.304 C 
ATOM      6  O   UNL     1      -3.895  -6.467  -3.626  0.00  0.00    -0.252 OA
ATOM      7  N   UNL     1      -4.463  -4.725  -2.406  0.00  0.00    -0.271 N 
ATOM      8  H   UNL     1      -4.403  -7.871  -1.692  0.00  0.00    +0.151 HD
ATOM      9  H   UNL     1      -4.270  -4.149  -3.162  0.00  0.00    +0.156 HD
ENDROOT
BRANCH   3  10
ATOM     10  C   UNL     1      -4.031  -6.828   0.794  0.00  0.00    -0.022 A 
ATOM     11  C   UNL     1      -2.673  -6.666   0.592  0.00  0.00    +0.007 A 
ATOM     12  C   UNL     1      -1.776  -7.063   1.566  0.00  0.00    +0.020 A 
ATOM     13  C   UNL     1      -2.238  -7.623   2.744  0.00  0.00    +0.041 A 
ATOM     14  C   UNL     1      -3.598  -7.785   2.946  0.00  0.00    +0.020 A 
ATOM     15  C   UNL     1      -4.493  -7.382   1.973  0.00  0.00    +0.007 A 
ATOM     16 CL   UNL     1      -1.113  -8.123   3.968  0.00  0.00    -0.084 Cl
ENDBRANCH   3  10
BRANCH   2  17
ATOM     17  C   UNL     1      -5.631  -4.294   1.041  0.00  0.00    +0.339 C 
ATOM     18  O   UNL     1      -4.852  -4.110   1.958  0.00  0.00    -0.245 OA
BRANCH  17  19
ATOM     19  O   UNL     1      -6.923  -3.928   1.170  0.00  0.00    -0.462 OA
BRANCH  19  20
ATOM     20  C   UNL     1      -7.308  -3.329   2.409  0.00  0.00    +0.229 C 
ATOM     21  C   UNL     1      -8.797  -2.983   2.368  0.00  0.00    +0.048 C 
ENDBRANCH  19  20
ENDBRANCH  17  19
ENDBRANCH   2  17
BRANCH   1  22
ATOM     22  C   UNL     1      -5.051  -2.649  -1.180  0.00  0.00    +0.135 C 
BRANCH  22  26
ATOM     23  N   UNL     1      -1.637  -0.227  -0.588  0.00  0.00    +0.381 N 
ATOM     24  C   UNL     1      -2.496   0.061  -1.744  0.00  0.00    -0.063 C 
ATOM     25  C   UNL     1      -3.877  -0.557  -1.520  0.00  0.00    +0.066 C 
ATOM     26  N   UNL     1      -3.738  -2.009  -1.342  0.00  0.00    -0.300 NA
ATOM     27  C   UNL     1      -2.860  -2.313  -0.202  0.00  0.00    +0.066 C 
ATOM     28  C   UNL     1      -1.487  -1.680  -0.437  0.00  0.00    -0.063 C 
ATOM     29  H   UNL     1      -2.057   0.156   0.246  0.00  0.00    -0.082 HD
BRANCH  23  31
ATOM     30  C   UNL     1      -0.457   1.906  -0.828  0.00  0.00    -0.017 C 
ATOM     31  C   UNL     1      -0.317   0.383  -0.795  0.00  0.00    -0.082 C 
ENDBRANCH  23  31
ENDBRANCH  22  26
ENDBRANCH   1  22
TORSDOF 7
