REMARK  Name = ZINC08820341
REMARK  9 active torsions:
REMARK  status: ('A' for Active; 'I' for Inactive)
REMARK    1  A    between atoms: C_9  and  S_11
REMARK    2  A    between atoms: S_11  and  C_12
REMARK    3  A    between atoms: C_12  and  C_13
REMARK    4  A    between atoms: N_15  and  N_16
REMARK    5  A    between atoms: C_17  and  C_19
REMARK    6  A    between atoms: C_19  and  C_20
REMARK    7  A    between atoms: C_20  and  C_21
REMARK    8  A    between atoms: C_21  and  N_22
REMARK    9  A    between atoms: C_26  and  C_27
REMARK                            x       y       z     vdW  Elec       q    Type
REMARK                         _______ _______ _______ _____ _____    ______ ____
ROOT
ATOM      1  N   UNL     1       8.283  -1.216  -2.846  0.00  0.00    -0.234 N 
ATOM      2  C   UNL     1       7.502  -0.143  -2.612  0.00  0.00    +0.229 C 
ATOM      3  O   UNL     1       7.112   0.537  -3.538  0.00  0.00    -0.274 OA
ATOM      4  H   UNL     1       8.594  -1.760  -2.105  0.00  0.00    +0.173 HD
ENDROOT
BRANCH   1   7
ATOM      5  C   UNL     1       9.427  -2.619  -4.392  0.00  0.00    +0.239 C 
ATOM      6  O   UNL     1       9.816  -3.299  -3.466  0.00  0.00    -0.273 OA
ATOM      7  N   UNL     1       8.646  -1.546  -4.158  0.00  0.00    -0.234 N 
ATOM      8  H   UNL     1       8.335  -1.002  -4.899  0.00  0.00    +0.173 HD
BRANCH   5   9
ATOM      9  C   UNL     1       9.818  -2.974  -5.803  0.00  0.00    +0.174 C 
BRANCH   9  10
ATOM     10  S   UNL     1      10.861  -4.452  -5.787  0.00  0.00    -0.078 S 
BRANCH  10  19
ATOM     11  C   UNL     1      12.270  -5.604 -11.808  0.00  0.00    +0.002 A 
ATOM     12  C   UNL     1      11.493  -4.476 -12.026  0.00  0.00    +0.002 A 
ATOM     13  C   UNL     1      10.918  -3.809 -10.968  0.00  0.00    +0.030 A 
ATOM     14  C   UNL     1      11.117  -4.271  -9.665  0.00  0.00    +0.090 A 
ATOM     15  C   UNL     1      11.904  -5.415  -9.450  0.00  0.00    +0.067 A 
ATOM     16  C   UNL     1      12.476  -6.074 -10.527  0.00  0.00    +0.028 A 
ATOM     17  N   UNL     1      11.915  -5.623  -8.080  0.00  0.00    -0.333 N 
ATOM     18  H   UNL     1      12.388  -6.359  -7.596  0.00  0.00    +0.168 HD
ATOM     19  C   UNL     1      11.161  -4.635  -7.514  0.00  0.00    +0.168 A 
ATOM     20  N   UNL     1      10.688  -3.845  -8.447  0.00  0.00    -0.222 NA
ENDBRANCH  10  19
ENDBRANCH   9  10
ENDBRANCH   5   9
ENDBRANCH   1   7
BRANCH   2  21
ATOM     21  C   UNL     1       7.111   0.212  -1.200  0.00  0.00    +0.099 C 
BRANCH  21  22
ATOM     22  C   UNL     1       6.229   1.462  -1.214  0.00  0.00    +0.029 C 
BRANCH  22  23
ATOM     23  C   UNL     1       5.833   1.822   0.219  0.00  0.00    +0.115 C 
BRANCH  23  24
ATOM     24  N   UNL     1       4.988   3.019   0.206  0.00  0.00    -0.255 N 
ATOM     25  C   UNL     1       3.676   2.884   0.107  0.00  0.00    +0.258 C 
ATOM     26  O   UNL     1       3.152   1.788   0.027  0.00  0.00    -0.269 OA
ATOM     27  C   UNL     1       2.881   4.123   0.100  0.00  0.00    +0.080 C 
ATOM     28  C   UNL     1       1.531   4.289   0.010  0.00  0.00    +0.066 C 
ATOM     29  S   UNL     1       4.173   5.351   0.232  0.00  0.00    -0.061 S 
ATOM     30  C   UNL     1       5.565   4.235   0.295  0.00  0.00    +0.121 C 
ATOM     31  S   UNL     1       7.229   4.615   0.428  0.00  0.00    -0.027 S 
BRANCH  28  32
ATOM     32  C   UNL     1       0.672   3.172   0.132  0.00  0.00    +0.129 A 
ATOM     33  C   UNL     1      -0.696   3.174  -0.054  0.00  0.00    +0.049 A 
ATOM     34  C   UNL     1      -1.130   1.857   0.163  0.00  0.00    +0.042 A 
ATOM     35  C   UNL     1      -0.039   1.122   0.473  0.00  0.00    +0.195 A 
ATOM     36  O   UNL     1       1.043   1.915   0.451  0.00  0.00    -0.463 OA
ENDBRANCH  28  32
ENDBRANCH  23  24
ENDBRANCH  22  23
ENDBRANCH  21  22
ENDBRANCH   2  21
TORSDOF 9
