REMARK  Name = ZINC20207053
REMARK  8 active torsions:
REMARK  status: ('A' for Active; 'I' for Inactive)
REMARK    1  A    between atoms: C_1  and  C_2
REMARK    2  A    between atoms: C_2  and  C_3
REMARK    3  A    between atoms: C_2  and  C_4
REMARK    4  A    between atoms: C_4  and  S_5
REMARK    5  A    between atoms: S_5  and  C_8
REMARK    6  A    between atoms: C_16  and  C_17
REMARK    7  A    between atoms: C_20  and  C_22
REMARK    8  A    between atoms: C_26  and  N_28
REMARK                            x       y       z     vdW  Elec       q    Type
REMARK                         _______ _______ _______ _____ _____    ______ ____
ROOT
ATOM      1  C   UNL     1       2.352  -1.138   2.386  0.00  0.00    +0.257 C 
ATOM      2  N   UNL     1       3.490  -0.531   2.529  0.00  0.00    -0.174 NA
ATOM      3  S   UNL     1       4.179  -1.259   3.873  0.00  0.00    +0.049 S 
ATOM      4  C   UNL     1       2.999  -2.387   4.206  0.00  0.00    +0.183 C 
ATOM      5  N   UNL     1       2.956  -3.324   5.126  0.00  0.00    -0.152 NA
ATOM      6  C   UNL     1       1.909  -4.171   5.160  0.00  0.00    +0.273 C 
ATOM      7  O   UNL     1       1.776  -4.963   6.079  0.00  0.00    -0.268 OA
ATOM      8  C   UNL     1       0.923  -4.118   4.056  0.00  0.00    +0.080 C 
ATOM      9  C   UNL     1       0.150  -5.216   3.713  0.00  0.00    +0.062 C 
ATOM     10  C   UNL     1       0.809  -2.820   3.337  0.00  0.00    +0.117 C 
ATOM     11  N   UNL     1      -0.309  -2.381   2.819  0.00  0.00    -0.386 N 
ATOM     12  N   UNL     1       2.023  -2.108   3.272  0.00  0.00    -0.203 N 
ATOM     13  H   UNL     1      -1.111  -2.924   2.866  0.00  0.00    +0.157 HD
ATOM     14  H   UNL     1      -0.336  -1.512   2.389  0.00  0.00    +0.157 HD
ENDROOT
BRANCH   9  15
ATOM     15  C   UNL     1       0.508  -6.497   4.166  0.00  0.00    +0.129 A 
ATOM     16  C   UNL     1      -0.241  -7.654   4.008  0.00  0.00    +0.050 A 
ATOM     17  C   UNL     1       0.484  -8.686   4.603  0.00  0.00    +0.050 A 
ATOM     18  C   UNL     1       1.643  -8.131   5.102  0.00  0.00    +0.136 A 
ATOM     19  O   UNL     1       1.642  -6.815   4.825  0.00  0.00    -0.455 OA
BRANCH  18  20
ATOM     20  C   UNL     1       2.708  -8.860   5.816  0.00  0.00    +0.019 A 
ATOM     21  C   UNL     1       2.595 -10.236   6.033  0.00  0.00    +0.012 A 
ATOM     22  C   UNL     1       3.595 -10.910   6.701  0.00  0.00    +0.003 A 
ATOM     23  C   UNL     1       4.709 -10.227   7.157  0.00  0.00    +0.033 A 
ATOM     24  C   UNL     1       4.829  -8.865   6.947  0.00  0.00    +0.127 A 
ATOM     25  C   UNL     1       3.839  -8.178   6.274  0.00  0.00    +0.044 A 
BRANCH  24  26
ATOM     26  N   UNL     1       6.024  -8.144   7.439  0.00  0.00    +0.056 N 
ATOM     27  O   UNL     1       6.894  -8.745   8.024  0.00  0.00    -0.126 OA
ATOM     28  O   UNL     1       6.130  -6.954   7.255  0.00  0.00    -0.126 OA
ENDBRANCH  24  26
ENDBRANCH  18  20
ENDBRANCH   9  15
BRANCH   1  29
ATOM     29  S   UNL     1       1.258  -0.706   1.075  0.00  0.00    +0.029 S 
ATOM     30  O   UNL     1       0.567  -1.909   0.767  0.00  0.00    -0.167 OA
ATOM     31  O   UNL     1       2.085  -0.077   0.105  0.00  0.00    -0.167 OA
BRANCH  29  32
ATOM     32  C   UNL     1       0.116   0.503   1.800  0.00  0.00    +0.178 C 
BRANCH  32  34
ATOM     33  C   UNL     1      -1.729  -0.152   0.248  0.00  0.00    +0.009 C 
ATOM     34  C   UNL     1      -0.847   1.004   0.722  0.00  0.00    +0.004 C 
ATOM     35  C   UNL     1      -1.728   2.113   1.301  0.00  0.00    +0.009 C 
ENDBRANCH  32  34
ENDBRANCH  29  32
ENDBRANCH   1  29
TORSDOF 6
