REMARK  Name = ZINC15008780
REMARK  5 active torsions:
REMARK  status: ('A' for Active; 'I' for Inactive)
REMARK    1  A    between atoms: C_10  and  N_11
REMARK    2  A    between atoms: C_12  and  C_14
REMARK    3  A    between atoms: C_14  and  N_15
REMARK    4  A    between atoms: C_19  and  C_20
REMARK    5  A    between atoms: C_23  and  O_27
REMARK                            x       y       z     vdW  Elec       q    Type
REMARK                         _______ _______ _______ _____ _____    ______ ____
ROOT
ATOM      1  N   UNL     1      -0.237  -5.502  -3.626  0.00  0.00    -0.219 N 
ATOM      2  C   UNL     1      -0.123  -4.678  -2.598  0.00  0.00    +0.261 C 
ATOM      3  O   UNL     1      -0.039  -3.474  -2.749  0.00  0.00    -0.269 OA
ATOM      4  C   UNL     1      -0.101  -5.294  -1.256  0.00  0.00    +0.080 C 
ATOM      5  C   UNL     1       0.005  -4.708  -0.037  0.00  0.00    +0.028 C 
ATOM      6  S   UNL     1      -0.244  -7.025  -1.680  0.00  0.00    -0.026 S 
ATOM      7  C   UNL     1      -0.328  -6.836  -3.453  0.00  0.00    +0.286 C 
ATOM      8  O   UNL     1      -0.436  -7.702  -4.301  0.00  0.00    -0.262 OA
ENDROOT
BRANCH   5   9
ATOM      9  C   UNL     1      -0.053  -3.246   0.083  0.00  0.00    -0.023 A 
ATOM     10  C   UNL     1       0.751  -2.584   1.019  0.00  0.00    +0.011 A 
ATOM     11  C   UNL     1       0.692  -1.213   1.127  0.00  0.00    +0.047 A 
ATOM     12  C   UNL     1      -0.164  -0.485   0.309  0.00  0.00    +0.131 A 
ATOM     13  C   UNL     1      -0.970  -1.137  -0.619  0.00  0.00    +0.060 A 
ATOM     14  C   UNL     1      -0.914  -2.508  -0.739  0.00  0.00    +0.027 A 
ATOM     15 BR   UNL     1      -2.136  -0.138  -1.722  0.00  0.00    -0.047 Br
BRANCH  12  16
ATOM     16  O   UNL     1      -0.219   0.867   0.421  0.00  0.00    -0.506 OA
ATOM     17  H   UNL     1       0.406   1.335  -0.150  0.00  0.00    +0.292 HD
ENDBRANCH  12  16
ENDBRANCH   5   9
BRANCH   1  18
ATOM     18  C   UNL     1      -0.265  -4.952  -4.984  0.00  0.00    +0.213 C 
BRANCH  18  20
ATOM     19  N   UNL     1       1.360  -4.391  -6.762  0.00  0.00    -0.284 N 
ATOM     20  C   UNL     1       1.140  -4.870  -5.521  0.00  0.00    +0.235 C 
ATOM     21  O   UNL     1       2.074  -5.234  -4.838  0.00  0.00    -0.274 OA
ATOM     22  H   UNL     1       0.626  -4.019  -7.276  0.00  0.00    +0.155 HD
BRANCH  19  32
ATOM     23  C   UNL     1       3.706  -1.940 -10.499  0.00  0.00    +0.001 A 
ATOM     24  C   UNL     1       2.418  -1.886  -9.969  0.00  0.00    +0.001 A 
ATOM     25  C   UNL     1       2.054  -2.687  -8.931  0.00  0.00    +0.010 A 
ATOM     26  C   UNL     1       2.986  -3.583  -8.384  0.00  0.00    +0.003 A 
ATOM     27  C   UNL     1       4.297  -3.635  -8.918  0.00  0.00    -0.016 A 
ATOM     28  C   UNL     1       4.639  -2.788  -9.987  0.00  0.00    +0.008 A 
ATOM     29  C   UNL     1       5.230  -4.535  -8.376  0.00  0.00    +0.008 A 
ATOM     30  C   UNL     1       4.871  -5.344  -7.341  0.00  0.00    +0.002 A 
ATOM     31  C   UNL     1       3.588  -5.298  -6.804  0.00  0.00    +0.024 A 
ATOM     32  C   UNL     1       2.645  -4.429  -7.308  0.00  0.00    +0.041 A 
ENDBRANCH  19  32
ENDBRANCH  18  20
ENDBRANCH   1  18
TORSDOF 5
