REMARK  Name = ZINC39711068
REMARK  13 active torsions:
REMARK  status: ('A' for Active; 'I' for Inactive)
REMARK    1  A    between atoms: C_1  and  C_2
REMARK    2  A    between atoms: C_4  and  C_40
REMARK    3  A    between atoms: C_9  and  C_14
REMARK    4  A    between atoms: C_14  and  C_16
REMARK    5  A    between atoms: C_14  and  N_26
REMARK    6  A    between atoms: N_21  and  C_22
REMARK    7  A    between atoms: C_22  and  C_23
REMARK    8  A    between atoms: C_22  and  C_24
REMARK    9  A    between atoms: C_22  and  C_25
REMARK   10  A    between atoms: N_26  and  C_27
REMARK   11  A    between atoms: N_26  and  C_33
REMARK   12  A    between atoms: C_27  and  C_28
REMARK   13  A    between atoms: C_33  and  C_34
REMARK                            x       y       z     vdW  Elec       q    Type
REMARK                         _______ _______ _______ _____ _____    ______ ____
ROOT
ATOM      1  C   UNL     1       1.270  -4.538   2.505  0.00  0.00    -0.010 C 
ENDROOT
BRANCH   1  10
ATOM      2  C   UNL     1       2.554   1.724  -0.679  0.00  0.00    +0.044 C 
ATOM      3  C   UNL     1       2.088   0.291  -0.667  0.00  0.00    -0.050 A 
ATOM      4  C   UNL     1       2.072  -0.432  -1.860  0.00  0.00    +0.008 A 
ATOM      5  C   UNL     1       1.666  -1.727  -1.927  0.00  0.00    -0.028 A 
ATOM      6  C   UNL     1       1.238  -2.402  -0.769  0.00  0.00    +0.043 A 
ATOM      7  N   UNL     1       0.843  -3.672  -0.847  0.00  0.00    -0.284 N 
ATOM      8  C   UNL     1       0.428  -4.365   0.201  0.00  0.00    +0.223 C 
ATOM      9  O   UNL     1       0.079  -5.523   0.069  0.00  0.00    -0.275 OA
ATOM     10  C   UNL     1       0.391  -3.712   1.565  0.00  0.00    +0.088 C 
ATOM     11  C   UNL     1       0.840  -2.267   1.658  0.00  0.00    -0.006 C 
ATOM     12  C   UNL     1       1.245  -1.663   0.505  0.00  0.00    -0.007 A 
ATOM     13  C   UNL     1       1.699  -0.272   0.506  0.00  0.00    +0.012 A 
ATOM     14  C   UNL     1       1.674  -2.446  -3.252  0.00  0.00    +0.046 C 
ATOM     15  H   UNL     1       0.859  -4.110  -1.712  0.00  0.00    +0.155 HD
ENDBRANCH   1  10
BRANCH   1  16
ATOM     16  C   UNL     1       2.693  -4.606   1.945  0.00  0.00    +0.183 C 
ATOM     17  N   UNL     1       2.795  -5.647   0.905  0.00  0.00    -0.229 N 
ATOM     18  N   UNL     1       3.728  -6.575   1.383  0.00  0.00    -0.064 NA
ATOM     19  N   UNL     1       4.177  -6.271   2.484  0.00  0.00    -0.061 NA
ATOM     20  N   UNL     1       3.639  -5.071   2.977  0.00  0.00    -0.211 N 
ATOM     21  H   UNL     1       2.314  -5.682   0.063  0.00  0.00    +0.172 HD
BRANCH  20  22
ATOM     22  C   UNL     1       3.949  -4.416   4.250  0.00  0.00    +0.047 C 
ATOM     23  C   UNL     1       2.785  -4.614   5.223  0.00  0.00    +0.033 C 
ATOM     24  C   UNL     1       5.219  -5.030   4.843  0.00  0.00    +0.033 C 
ATOM     25  C   UNL     1       4.168  -2.920   4.013  0.00  0.00    +0.033 C 
ENDBRANCH  20  22
ENDBRANCH   1  16
BRANCH   1  26
ATOM     26  N   UNL     1       0.724  -5.897   2.619  0.00  0.00    +0.391 N 
ATOM     27  H   UNL     1       0.824  -6.375   1.736  0.00  0.00    -0.080 HD
BRANCH  26  28
ATOM     28  C   UNL     1       1.455  -6.633   3.659  0.00  0.00    -0.002 C 
BRANCH  28  29
ATOM     29  C   UNL     1       0.980  -8.063   3.691  0.00  0.00    +0.089 A 
ATOM     30  C   UNL     1       1.556  -9.097   3.051  0.00  0.00    +0.042 A 
ATOM     31  C   UNL     1       0.788 -10.245   3.354  0.00  0.00    +0.041 A 
ATOM     32  C   UNL     1      -0.210  -9.844   4.162  0.00  0.00    +0.195 A 
ATOM     33  O   UNL     1      -0.085  -8.522   4.367  0.00  0.00    -0.470 OA
ENDBRANCH  28  29
ENDBRANCH  26  28
BRANCH  26  34
ATOM     34  C   UNL     1      -0.698  -5.824   2.979  0.00  0.00    -0.046 C 
BRANCH  34  35
ATOM     35  C   UNL     1      -0.848  -5.112   4.325  0.00  0.00    +0.102 C 
ATOM     36  C   UNL     1      -2.324  -5.154   4.778  0.00  0.00    +0.032 C 
ATOM     37  C   UNL     1      -2.519  -3.743   5.396  0.00  0.00    +0.030 C 
ATOM     38  C   UNL     1      -1.601  -2.892   4.482  0.00  0.00    +0.160 C 
ATOM     39  O   UNL     1      -0.473  -3.736   4.191  0.00  0.00    -0.378 OA
ENDBRANCH  34  35
ENDBRANCH  26  34
ENDBRANCH   1  26
TORSDOF 8
