REMARK  Name = ZINC36542940
REMARK  17 active torsions:
REMARK  status: ('A' for Active; 'I' for Inactive)
REMARK    1  A    between atoms: C_1  and  C_2
REMARK    2  A    between atoms: C_2  and  C_3
REMARK    3  A    between atoms: C_3  and  C_5
REMARK    4  A    between atoms: C_3  and  C_11
REMARK    5  A    between atoms: N_13  and  C_14
REMARK    6  A    between atoms: N_13  and  C_21
REMARK    7  A    between atoms: C_21  and  C_23
REMARK    8  A    between atoms: C_21  and  C_30
REMARK    9  A    between atoms: C_28  and  O_29
REMARK   10  A    between atoms: N_32  and  C_33
REMARK   11  A    between atoms: C_33  and  C_34
REMARK   12  A    between atoms: C_33  and  C_35
REMARK   13  A    between atoms: C_33  and  C_36
REMARK   14  A    between atoms: C_36  and  C_37
REMARK   15  A    between atoms: C_37  and  C_38
REMARK   16  A    between atoms: C_37  and  C_39
REMARK   17  A    between atoms: C_37  and  C_40
REMARK                            x       y       z     vdW  Elec       q    Type
REMARK                         _______ _______ _______ _____ _____    ______ ____
ROOT
ATOM      1  C   UNL     1      -3.092  -5.491  -0.227  0.00  0.00    +0.201 C 
ENDROOT
BRANCH   1   2
ATOM      2  C   UNL     1      -4.241  -6.071   0.556  0.00  0.00    +0.024 A 
ATOM      3  C   UNL     1      -5.377  -5.316   0.779  0.00  0.00    +0.009 A 
ATOM      4  C   UNL     1      -6.431  -5.847   1.498  0.00  0.00    +0.001 A 
ATOM      5  C   UNL     1      -6.353  -7.135   1.995  0.00  0.00    +0.004 A 
ATOM      6  C   UNL     1      -5.220  -7.894   1.774  0.00  0.00    +0.046 A 
ATOM      7  C   UNL     1      -4.162  -7.365   1.049  0.00  0.00    +0.122 A 
BRANCH   7   8
ATOM      8  O   UNL     1      -3.049  -8.112   0.826  0.00  0.00    -0.506 OA
ATOM      9  H   UNL     1      -2.371  -8.022   1.510  0.00  0.00    +0.292 HD
ENDBRANCH   7   8
ENDBRANCH   1   2
BRANCH   1  10
ATOM     10  C   UNL     1      -3.207  -5.906  -1.671  0.00  0.00    +0.239 C 
ATOM     11  O   UNL     1      -3.264  -5.064  -2.542  0.00  0.00    -0.273 OA
ATOM     12  N   UNL     1      -3.248  -7.214  -1.995  0.00  0.00    -0.308 N 
ATOM     13  H   UNL     1      -3.202  -7.888  -1.298  0.00  0.00    +0.149 HD
BRANCH  12  14
ATOM     14  C   UNL     1      -3.360  -7.618  -3.399  0.00  0.00    +0.030 C 
ATOM     15  C   UNL     1      -4.737  -7.222  -3.934  0.00  0.00    +0.031 C 
ATOM     16  C   UNL     1      -2.273  -6.919  -4.219  0.00  0.00    +0.031 C 
BRANCH  14  17
ATOM     17  C   UNL     1      -3.187  -9.134  -3.509  0.00  0.00    +0.031 C 
BRANCH  17  18
ATOM     18  C   UNL     1      -1.747  -9.510  -3.151  0.00  0.00    -0.036 C 
ATOM     19  C   UNL     1      -1.294  -8.696  -1.938  0.00  0.00    +0.010 C 
ATOM     20  C   UNL     1      -1.677 -11.002  -2.820  0.00  0.00    +0.010 C 
ATOM     21  C   UNL     1      -0.831  -9.208  -4.339  0.00  0.00    +0.010 C 
ENDBRANCH  17  18
ENDBRANCH  14  17
ENDBRANCH  12  14
ENDBRANCH   1  10
BRANCH   1  24
ATOM     22  C   UNL     1      -2.943  -3.425   1.055  0.00  0.00    +0.228 C 
ATOM     23  O   UNL     1      -2.675  -4.085   2.037  0.00  0.00    -0.275 OA
ATOM     24  N   UNL     1      -3.126  -4.029  -0.135  0.00  0.00    -0.253 N 
BRANCH  24  25
ATOM     25  C   UNL     1      -3.350  -3.261  -1.283  0.00  0.00    +0.056 A 
ATOM     26  C   UNL     1      -4.643  -3.063  -1.748  0.00  0.00    +0.025 A 
ATOM     27  C   UNL     1      -4.861  -2.304  -2.881  0.00  0.00    +0.002 A 
ATOM     28  C   UNL     1      -3.792  -1.741  -3.554  0.00  0.00    +0.002 A 
ATOM     29  C   UNL     1      -2.502  -1.935  -3.095  0.00  0.00    +0.022 A 
ATOM     30  C   UNL     1      -2.278  -2.689  -1.958  0.00  0.00    +0.062 A 
ATOM     31 CL   UNL     1      -0.659  -2.927  -1.378  0.00  0.00    -0.082 Cl
ENDBRANCH  24  25
BRANCH  22  32
ATOM     32  C   UNL     1      -3.071  -1.927   1.167  0.00  0.00    +0.105 C 
BRANCH  32  33
ATOM     33  C   UNL     1      -2.308  -1.447   2.375  0.00  0.00    -0.036 A 
ATOM     34  C   UNL     1      -2.643  -1.910   3.634  0.00  0.00    +0.004 A 
ATOM     35  C   UNL     1      -1.944  -1.470   4.741  0.00  0.00    +0.000 A 
ATOM     36  C   UNL     1      -0.909  -0.565   4.590  0.00  0.00    +0.000 A 
ATOM     37  C   UNL     1      -0.573  -0.102   3.332  0.00  0.00    +0.000 A 
ATOM     38  C   UNL     1      -1.270  -0.546   2.224  0.00  0.00    +0.004 A 
ENDBRANCH  32  33
BRANCH  32  40
ATOM     39  C   UNL     1      -4.700  -0.033   1.199  0.00  0.00    +0.005 C 
ATOM     40  C   UNL     1      -4.547  -1.551   1.314  0.00  0.00    +0.014 C 
ENDBRANCH  32  40
ENDBRANCH  22  32
ENDBRANCH   1  24
TORSDOF 11
