REMARK  Name = ZINC39341552
REMARK  5 active torsions:
REMARK  status: ('A' for Active; 'I' for Inactive)
REMARK    1  A    between atoms: C_1  and  C_2
REMARK    2  A    between atoms: C_7  and  C_14
REMARK    3  A    between atoms: N_9  and  C_10
REMARK    4  A    between atoms: C_10  and  C_11
REMARK    5  A    between atoms: C_11  and  C_12
REMARK                            x       y       z     vdW  Elec       q    Type
REMARK                         _______ _______ _______ _____ _____    ______ ____
ROOT
ATOM      1  C   UNL     1      -0.019   1.526   0.010  0.00  0.00    -0.013 C 
ATOM      2  C   UNL     1       0.002  -0.004   0.002  0.00  0.00    -0.071 C 
ATOM      3  C   UNL     1      -1.434  -0.533   0.011  0.00  0.00    -0.016 C 
ATOM      4  C   UNL     1      -1.408  -2.064   0.003  0.00  0.00    -0.003 C 
ATOM      5  C   UNL     1      -0.600  -2.558   1.206  0.00  0.00    -0.016 C 
ATOM      6  C   UNL     1       0.805  -1.954   1.152  0.00  0.00    -0.071 C 
ATOM      7  N   UNL     1       0.713  -0.490   1.191  0.00  0.00    +0.383 N 
ATOM      8  C   UNL     1       1.497  -2.387  -0.142  0.00  0.00    -0.013 C 
ATOM      9  H   UNL     1       0.213  -0.206   2.020  0.00  0.00    -0.081 HD
ENDROOT
BRANCH   7  10
ATOM     10  C   UNL     1       2.066   0.083   1.218  0.00  0.00    -0.077 C 
BRANCH  10  11
ATOM     11  C   UNL     1       2.764  -0.321   2.518  0.00  0.00    -0.003 C 
BRANCH  11  12
ATOM     12  C   UNL     1       4.173   0.276   2.547  0.00  0.00    +0.107 C 
ATOM     13 CL   UNL     1       4.997  -0.201   4.078  0.00  0.00    -0.125 Cl
ENDBRANCH  11  12
ENDBRANCH  10  11
ENDBRANCH   7  10
TORSDOF 3
