REMARK  Name = ZINC36531005
REMARK  9 active torsions:
REMARK  status: ('A' for Active; 'I' for Inactive)
REMARK    1  A    between atoms: C_1  and  N_2
REMARK    2  A    between atoms: N_2  and  C_3
REMARK    3  A    between atoms: C_3  and  C_5
REMARK    4  A    between atoms: C_3  and  C_15
REMARK    5  A    between atoms: C_8  and  C_11
REMARK    6  A    between atoms: N_17  and  C_18
REMARK    7  A    between atoms: C_24  and  C_26
REMARK    8  A    between atoms: C_27  and  O_33
REMARK    9  A    between atoms: C_31  and  O_32
REMARK                            x       y       z     vdW  Elec       q    Type
REMARK                         _______ _______ _______ _____ _____    ______ ____
ROOT
ATOM      1  C   UNL     1       0.135  -0.742   1.261  0.00  0.00    +0.192 C 
ENDROOT
BRANCH   1   2
ATOM      2  C   UNL     1      -1.079  -0.494   2.118  0.00  0.00    -0.018 A 
ATOM      3  C   UNL     1      -1.137   0.625   2.928  0.00  0.00    +0.006 A 
ATOM      4  C   UNL     1      -2.251   0.852   3.715  0.00  0.00    +0.013 A 
ATOM      5  C   UNL     1      -3.307  -0.039   3.692  0.00  0.00    +0.055 A 
ATOM      6  C   UNL     1      -3.250  -1.158   2.881  0.00  0.00    +0.013 A 
ATOM      7  C   UNL     1      -2.138  -1.383   2.091  0.00  0.00    +0.006 A 
BRANCH   5   8
ATOM      8  C   UNL     1      -4.521   0.208   4.550  0.00  0.00    +0.417 C 
ATOM      9  F   UNL     1      -5.452   0.967   3.833  0.00  0.00    -0.166 F 
ATOM     10  F   UNL     1      -5.095  -1.016   4.909  0.00  0.00    -0.166 F 
ATOM     11  F   UNL     1      -4.142   0.902   5.704  0.00  0.00    -0.166 F 
ENDBRANCH   5   8
ENDBRANCH   1   2
BRANCH   1  13
ATOM     12  C   UNL     1       0.312   1.672   0.498  0.00  0.00    +0.133 C 
ATOM     13  N   UNL     1       0.180   0.247   0.181  0.00  0.00    -0.285 N 
ATOM     14  C   UNL     1       0.100  -0.153  -1.103  0.00  0.00    +0.254 C 
ATOM     15  O   UNL     1      -0.010  -1.335  -1.366  0.00  0.00    -0.270 OA
BRANCH  14  16
ATOM     16  C   UNL     1       0.145   0.841  -2.188  0.00  0.00    +0.119 A 
ATOM     17  C   UNL     1       1.373   1.212  -2.756  0.00  0.00    +0.133 A 
ATOM     18  C   UNL     1       1.405   2.148  -3.777  0.00  0.00    +0.046 A 
ATOM     19  C   UNL     1       0.231   2.716  -4.236  0.00  0.00    +0.007 A 
ATOM     20  C   UNL     1      -0.985   2.359  -3.683  0.00  0.00    +0.046 A 
ATOM     21  C   UNL     1      -1.039   1.421  -2.666  0.00  0.00    +0.133 A 
BRANCH  21  22
ATOM     22  O   UNL     1      -2.234   1.067  -2.129  0.00  0.00    -0.506 OA
ATOM     23  H   UNL     1      -2.504   1.612  -1.377  0.00  0.00    +0.292 HD
ENDBRANCH  21  22
BRANCH  17  24
ATOM     24  O   UNL     1       2.526   0.655  -2.307  0.00  0.00    -0.506 OA
ATOM     25  H   UNL     1       2.780  -0.153  -2.772  0.00  0.00    +0.292 HD
ENDBRANCH  17  24
ENDBRANCH  14  16
ENDBRANCH   1  13
BRANCH   1  26
ATOM     26  C   UNL     1       1.378  -0.623   2.104  0.00  0.00    +0.238 C 
ATOM     27  O   UNL     1       2.219   0.207   1.830  0.00  0.00    -0.273 OA
ATOM     28  N   UNL     1       1.555  -1.438   3.162  0.00  0.00    -0.311 N 
ATOM     29  H   UNL     1       0.883  -2.101   3.381  0.00  0.00    +0.149 HD
BRANCH  28  30
ATOM     30  C   UNL     1       2.764  -1.322   3.982  0.00  0.00    +0.073 C 
ATOM     31  C   UNL     1       3.890  -2.141   3.348  0.00  0.00    +0.022 C 
ATOM     32  C   UNL     1       5.153  -2.020   4.204  0.00  0.00    +0.002 C 
ATOM     33  C   UNL     1       4.867  -2.548   5.612  0.00  0.00    +0.000 C 
ATOM     34  C   UNL     1       3.741  -1.729   6.245  0.00  0.00    +0.002 C 
ATOM     35  C   UNL     1       2.479  -1.850   5.389  0.00  0.00    +0.022 C 
ENDBRANCH  28  30
ENDBRANCH   1  26
TORSDOF 8
