REMARK  Name = ZINC63349761
REMARK  4 active torsions:
REMARK  status: ('A' for Active; 'I' for Inactive)
REMARK    1  A    between atoms: C_1  and  O_2
REMARK    2  A    between atoms: O_2  and  C_3
REMARK    3  A    between atoms: C_3  and  C_5
REMARK    4  A    between atoms: C_18  and  C_21
REMARK                            x       y       z     vdW  Elec       q    Type
REMARK                         _______ _______ _______ _____ _____    ______ ____
ROOT
ATOM      1  C   UNL     1       0.679  -2.115   1.088  0.00  0.00    +0.168 C 
ATOM      2  C   UNL     1       1.712  -2.625   0.066  0.00  0.00    +0.063 C 
ATOM      3  C   UNL     1       3.064  -2.223   0.600  0.00  0.00    -0.035 C 
ATOM      4  C   UNL     1       4.096  -1.608   0.042  0.00  0.00    -0.001 A 
ATOM      5  C   UNL     1       4.366  -1.205  -1.348  0.00  0.00    +0.010 A 
ATOM      6  C   UNL     1       5.540  -0.555  -1.567  0.00  0.00    +0.001 A 
ATOM      7  C   UNL     1       6.462  -0.269  -0.555  0.00  0.00    +0.002 A 
ATOM      8  C   UNL     1       6.301  -0.612   0.748  0.00  0.00    +0.026 A 
ATOM      9  C   UNL     1       5.109  -1.309   1.101  0.00  0.00    +0.043 A 
ATOM     10  N   UNL     1       4.717  -1.776   2.250  0.00  0.00    -0.376 N 
ATOM     11  C   UNL     1       3.457  -2.487   2.050  0.00  0.00    +0.128 C 
ATOM     12  C   UNL     1       2.317  -1.932   2.907  0.00  0.00    +0.111 C 
ATOM     13  N   UNL     1       1.060  -2.533   2.441  0.00  0.00    -0.295 NA
ATOM     14  H   UNL     1       0.314  -2.357   3.097  0.00  0.00    +0.123 HD
ATOM     15  H   UNL     1       5.182  -1.670   3.095  0.00  0.00    +0.160 HD
ENDROOT
BRANCH  12  16
ATOM     16  C   UNL     1       2.547  -2.289   4.353  0.00  0.00    -0.027 A 
ATOM     17  C   UNL     1       2.232  -3.555   4.811  0.00  0.00    +0.005 A 
ATOM     18  C   UNL     1       2.443  -3.883   6.137  0.00  0.00    +0.001 A 
ATOM     19  C   UNL     1       2.970  -2.945   7.006  0.00  0.00    +0.015 A 
ATOM     20  C   UNL     1       3.285  -1.679   6.548  0.00  0.00    +0.018 A 
ATOM     21  C   UNL     1       3.079  -1.353   5.219  0.00  0.00    +0.020 A 
ATOM     22 BR   UNL     1       4.005  -0.395   7.736  0.00  0.00    -0.050 Br
ENDBRANCH  12  16
BRANCH   1  23
ATOM     23  C   UNL     1       0.618  -0.611   1.029  0.00  0.00    +0.324 C 
ATOM     24  O   UNL     1       0.763   0.040   2.036  0.00  0.00    -0.249 OA
BRANCH  23  26
ATOM     25  C   UNL     1       0.358   1.435  -0.127  0.00  0.00    +0.280 C 
ATOM     26  O   UNL     1       0.404   0.006  -0.144  0.00  0.00    -0.467 OA
ENDBRANCH  23  26
ENDBRANCH   1  23
TORSDOF 3
