REMARK  Name = ZINC35483472
REMARK  19 active torsions:
REMARK  status: ('A' for Active; 'I' for Inactive)
REMARK    1  A    between atoms: C_1  and  C_2
REMARK    2  A    between atoms: C_2  and  C_3
REMARK    3  A    between atoms: C_3  and  C_4
REMARK    4  A    between atoms: C_4  and  N_5
REMARK    5  A    between atoms: N_5  and  C_6
REMARK    6  A    between atoms: N_5  and  C_10
REMARK    7  A    between atoms: C_6  and  C_7
REMARK    8  A    between atoms: C_7  and  C_8
REMARK    9  A    between atoms: C_8  and  C_9
REMARK   10  A    between atoms: C_10  and  C_11
REMARK   11  A    between atoms: C_11  and  C_12
REMARK   12  A    between atoms: C_12  and  N_13
REMARK   13  A    between atoms: C_14  and  C_29
REMARK   14  A    between atoms: C_31  and  O_39
REMARK   15  A    between atoms: C_32  and  O_37
REMARK   16  A    between atoms: C_33  and  O_35
REMARK   17  A    between atoms: O_35  and  C_36
REMARK   18  A    between atoms: O_37  and  C_38
REMARK   19  A    between atoms: O_39  and  C_40
REMARK                            x       y       z     vdW  Elec       q    Type
REMARK                         _______ _______ _______ _____ _____    ______ ____
ROOT
ATOM      1  N   UNL     1      -2.042  -5.995  -3.175  0.00  0.00    -0.284 N 
ATOM      2  C   UNL     1      -2.937  -6.324  -2.054  0.00  0.00    +0.145 C 
ATOM      3  C   UNL     1      -4.290  -6.519  -2.657  0.00  0.00    +0.072 A 
ATOM      4  C   UNL     1      -5.577  -6.870  -2.049  0.00  0.00    +0.199 A 
ATOM      5  O   UNL     1      -5.762  -6.895  -0.845  0.00  0.00    -0.287 OA
ATOM      6  C   UNL     1      -6.635  -7.192  -3.041  0.00  0.00    +0.064 A 
ATOM      7  C   UNL     1      -7.851  -7.735  -2.625  0.00  0.00    +0.015 A 
ATOM      8  C   UNL     1      -8.812  -8.031  -3.551  0.00  0.00    +0.001 A 
ATOM      9  C   UNL     1      -8.581  -7.794  -4.899  0.00  0.00    +0.004 A 
ATOM     10  C   UNL     1      -7.387  -7.258  -5.326  0.00  0.00    +0.047 A 
ATOM     11  C   UNL     1      -6.391  -6.944  -4.401  0.00  0.00    +0.139 A 
ATOM     12  O   UNL     1      -5.230  -6.409  -4.842  0.00  0.00    -0.450 OA
ATOM     13  C   UNL     1      -4.179  -6.314  -4.003  0.00  0.00    +0.199 A 
ATOM     14  C   UNL     1      -2.775  -5.987  -4.307  0.00  0.00    +0.283 C 
ATOM     15  O   UNL     1      -2.341  -5.746  -5.416  0.00  0.00    -0.267 OA
ENDROOT
BRANCH   2  16
ATOM     16  C   UNL     1      -2.480  -7.591  -1.379  0.00  0.00    -0.015 A 
ATOM     17  C   UNL     1      -2.011  -8.647  -2.138  0.00  0.00    +0.055 A 
ATOM     18  C   UNL     1      -1.590  -9.815  -1.520  0.00  0.00    +0.165 A 
ATOM     19  C   UNL     1      -1.639  -9.923  -0.135  0.00  0.00    +0.204 A 
ATOM     20  C   UNL     1      -2.111  -8.859   0.625  0.00  0.00    +0.165 A 
ATOM     21  C   UNL     1      -2.525  -7.692  -0.001  0.00  0.00    +0.055 A 
BRANCH  20  22
ATOM     22  O   UNL     1      -2.161  -8.959   1.980  0.00  0.00    -0.491 OA
ATOM     23  C   UNL     1      -2.657  -7.827   2.697  0.00  0.00    +0.277 C 
ENDBRANCH  20  22
BRANCH  19  24
ATOM     24  O   UNL     1      -1.227 -11.067   0.475  0.00  0.00    -0.488 OA
ATOM     25  C   UNL     1       0.151 -11.145   0.845  0.00  0.00    +0.277 C 
ENDBRANCH  19  24
BRANCH  18  26
ATOM     26  O   UNL     1      -1.130 -10.853  -2.268  0.00  0.00    -0.491 OA
ATOM     27  C   UNL     1      -1.108 -10.672  -3.685  0.00  0.00    +0.277 C 
ENDBRANCH  18  26
ENDBRANCH   2  16
BRANCH   1  28
ATOM     28  C   UNL     1      -0.606  -5.719  -3.078  0.00  0.00    +0.107 C 
BRANCH  28  29
ATOM     29  C   UNL     1      -0.390  -4.221  -2.851  0.00  0.00    +0.000 C 
BRANCH  29  30
ATOM     30  C   UNL     1       1.109  -3.932  -2.749  0.00  0.00    -0.077 C 
BRANCH  30  31
ATOM     31  N   UNL     1       1.317  -2.495  -2.531  0.00  0.00    +0.380 N 
ATOM     32  H   UNL     1       0.856  -1.974  -3.261  0.00  0.00    -0.082 HD
BRANCH  31  33
ATOM     33  C   UNL     1       0.758  -2.111  -1.228  0.00  0.00    -0.079 C 
BRANCH  33  34
ATOM     34  C   UNL     1       0.846  -0.593  -1.062  0.00  0.00    -0.019 C 
BRANCH  34  36
ATOM     35  C   UNL     1       0.232   1.339   0.399  0.00  0.00    +0.004 C 
ATOM     36  C   UNL     1       0.144  -0.179   0.234  0.00  0.00    -0.005 C 
ENDBRANCH  34  36
ENDBRANCH  33  34
ENDBRANCH  31  33
BRANCH  31  37
ATOM     37  C   UNL     1       2.756  -2.199  -2.552  0.00  0.00    -0.079 C 
BRANCH  37  38
ATOM     38  C   UNL     1       3.310  -2.463  -3.954  0.00  0.00    -0.019 C 
BRANCH  38  39
ATOM     39  C   UNL     1       4.776  -2.030  -4.013  0.00  0.00    -0.005 C 
ATOM     40  C   UNL     1       5.330  -2.294  -5.414  0.00  0.00    +0.004 C 
ENDBRANCH  38  39
ENDBRANCH  37  38
ENDBRANCH  31  37
ENDBRANCH  30  31
ENDBRANCH  29  30
ENDBRANCH  28  29
ENDBRANCH   1  28
TORSDOF 14
