REMARK  Name = ZINC39757458
REMARK  11 active torsions:
REMARK  status: ('A' for Active; 'I' for Inactive)
REMARK    1  A    between atoms: C_1  and  C_2
REMARK    2  A    between atoms: C_2  and  C_4
REMARK    3  A    between atoms: C_2  and  N_23
REMARK    4  A    between atoms: C_7  and  S_13
REMARK    5  A    between atoms: N_8  and  C_9
REMARK    6  A    between atoms: C_9  and  C_10
REMARK    7  A    between atoms: C_10  and  C_11
REMARK    8  A    between atoms: C_10  and  C_12
REMARK    9  A    between atoms: S_13  and  C_14
REMARK   10  A    between atoms: C_14  and  C_15
REMARK   11  A    between atoms: C_24  and  C_26
REMARK                            x       y       z     vdW  Elec       q    Type
REMARK                         _______ _______ _______ _____ _____    ______ ____
ROOT
ATOM      1  C   UNL     1       0.731  -0.503   1.223  0.00  0.00    +0.154 A 
ATOM      2  N   UNL     1       0.272  -0.523   2.442  0.00  0.00    -0.132 NA
ATOM      3  N   UNL     1       1.154  -1.013   3.238  0.00  0.00    -0.122 NA
ATOM      4  C   UNL     1       2.233  -1.336   2.563  0.00  0.00    +0.192 A 
ATOM      5  N   UNL     1       1.994  -1.025   1.255  0.00  0.00    -0.304 N 
ENDROOT
BRANCH   1   7
ATOM      6  C   UNL     1      -0.019   1.526   0.010  0.00  0.00    +0.036 C 
ATOM      7  C   UNL     1       0.002  -0.004   0.002  0.00  0.00    +0.138 C 
BRANCH   7   8
ATOM      8  N   UNL     1      -1.372  -0.511   0.012  0.00  0.00    -0.302 N 
ATOM      9  C   UNL     1      -2.051  -0.643  -1.145  0.00  0.00    +0.245 C 
ATOM     10  O   UNL     1      -1.522  -0.341  -2.197  0.00  0.00    -0.270 OA
ATOM     11  H   UNL     1      -1.794  -0.752   0.852  0.00  0.00    +0.150 HD
BRANCH   9  12
ATOM     12  C   UNL     1      -3.437  -1.154  -1.134  0.00  0.00    +0.037 A 
ATOM     13  C   UNL     1      -4.049  -1.497   0.073  0.00  0.00    +0.014 A 
ATOM     14  C   UNL     1      -5.343  -1.973   0.077  0.00  0.00    +0.021 A 
ATOM     15  C   UNL     1      -6.036  -2.112  -1.114  0.00  0.00    +0.041 A 
ATOM     16  C   UNL     1      -5.434  -1.774  -2.316  0.00  0.00    +0.021 A 
ATOM     17  C   UNL     1      -4.143  -1.292  -2.331  0.00  0.00    +0.014 A 
ATOM     18 CL   UNL     1      -7.664  -2.714  -1.102  0.00  0.00    -0.084 Cl
ENDBRANCH   9  12
ENDBRANCH   7   8
ENDBRANCH   1   7
BRANCH   5  19
ATOM     19  C   UNL     1       2.905  -1.210   0.122  0.00  0.00    +0.128 C 
BRANCH  19  20
ATOM     20  C   UNL     1       3.761   0.046  -0.053  0.00  0.00    +0.003 C 
ATOM     21  C   UNL     1       4.666   0.221   1.168  0.00  0.00    +0.009 C 
ATOM     22  C   UNL     1       4.623  -0.097  -1.310  0.00  0.00    +0.009 C 
ENDBRANCH  19  20
ENDBRANCH   5  19
BRANCH   4  23
ATOM     23  S   UNL     1       3.707  -2.043   3.221  0.00  0.00    -0.077 S 
BRANCH  23  24
ATOM     24  C   UNL     1       3.364  -2.203   4.995  0.00  0.00    +0.173 C 
BRANCH  24  25
ATOM     25  C   UNL     1       4.561  -2.803   5.686  0.00  0.00    +0.229 C 
ATOM     26  O   UNL     1       5.548  -3.094   5.045  0.00  0.00    -0.275 OA
ATOM     27  N   UNL     1       4.534  -3.017   7.016  0.00  0.00    -0.264 N 
ATOM     28  C   UNL     1       5.638  -3.571   7.654  0.00  0.00    +0.164 A 
ATOM     29  N   UNL     1       6.786  -3.939   7.127  0.00  0.00    -0.233 NA
ATOM     30  C   UNL     1       7.745  -4.454   7.874  0.00  0.00    +0.120 A 
ATOM     31  C   UNL     1       7.492  -4.583   9.200  0.00  0.00    +0.068 A 
ATOM     32  S   UNL     1       5.834  -3.925   9.287  0.00  0.00    -0.061 S 
ATOM     33  H   UNL     1       3.744  -2.784   7.529  0.00  0.00    +0.157 HD
ENDBRANCH  24  25
ENDBRANCH  23  24
ENDBRANCH   4  23
TORSDOF 8
