REMARK  Name = ZINC34749505
REMARK  12 active torsions:
REMARK  status: ('A' for Active; 'I' for Inactive)
REMARK    1  A    between atoms: C_1  and  C_2
REMARK    2  A    between atoms: C_2  and  C_3
REMARK    3  A    between atoms: C_4  and  C_37
REMARK    4  A    between atoms: N_10  and  C_29
REMARK    5  A    between atoms: N_16  and  C_19
REMARK    6  A    between atoms: C_19  and  C_20
REMARK    7  A    between atoms: N_22  and  C_23
REMARK    8  A    between atoms: C_29  and  C_30
REMARK    9  A    between atoms: N_32  and  C_33
REMARK   10  A    between atoms: N_32  and  C_35
REMARK   11  A    between atoms: C_33  and  C_34
REMARK   12  A    between atoms: C_35  and  C_36
REMARK                            x       y       z     vdW  Elec       q    Type
REMARK                         _______ _______ _______ _____ _____    ______ ____
ROOT
ATOM      1  C   UNL     1      -1.467  -0.475   0.036  0.00  0.00    -0.023 A 
ATOM      2  C   UNL     1      -2.139  -0.638   1.185  0.00  0.00    -0.007 A 
ATOM      3  S   UNL     1      -3.745  -1.196   0.651  0.00  0.00    -0.073 S 
ATOM      4  C   UNL     1      -3.469  -1.194  -1.102  0.00  0.00    +0.117 A 
ATOM      5  C   UNL     1      -2.137  -0.754  -1.223  0.00  0.00    +0.076 A 
ATOM      6  C   UNL     1      -1.635  -0.650  -2.558  0.00  0.00    +0.264 A 
ATOM      7  O   UNL     1      -0.491  -0.282  -2.761  0.00  0.00    -0.267 OA
ATOM      8  N   UNL     1      -2.443  -0.965  -3.588  0.00  0.00    -0.271 N 
ATOM      9  C   UNL     1      -3.726  -1.378  -3.380  0.00  0.00    +0.202 A 
ATOM     10  N   UNL     1      -4.210  -1.493  -2.162  0.00  0.00    -0.208 NA
ATOM     11  N   UNL     1      -4.519  -1.689  -4.457  0.00  0.00    -0.304 N 
ATOM     12  C   UNL     1      -5.339  -0.660  -5.115  0.00  0.00    +0.089 C 
ATOM     13  C   UNL     1      -6.772  -1.187  -5.238  0.00  0.00    -0.059 C 
ATOM     14  N   UNL     1      -6.759  -2.483  -5.927  0.00  0.00    +0.387 N 
ATOM     15  C   UNL     1      -6.043  -3.474  -5.114  0.00  0.00    -0.059 C 
ATOM     16  C   UNL     1      -4.569  -3.060  -4.988  0.00  0.00    +0.089 C 
ATOM     17  C   UNL     1      -1.651  -0.406   2.592  0.00  0.00    +0.052 C 
ATOM     18  H   UNL     1      -6.297  -2.384  -6.818  0.00  0.00    -0.081 HD
ENDROOT
BRANCH   1  20
ATOM     19  C   UNL     1      -0.004   1.526  -0.009  0.00  0.00    +0.009 C 
ATOM     20  C   UNL     1      -0.036  -0.002   0.049  0.00  0.00    +0.033 C 
ENDBRANCH   1  20
BRANCH  14  21
ATOM     21  C   UNL     1      -8.140  -2.936  -6.142  0.00  0.00    +0.019 C 
BRANCH  21  22
ATOM     22  C   UNL     1      -8.132  -4.204  -6.956  0.00  0.00    +0.197 C 
ATOM     23  O   UNL     1      -7.080  -4.684  -7.321  0.00  0.00    -0.278 OA
ATOM     24  N   UNL     1      -9.295  -4.804  -7.279  0.00  0.00    -0.314 N 
ATOM     25  H   UNL     1     -10.136  -4.421  -6.987  0.00  0.00    +0.149 HD
BRANCH  24  26
ATOM     26  C   UNL     1      -9.287  -6.037  -8.070  0.00  0.00    +0.073 C 
ATOM     27  C   UNL     1      -9.224  -5.688  -9.558  0.00  0.00    +0.022 C 
ATOM     28  C   UNL     1      -9.216  -6.975 -10.385  0.00  0.00    +0.002 C 
ATOM     29  C   UNL     1     -10.492  -7.771 -10.101  0.00  0.00    +0.000 C 
ATOM     30  C   UNL     1     -10.555  -8.121  -8.613  0.00  0.00    +0.002 C 
ATOM     31  C   UNL     1     -10.563  -6.833  -7.787  0.00  0.00    +0.022 C 
ENDBRANCH  24  26
ENDBRANCH  21  22
ENDBRANCH  14  21
BRANCH   8  32
ATOM     32  C   UNL     1      -1.934  -0.860  -4.958  0.00  0.00    +0.224 C 
BRANCH  32  33
ATOM     33  C   UNL     1      -1.231  -2.139  -5.331  0.00  0.00    +0.236 C 
ATOM     34  O   UNL     1      -1.161  -3.049  -4.532  0.00  0.00    -0.274 OA
ATOM     35  N   UNL     1      -0.679  -2.273  -6.554  0.00  0.00    -0.301 N 
BRANCH  35  36
ATOM     36  C   UNL     1       0.004  -3.516  -6.917  0.00  0.00    +0.104 C 
ATOM     37  C   UNL     1      -0.999  -4.486  -7.545  0.00  0.00    +0.024 C 
ENDBRANCH  35  36
BRANCH  35  38
ATOM     38  C   UNL     1      -0.763  -1.174  -7.519  0.00  0.00    +0.104 C 
ATOM     39  C   UNL     1       0.449  -0.256  -7.354  0.00  0.00    +0.024 C 
ENDBRANCH  35  38
ENDBRANCH  32  33
ENDBRANCH   8  32
TORSDOF 8
