REMARK  Name = ZINC38989407
REMARK  8 active torsions:
REMARK  status: ('A' for Active; 'I' for Inactive)
REMARK    1  A    between atoms: C_3  and  C_33
REMARK    2  A    between atoms: C_5  and  N_7
REMARK    3  A    between atoms: C_8  and  C_10
REMARK    4  A    between atoms: C_10  and  S_11
REMARK    5  A    between atoms: S_11  and  C_12
REMARK    6  A    between atoms: C_16  and  C_20
REMARK    7  A    between atoms: N_18  and  N_19
REMARK    8  A    between atoms: C_23  and  C_26
REMARK                            x       y       z     vdW  Elec       q    Type
REMARK                         _______ _______ _______ _____ _____    ______ ____
ROOT
ATOM      1  C   UNL     1      -1.363  -6.707   0.442  0.00  0.00    +0.214 C 
ATOM      2  N   UNL     1      -0.473  -7.060   1.578  0.00  0.00    -0.228 NA
ATOM      3  N   UNL     1       0.074  -8.372   1.222  0.00  0.00    -0.234 NA
ATOM      4  C   UNL     1      -0.010  -8.487  -0.248  0.00  0.00    +0.185 C 
ATOM      5  N   UNL     1      -0.622  -7.228  -0.738  0.00  0.00    -0.197 NA
ATOM      6  H   UNL     1      -0.992  -7.107   2.442  0.00  0.00    +0.143 HD
ATOM      7  H   UNL     1      -0.442  -9.113   1.673  0.00  0.00    +0.143 HD
ENDROOT
BRANCH   4   8
ATOM      8  C   UNL     1       1.390  -8.659  -0.841  0.00  0.00    +0.187 C 
ATOM      9  C   UNL     1       2.014  -9.962  -0.374  0.00  0.00    +0.034 C 
ATOM     10  C   UNL     1       3.110  -9.571   0.303  0.00  0.00    +0.091 C 
ATOM     11  N   UNL     1       3.213  -8.216   0.297  0.00  0.00    -0.154 NA
ATOM     12  N   UNL     1       2.308  -7.635  -0.313  0.00  0.00    -0.176 NA
BRANCH  10  13
ATOM     13  C   UNL     1       4.069 -10.489   0.964  0.00  0.00    +0.002 A 
ATOM     14  C   UNL     1       3.872 -11.868   0.905  0.00  0.00    +0.011 A 
ATOM     15  C   UNL     1       4.767 -12.718   1.521  0.00  0.00    +0.020 A 
ATOM     16  C   UNL     1       5.860 -12.204   2.198  0.00  0.00    +0.041 A 
ATOM     17  C   UNL     1       6.061 -10.836   2.260  0.00  0.00    +0.020 A 
ATOM     18  C   UNL     1       5.175  -9.977   1.641  0.00  0.00    +0.011 A 
ATOM     19 CL   UNL     1       6.982 -13.279   2.972  0.00  0.00    -0.084 Cl
ENDBRANCH  10  13
ENDBRANCH   4   8
BRANCH   5  20
ATOM     20  N   UNL     1      -1.523  -7.480  -1.850  0.00  0.00    -0.264 NA
ATOM     21  H   UNL     1      -1.999  -6.635  -2.129  0.00  0.00    +0.137 HD
ATOM     22  H   UNL     1      -1.030  -7.891  -2.629  0.00  0.00    +0.137 HD
ENDBRANCH   5  20
BRANCH   1  23
ATOM     23  S   UNL     1      -1.575  -4.910   0.325  0.00  0.00    -0.115 S 
BRANCH  23  24
ATOM     24  C   UNL     1       0.119  -4.276   0.192  0.00  0.00    +0.168 C 
BRANCH  24  26
ATOM     25  N   UNL     1       1.237  -2.080  -0.021  0.00  0.00    -0.285 N 
ATOM     26  C   UNL     1       0.087  -2.773   0.087  0.00  0.00    +0.227 C 
ATOM     27  O   UNL     1      -0.975  -2.187   0.101  0.00  0.00    -0.275 OA
ATOM     28  H   UNL     1       2.081  -2.551  -0.110  0.00  0.00    +0.155 HD
BRANCH  25  33
ATOM     29  C   UNL     1       2.115   1.418  -0.740  0.00  0.00    +0.002 A 
ATOM     30  C   UNL     1       1.173   2.086   0.021  0.00  0.00    +0.012 A 
ATOM     31  C   UNL     1       0.252   1.374   0.767  0.00  0.00    +0.057 A 
ATOM     32  C   UNL     1       0.271  -0.007   0.755  0.00  0.00    +0.035 A 
ATOM     33  C   UNL     1       1.216  -0.681  -0.007  0.00  0.00    +0.034 A 
ATOM     34  C   UNL     1       2.139   0.037  -0.756  0.00  0.00    +0.023 A 
BRANCH  31  35
ATOM     35  C   UNL     1      -0.772   2.106   1.595  0.00  0.00    +0.417 C 
ATOM     36  F   UNL     1      -0.593   3.485   1.448  0.00  0.00    -0.166 F 
ATOM     37  F   UNL     1      -2.057   1.754   1.166  0.00  0.00    -0.166 F 
ATOM     38  F   UNL     1      -0.619   1.757   2.942  0.00  0.00    -0.166 F 
ENDBRANCH  31  35
ENDBRANCH  25  33
ENDBRANCH  24  26
ENDBRANCH  23  24
ENDBRANCH   1  23
TORSDOF 8
