REMARK  Name = ZINC42209499
REMARK  7 active torsions:
REMARK  status: ('A' for Active; 'I' for Inactive)
REMARK    1  A    between atoms: C_1  and  C_2
REMARK    2  A    between atoms: C_5  and  N_8
REMARK    3  A    between atoms: N_8  and  C_9
REMARK    4  A    between atoms: N_8  and  C_10
REMARK    5  A    between atoms: C_10  and  C_11
REMARK    6  A    between atoms: C_11  and  C_13
REMARK    7  A    between atoms: C_11  and  C_14
REMARK                            x       y       z     vdW  Elec       q    Type
REMARK                         _______ _______ _______ _____ _____    ______ ____
ROOT
ATOM      1  N   UNL     1      -2.147   0.012   3.649  0.00  0.00    +0.381 N 
ATOM      2  C   UNL     1      -1.403  -0.222   4.893  0.00  0.00    -0.096 C 
ATOM      3  H   UNL     1      -2.189   1.003   3.463  0.00  0.00    -0.082 HD
ENDROOT
BRANCH   1   8
ATOM      4  C   UNL     1      -0.180   0.926  -0.342  0.00  0.00    +0.007 C 
ATOM      5  C   UNL     1      -0.116  -0.576  -0.061  0.00  0.00    -0.014 C 
ATOM      6  C   UNL     1      -1.536  -1.129   0.083  0.00  0.00    +0.002 C 
ATOM      7  C   UNL     1      -2.244  -0.423   1.241  0.00  0.00    -0.015 C 
ATOM      8  C   UNL     1      -1.468  -0.666   2.537  0.00  0.00    -0.069 C 
ATOM      9  C   UNL     1      -0.049  -0.113   2.393  0.00  0.00    -0.015 C 
ATOM     10  C   UNL     1       0.659  -0.820   1.235  0.00  0.00    +0.002 C 
ENDBRANCH   1   8
BRANCH   1  11
ATOM     11  C   UNL     1      -3.510  -0.519   3.787  0.00  0.00    -0.061 C 
BRANCH  11  12
ATOM     12  C   UNL     1      -4.256   0.265   4.869  0.00  0.00    +0.072 C 
ATOM     13  C   UNL     1      -5.628  -0.370   5.104  0.00  0.00    +0.021 C 
BRANCH  12  14
ATOM     14  C   UNL     1      -4.429   1.660   4.433  0.00  0.00    +0.064 C 
ATOM     15  N   UNL     1      -4.562   2.737   4.097  0.00  0.00    -0.196 NA
ENDBRANCH  12  14
ENDBRANCH  11  12
ENDBRANCH   1  11
TORSDOF 4
