REMARK  Name = ZINC65522041
REMARK  7 active torsions:
REMARK  status: ('A' for Active; 'I' for Inactive)
REMARK    1  A    between atoms: C_1  and  C_2
REMARK    2  A    between atoms: C_2  and  C_3
REMARK    3  A    between atoms: C_2  and  N_9
REMARK    4  A    between atoms: C_12  and  N_14
REMARK    5  A    between atoms: N_17  and  C_18
REMARK    6  A    between atoms: C_18  and  C_19
REMARK    7  A    between atoms: C_18  and  C_25
REMARK                            x       y       z     vdW  Elec       q    Type
REMARK                         _______ _______ _______ _____ _____    ______ ____
ROOT
ATOM      1  N   UNL     1       0.159  -3.513  -3.076  0.00  0.00    -0.298 N 
ATOM      2  C   UNL     1       0.513  -4.253  -4.146  0.00  0.00    +0.301 C 
ATOM      3  O   UNL     1       1.470  -3.927  -4.821  0.00  0.00    -0.253 OA
ATOM      4  N   UNL     1      -0.195  -5.354  -4.467  0.00  0.00    -0.284 N 
ATOM      5  H   UNL     1      -0.604  -3.774  -2.537  0.00  0.00    +0.150 HD
ATOM      6  H   UNL     1      -0.959  -5.614  -3.929  0.00  0.00    +0.151 HD
ENDROOT
BRANCH   1  10
ATOM      7  N   UNL     1       0.690  -0.478  -1.207  0.00  0.00    +0.385 N 
ATOM      8  C   UNL     1      -0.079  -0.104  -2.422  0.00  0.00    -0.076 C 
ATOM      9  C   UNL     1       0.401  -1.094  -3.505  0.00  0.00    +0.002 C 
ATOM     10  C   UNL     1       0.928  -2.317  -2.726  0.00  0.00    +0.056 C 
ATOM     11  C   UNL     1       0.723  -1.963  -1.237  0.00  0.00    -0.056 C 
ATOM     12  H   UNL     1       1.625  -0.103  -1.250  0.00  0.00    -0.081 HD
BRANCH   7  14
ATOM     13  C   UNL     1      -0.019   1.526   0.010  0.00  0.00    -0.008 C 
ATOM     14  C   UNL     1       0.002  -0.004   0.002  0.00  0.00    -0.041 C 
BRANCH  14  15
ATOM     15  C   UNL     1       0.731  -0.503   1.223  0.00  0.00    -0.061 A 
ATOM     16  C   UNL     1       2.113  -0.514   1.247  0.00  0.00    +0.002 A 
ATOM     17  C   UNL     1       2.782  -0.972   2.366  0.00  0.00    +0.000 A 
ATOM     18  C   UNL     1       2.068  -1.419   3.463  0.00  0.00    +0.000 A 
ATOM     19  C   UNL     1       0.686  -1.407   3.439  0.00  0.00    +0.000 A 
ATOM     20  C   UNL     1       0.017  -0.945   2.321  0.00  0.00    +0.002 A 
ENDBRANCH  14  15
ENDBRANCH   7  14
ENDBRANCH   1  10
BRANCH   4  21
ATOM     21  C   UNL     1       0.189  -6.158  -5.630  0.00  0.00    +0.190 C 
BRANCH  21  22
ATOM     22  C   UNL     1      -0.296  -7.572  -5.445  0.00  0.00    -0.018 A 
ATOM     23  C   UNL     1      -1.543  -7.809  -4.899  0.00  0.00    +0.006 A 
ATOM     24  C   UNL     1      -1.988  -9.107  -4.729  0.00  0.00    +0.000 A 
ATOM     25  C   UNL     1      -1.186 -10.168  -5.107  0.00  0.00    +0.000 A 
ATOM     26  C   UNL     1       0.061  -9.931  -5.654  0.00  0.00    +0.000 A 
ATOM     27  C   UNL     1       0.504  -8.633  -5.828  0.00  0.00    +0.006 A 
ENDBRANCH  21  22
BRANCH  21  28
ATOM     28  C   UNL     1      -0.431  -5.572  -6.872  0.00  0.00    +0.235 C 
ATOM     29  O   UNL     1      -1.126  -4.581  -6.794  0.00  0.00    -0.274 OA
ATOM     30  N   UNL     1      -0.214  -6.150  -8.071  0.00  0.00    -0.328 N 
ATOM     31  H   UNL     1       0.342  -6.942  -8.133  0.00  0.00    +0.145 HD
ATOM     32  H   UNL     1      -0.613  -5.773  -8.870  0.00  0.00    +0.145 HD
ENDBRANCH  21  28
ENDBRANCH   4  21
TORSDOF 6
