REMARK  Name = ZINC36013706
REMARK  12 active torsions:
REMARK  status: ('A' for Active; 'I' for Inactive)
REMARK    1  A    between atoms: C_1  and  N_2
REMARK    2  A    between atoms: N_2  and  C_3
REMARK    3  A    between atoms: N_2  and  C_4
REMARK    4  A    between atoms: C_4  and  C_5
REMARK    5  A    between atoms: C_5  and  N_6
REMARK    6  A    between atoms: C_7  and  C_9
REMARK    7  A    between atoms: C_9  and  C_10
REMARK    8  A    between atoms: C_10  and  N_11
REMARK    9  A    between atoms: N_11  and  C_12
REMARK   10  A    between atoms: C_12  and  C_13
REMARK   11  A    between atoms: C_19  and  C_21
REMARK   12  A    between atoms: C_23  and  C_26
REMARK                            x       y       z     vdW  Elec       q    Type
REMARK                         _______ _______ _______ _____ _____    ______ ____
ROOT
ATOM      1  N   UNL     1      -5.781  -6.673  -0.281  0.00  0.00    -0.293 N 
ATOM      2  C   UNL     1      -6.470  -6.687   0.878  0.00  0.00    +0.268 C 
ATOM      3  O   UNL     1      -7.679  -6.812   0.864  0.00  0.00    -0.268 OA
ENDROOT
BRANCH   2   4
ATOM      4  C   UNL     1      -5.753  -6.551   2.169  0.00  0.00    +0.168 A 
ATOM      5  C   UNL     1      -6.328  -6.664   3.453  0.00  0.00    +0.086 A 
ATOM      6  C   UNL     1      -5.343  -6.475   4.371  0.00  0.00    +0.169 A 
ATOM      7  O   UNL     1      -4.194  -6.253   3.705  0.00  0.00    -0.354 OA
ATOM      8  N   UNL     1      -4.472  -6.311   2.318  0.00  0.00    -0.073 NA
BRANCH   6   9
ATOM      9  C   UNL     1      -5.504  -6.509   5.840  0.00  0.00    +0.038 A 
ATOM     10  C   UNL     1      -6.516  -5.766   6.450  0.00  0.00    +0.014 A 
ATOM     11  C   UNL     1      -6.662  -5.802   7.821  0.00  0.00    +0.021 A 
ATOM     12  C   UNL     1      -5.807  -6.572   8.593  0.00  0.00    +0.042 A 
ATOM     13  C   UNL     1      -4.801  -7.310   7.994  0.00  0.00    +0.040 A 
ATOM     14  C   UNL     1      -4.648  -7.287   6.622  0.00  0.00    +0.053 A 
ATOM     15 CL   UNL     1      -3.390  -8.220   5.871  0.00  0.00    -0.083 Cl
ATOM     16 CL   UNL     1      -5.998  -6.610  10.318  0.00  0.00    -0.083 Cl
ENDBRANCH   6   9
ENDBRANCH   2   4
BRANCH   1  17
ATOM     17  C   UNL     1      -4.317  -6.643  -0.261  0.00  0.00    +0.117 C 
BRANCH  17  18
ATOM     18  C   UNL     1      -3.838  -5.192  -0.176  0.00  0.00    +0.114 C 
BRANCH  18  20
ATOM     19  N   UNL     1      -1.683  -3.981  -0.084  0.00  0.00    -0.317 N 
ATOM     20  C   UNL     1      -2.331  -5.160  -0.156  0.00  0.00    +0.214 C 
ATOM     21  O   UNL     1      -1.702  -6.196  -0.205  0.00  0.00    -0.276 OA
ATOM     22  H   UNL     1      -2.186  -3.153  -0.045  0.00  0.00    +0.149 HD
BRANCH  19  23
ATOM     23  C   UNL     1      -0.218  -3.951  -0.064  0.00  0.00    +0.085 C 
BRANCH  23  24
ATOM     24  C   UNL     1       0.261  -2.500   0.021  0.00  0.00    -0.061 C 
BRANCH  24  26
ATOM     25  C   UNL     1       2.191  -1.075   0.001  0.00  0.00    -0.097 C 
ATOM     26  N   UNL     1       1.729  -2.470   0.040  0.00  0.00    +0.377 N 
ATOM     27  C   UNL     1       2.216  -3.112   1.268  0.00  0.00    -0.097 C 
ATOM     28  H   UNL     1       2.087  -2.965  -0.763  0.00  0.00    -0.083 HD
ENDBRANCH  24  26
ENDBRANCH  23  24
ENDBRANCH  19  23
ENDBRANCH  18  20
ENDBRANCH  17  18
ENDBRANCH   1  17
BRANCH   1  29
ATOM     29  C   UNL     1      -6.497  -6.688  -1.559  0.00  0.00    +0.139 C 
BRANCH  29  30
ATOM     30  C   UNL     1      -6.585  -8.124  -2.077  0.00  0.00    +0.136 C 
ATOM     31  C   UNL     1      -7.230  -8.136  -3.480  0.00  0.00    +0.035 C 
ATOM     32  C   UNL     1      -8.129  -9.401  -3.419  0.00  0.00    +0.031 C 
ATOM     33  C   UNL     1      -8.566  -9.380  -1.932  0.00  0.00    +0.160 C 
ATOM     34  O   UNL     1      -7.417  -8.903  -1.210  0.00  0.00    -0.375 OA
ENDBRANCH  29  30
ENDBRANCH   1  29
TORSDOF 10
