REMARK  Name = ZINC40673912
REMARK  9 active torsions:
REMARK  status: ('A' for Active; 'I' for Inactive)
REMARK    1  A    between atoms: C_1  and  C_2
REMARK    2  A    between atoms: C_4  and  S_10
REMARK    3  A    between atoms: C_6  and  N_9
REMARK    4  A    between atoms: C_7  and  C_8
REMARK    5  A    between atoms: S_10  and  N_13
REMARK    6  A    between atoms: N_13  and  C_14
REMARK    7  A    between atoms: C_14  and  C_15
REMARK    8  A    between atoms: C_14  and  C_16
REMARK    9  A    between atoms: C_14  and  C_17
REMARK                            x       y       z     vdW  Elec       q    Type
REMARK                         _______ _______ _______ _____ _____    ______ ____
ROOT
ATOM      1  S   UNL     1       0.718  -2.126  -3.215  0.00  0.00    +0.059 S 
ATOM      2  O   UNL     1      -0.345  -3.069  -3.228  0.00  0.00    -0.153 OA
ATOM      3  O   UNL     1       0.709  -0.956  -4.022  0.00  0.00    -0.153 OA
ENDROOT
BRANCH   1   7
ATOM      4  C   UNL     1       2.813   1.030   0.386  0.00  0.00    +0.044 C 
ATOM      5  C   UNL     1       1.884  -0.111   0.062  0.00  0.00    -0.044 A 
ATOM      6  C   UNL     1       1.744  -0.539  -1.246  0.00  0.00    +0.032 A 
ATOM      7  C   UNL     1       0.892  -1.586  -1.547  0.00  0.00    +0.107 A 
ATOM      8  C   UNL     1       0.177  -2.208  -0.542  0.00  0.00    +0.051 A 
ATOM      9  C   UNL     1       0.315  -1.781   0.772  0.00  0.00    +0.030 A 
ATOM     10  C   UNL     1       1.176  -0.732   1.072  0.00  0.00    -0.027 A 
ATOM     11  C   UNL     1       1.333  -0.269   2.498  0.00  0.00    +0.046 C 
BRANCH   9  12
ATOM     12  N   UNL     1      -0.406  -2.407   1.791  0.00  0.00    -0.358 N 
ATOM     13  H   UNL     1      -1.004  -3.142   1.580  0.00  0.00    +0.142 HD
ATOM     14  H   UNL     1      -0.309  -2.108   2.708  0.00  0.00    +0.142 HD
ENDBRANCH   9  12
ENDBRANCH   1   7
BRANCH   1  15
ATOM     15  N   UNL     1       2.095  -2.960  -3.606  0.00  0.00    -0.176 NA
ATOM     16  H   UNL     1       2.702  -2.606  -4.275  0.00  0.00    +0.149 HD
BRANCH  15  17
ATOM     17  C   UNL     1       2.394  -4.231  -2.943  0.00  0.00    +0.110 C 
ATOM     18  C   UNL     1       2.309  -4.047  -1.426  0.00  0.00    +0.039 C 
ATOM     19  C   UNL     1       1.382  -5.289  -3.386  0.00  0.00    +0.039 C 
BRANCH  17  20
ATOM     20  C   UNL     1       3.784  -4.678  -3.317  0.00  0.00    +0.232 C 
ATOM     21  O   UNL     1       4.473  -5.260  -2.506  0.00  0.00    -0.274 OA
ATOM     22  N   UNL     1       4.261  -4.430  -4.553  0.00  0.00    -0.328 N 
ATOM     23  H   UNL     1       3.710  -3.965  -5.202  0.00  0.00    +0.145 HD
ATOM     24  H   UNL     1       5.156  -4.718  -4.794  0.00  0.00    +0.145 HD
ENDBRANCH  17  20
ENDBRANCH  15  17
ENDBRANCH   1  15
TORSDOF 5
