REMARK  Name = ZINC10775338
REMARK  10 active torsions:
REMARK  status: ('A' for Active; 'I' for Inactive)
REMARK    1  A    between atoms: C_1  and  C_2
REMARK    2  A    between atoms: C_2  and  C_3
REMARK    3  A    between atoms: N_12  and  C_13
REMARK    4  A    between atoms: C_13  and  C_14
REMARK    5  A    between atoms: C_14  and  N_63
REMARK    6  A    between atoms: C_15  and  N_63
REMARK    7  A    between atoms: C_16  and  N_63
REMARK    8  A    between atoms: C_17  and  C_19
REMARK    9  A    between atoms: N_25  and  S_26
REMARK   10  A    between atoms: S_26  and  C_29
REMARK                            x       y       z     vdW  Elec       q    Type
REMARK                         _______ _______ _______ _____ _____    ______ ____
ROOT
ATOM      1  C   UNL     1      -1.148   2.065  -1.593  0.00  0.00    -0.021 A 
ATOM      2  C   UNL     1      -2.137   1.381  -2.251  0.00  0.00    +0.006 A 
ATOM      3  C   UNL     1      -2.823   1.945  -3.317  0.00  0.00    +0.001 A 
ATOM      4  C   UNL     1      -2.503   3.227  -3.726  0.00  0.00    +0.017 A 
ATOM      5  C   UNL     1      -1.514   3.919  -3.073  0.00  0.00    +0.041 A 
ATOM      6  C   UNL     1      -0.798   3.379  -1.980  0.00  0.00    +0.083 A 
ATOM      7  N   UNL     1       0.140   4.186  -1.440  0.00  0.00    -0.224 NA
ATOM      8  C   UNL     1       0.375   5.396  -1.890  0.00  0.00    +0.168 A 
ATOM      9  S   UNL     1      -0.788   5.532  -3.241  0.00  0.00    -0.052 S 
ATOM     10  N   UNL     1       1.296   6.327  -1.440  0.00  0.00    -0.251 N 
ATOM     11  C   UNL     1       2.102   6.030  -0.401  0.00  0.00    +0.240 C 
ATOM     12  O   UNL     1       1.962   4.983   0.195  0.00  0.00    -0.273 OA
ENDROOT
BRANCH  11  13
ATOM     13  C   UNL     1       3.176   7.000   0.021  0.00  0.00    +0.166 C 
ATOM     14  C   UNL     1       4.553   6.363  -0.191  0.00  0.00    +0.030 C 
ATOM     15  C   UNL     1       5.632   7.293   0.371  0.00  0.00    +0.003 C 
ATOM     16  C   UNL     1       5.412   7.489   1.873  0.00  0.00    +0.017 C 
ATOM     17  C   UNL     1       4.044   8.139   2.104  0.00  0.00    +0.110 C 
ATOM     18  N   UNL     1       3.015   7.324   1.445  0.00  0.00    -0.164 NA
BRANCH  18  19
ATOM     19  S   UNL     1       1.699   6.781   2.291  0.00  0.00    +0.068 S 
ATOM     20  O   UNL     1       1.513   7.682   3.374  0.00  0.00    -0.152 OA
ATOM     21  O   UNL     1       0.681   6.519   1.334  0.00  0.00    -0.152 OA
BRANCH  19  22
ATOM     22  C   UNL     1       2.138   5.228   2.997  0.00  0.00    +0.143 A 
ATOM     23  C   UNL     1       2.707   4.967   4.199  0.00  0.00    +0.036 A 
ATOM     24  C   UNL     1       2.962   3.654   4.550  0.00  0.00    +0.010 A 
ATOM     25  C   UNL     1       2.644   2.667   3.676  0.00  0.00    +0.047 A 
ATOM     26  S   UNL     1       1.956   3.589   2.311  0.00  0.00    -0.077 S 
ENDBRANCH  19  22
ENDBRANCH  18  19
ENDBRANCH  11  13
BRANCH   1  28
ATOM     27  C   UNL     1      -1.091   1.828   0.874  0.00  0.00    +0.009 C 
ATOM     28  C   UNL     1      -0.430   1.411  -0.441  0.00  0.00    +0.034 C 
ENDBRANCH   1  28
BRANCH  10  29
ATOM     29  C   UNL     1       1.395   7.635  -2.093  0.00  0.00    +0.097 C 
BRANCH  29  30
ATOM     30  C   UNL     1       0.557   8.656  -1.320  0.00  0.00    -0.060 C 
BRANCH  30  33
ATOM     31  C   UNL     1      -0.314  10.913  -1.408  0.00  0.00    -0.097 C 
ATOM     32  C   UNL     1       2.023  10.498  -1.886  0.00  0.00    -0.097 C 
ATOM     33  N   UNL     1       0.650   9.963  -2.003  0.00  0.00    +0.377 N 
ATOM     34  H   UNL     1       0.424   9.838  -2.997  0.00  0.00    -0.083 HD
ENDBRANCH  30  33
ENDBRANCH  29  30
ENDBRANCH  10  29
TORSDOF 7
