REMARK  Name = ZINC16846077
REMARK  4 active torsions:
REMARK  status: ('A' for Active; 'I' for Inactive)
REMARK    1  A    between atoms: C_6  and  N_7
REMARK    2  A    between atoms: C_8  and  C_10
REMARK    3  A    between atoms: C_10  and  S_11
REMARK    4  A    between atoms: S_11  and  C_12
REMARK                            x       y       z     vdW  Elec       q    Type
REMARK                         _______ _______ _______ _____ _____    ______ ____
ROOT
ATOM      1  C   UNL     1       1.209   1.756  -0.013  0.00  0.00    +0.199 A 
ATOM      2  N   UNL     1      -0.016   1.284  -0.013  0.00  0.00    -0.122 NA
ATOM      3  N   UNL     1       0.001  -0.004  -0.026  0.00  0.00    -0.128 NA
ATOM      4  C   UNL     1       1.240  -0.428  -0.035  0.00  0.00    +0.174 A 
ATOM      5  N   UNL     1       2.057   0.682  -0.027  0.00  0.00    -0.241 N 
ATOM      6  C   UNL     1       3.418   0.542  -0.033  0.00  0.00    +0.202 A 
ATOM      7  N   UNL     1       3.983  -0.642  -0.047  0.00  0.00    -0.208 NA
ATOM      8  C   UNL     1       3.269  -1.768  -0.056  0.00  0.00    +0.116 A 
ATOM      9  C   UNL     1       1.871  -1.766  -0.051  0.00  0.00    +0.056 A 
ATOM     10  C   UNL     1       1.220  -3.082  -0.062  0.00  0.00    -0.024 A 
ATOM     11  C   UNL     1       2.027  -4.159  -0.077  0.00  0.00    -0.004 A 
ATOM     12  S   UNL     1       3.676  -3.494  -0.074  0.00  0.00    -0.073 S 
ATOM     13  C   UNL     1       1.252  -5.449  -0.091  0.00  0.00    +0.043 C 
ATOM     14  C   UNL     1      -0.174  -5.040  -0.518  0.00  0.00    +0.010 C 
ATOM     15  C   UNL     1      -0.231  -3.570  -0.057  0.00  0.00    +0.037 C 
ATOM     16  N   UNL     1       4.211   1.666  -0.025  0.00  0.00    -0.328 N 
ATOM     17  H   UNL     1       3.804   2.547  -0.014  0.00  0.00    +0.145 HD
ATOM     18  H   UNL     1       5.177   1.579  -0.029  0.00  0.00    +0.145 HD
ENDROOT
BRANCH   1  19
ATOM     19  S   UNL     1       1.674   3.455   0.002  0.00  0.00    -0.076 S 
BRANCH  19  20
ATOM     20  C   UNL     1       0.092   4.343   0.017  0.00  0.00    +0.173 C 
BRANCH  20  22
ATOM     21  N   UNL     1      -0.685   6.692   0.043  0.00  0.00    -0.285 N 
ATOM     22  C   UNL     1       0.350   5.828   0.030  0.00  0.00    +0.227 C 
ATOM     23  O   UNL     1       1.489   6.246   0.030  0.00  0.00    -0.275 OA
ATOM     24  H   UNL     1      -1.594   6.360  -0.025  0.00  0.00    +0.155 HD
BRANCH  21  30
ATOM     25  C   UNL     1      -1.334   8.871   0.857  0.00  0.00    +0.025 A 
ATOM     26  C   UNL     1      -1.095  10.227   0.969  0.00  0.00    +0.022 A 
ATOM     27  C   UNL     1       0.021  10.786   0.370  0.00  0.00    +0.041 A 
ATOM     28  C   UNL     1       0.903   9.987  -0.337  0.00  0.00    +0.022 A 
ATOM     29  C   UNL     1       0.671   8.630  -0.447  0.00  0.00    +0.025 A 
ATOM     30  C   UNL     1      -0.448   8.067   0.153  0.00  0.00    +0.033 A 
ATOM     31 CL   UNL     1       0.315  12.491   0.507  0.00  0.00    -0.084 Cl
ENDBRANCH  21  30
ENDBRANCH  20  22
ENDBRANCH  19  20
ENDBRANCH   1  19
TORSDOF 4
