REMARK  Name = ZINC31050930
REMARK  10 active torsions:
REMARK  status: ('A' for Active; 'I' for Inactive)
REMARK    1  A    between atoms: C_1  and  C_2
REMARK    2  A    between atoms: C_2  and  C_3
REMARK    3  A    between atoms: C_3  and  C_5
REMARK    4  A    between atoms: C_3  and  N_15
REMARK    5  A    between atoms: C_8  and  S_11
REMARK    6  A    between atoms: S_11  and  C_14
REMARK    7  A    between atoms: C_16  and  C_18
REMARK    8  A    between atoms: N_23  and  C_25
REMARK    9  A    between atoms: C_25  and  C_26
REMARK   10  A    between atoms: C_28  and  C_31
REMARK                            x       y       z     vdW  Elec       q    Type
REMARK                         _______ _______ _______ _____ _____    ______ ____
ROOT
ATOM      1  C   UNL     1      -0.756   1.594  -1.230  0.00  0.00    +0.058 C 
ATOM      2  C   UNL     1      -0.013   1.086   0.008  0.00  0.00    +0.009 C 
ATOM      3  C   UNL     1      -0.732   1.581   1.266  0.00  0.00    -0.018 C 
ATOM      4  C   UNL     1      -2.185   1.096   1.239  0.00  0.00    -0.078 C 
ATOM      5  N   UNL     1      -2.852   1.610   0.036  0.00  0.00    +0.386 N 
ATOM      6  C   UNL     1      -2.207   1.109  -1.184  0.00  0.00    -0.065 C 
ATOM      7  H   UNL     1      -2.756   2.705   0.042  0.00  0.00    -0.081 HD
ENDROOT
BRANCH   1   9
ATOM      8  N   UNL     1       1.203   1.360  -2.722  0.00  0.00    -0.308 N 
ATOM      9  C   UNL     1      -0.087   1.063  -2.472  0.00  0.00    +0.215 C 
ATOM     10  O   UNL     1      -0.710   0.367  -3.246  0.00  0.00    -0.276 OA
ATOM     11  H   UNL     1       1.769   1.991  -2.020  0.00  0.00    +0.149 HD
BRANCH   8  12
ATOM     12  C   UNL     1       1.853   0.843  -3.929  0.00  0.00    +0.103 C 
BRANCH  12  13
ATOM     13  C   UNL     1       3.341   0.766  -3.705  0.00  0.00    -0.027 A 
ATOM     14  C   UNL     1       3.991   1.779  -3.023  0.00  0.00    +0.007 A 
ATOM     15  C   UNL     1       5.355   1.706  -2.812  0.00  0.00    +0.027 A 
ATOM     16  C   UNL     1       6.072   0.626  -3.293  0.00  0.00    +0.088 A 
ATOM     17  C   UNL     1       5.423  -0.384  -3.980  0.00  0.00    +0.027 A 
ATOM     18  C   UNL     1       4.058  -0.313  -4.185  0.00  0.00    +0.007 A 
BRANCH  16  19
ATOM     19  S   UNL     1       7.812   0.536  -3.030  0.00  0.00    -0.006 S 
ATOM     20  O   UNL     1       8.041   1.302  -1.855  0.00  0.00    -0.170 OA
ATOM     21  O   UNL     1       8.112  -0.853  -3.060  0.00  0.00    -0.170 OA
ATOM     22  C   UNL     1       8.544   1.364  -4.469  0.00  0.00    +0.200 C 
ENDBRANCH  16  19
ENDBRANCH  12  13
BRANCH  12  24
ATOM     23  C   UNL     1       0.064   1.759  -5.413  0.00  0.00    +0.006 C 
ATOM     24  C   UNL     1       1.562   1.778  -5.105  0.00  0.00    +0.024 C 
ENDBRANCH  12  24
ENDBRANCH   8  12
ENDBRANCH   1   9
BRANCH   5  25
ATOM     25  C   UNL     1      -4.284   1.280   0.048  0.00  0.00    +0.022 C 
BRANCH  25  26
ATOM     26  C   UNL     1      -4.859   1.585   1.406  0.00  0.00    +0.211 A 
ATOM     27  N   UNL     1      -5.379   2.724   1.793  0.00  0.00    -0.193 NA
ATOM     28  C   UNL     1      -5.761   2.531   3.076  0.00  0.00    +0.203 A 
ATOM     29  N   UNL     1      -5.447   1.302   3.392  0.00  0.00    -0.056 NA
ATOM     30  O   UNL     1      -4.929   0.748   2.446  0.00  0.00    -0.340 OA
BRANCH  28  31
ATOM     31  C   UNL     1      -6.410   3.530   3.961  0.00  0.00    +0.041 A 
ATOM     32  C   UNL     1      -6.682   4.812   3.488  0.00  0.00    +0.013 A 
ATOM     33  C   UNL     1      -7.290   5.736   4.314  0.00  0.00    +0.001 A 
ATOM     34  C   UNL     1      -7.620   5.394   5.613  0.00  0.00    +0.001 A 
ATOM     35  C   UNL     1      -7.350   4.125   6.090  0.00  0.00    +0.021 A 
ATOM     36  C   UNL     1      -6.746   3.191   5.271  0.00  0.00    +0.052 A 
ATOM     37 CL   UNL     1      -6.405   1.598   5.872  0.00  0.00    -0.083 Cl
ENDBRANCH  28  31
ENDBRANCH  25  26
ENDBRANCH   5  25
TORSDOF 8
