REMARK  Name = ZINC39689175
REMARK  5 active torsions:
REMARK  status: ('A' for Active; 'I' for Inactive)
REMARK    1  A    between atoms: C_3  and  C_9
REMARK    2  A    between atoms: C_13  and  C_22
REMARK    3  A    between atoms: N_24  and  C_25
REMARK    4  A    between atoms: C_25  and  C_26
REMARK    5  A    between atoms: N_29  and  C_32
REMARK                            x       y       z     vdW  Elec       q    Type
REMARK                         _______ _______ _______ _____ _____    ______ ____
ROOT
ATOM      1  C   UNL     1       3.944   2.223   0.073  0.00  0.00    +0.249 C 
ATOM      2  O   UNL     1       5.047   1.723   0.174  0.00  0.00    -0.270 OA
ATOM      3  N   UNL     1       3.818   3.559  -0.056  0.00  0.00    -0.296 N 
ATOM      4  C   UNL     1       2.569   4.355  -0.084  0.00  0.00    +0.121 C 
ATOM      5  C   UNL     1       2.899   5.628   0.727  0.00  0.00    +0.100 C 
ATOM      6  C   UNL     1       4.429   5.760   0.644  0.00  0.00    -0.004 C 
ATOM      7  C   UNL     1       4.899   4.564  -0.196  0.00  0.00    +0.115 C 
ATOM      8  C   UNL     1       4.810   7.070  -0.040  0.00  0.00    -0.010 C 
ATOM      9  C   UNL     1       6.335   7.206  -0.059  0.00  0.00    -0.082 C 
ATOM     10  N   UNL     1       6.847   7.182   1.317  0.00  0.00    +0.379 N 
ATOM     11  C   UNL     1       6.557   5.883   1.937  0.00  0.00    -0.082 C 
ATOM     12  C   UNL     1       5.042   5.691   2.040  0.00  0.00    -0.010 C 
ATOM     13  H   UNL     1       7.845   7.333   1.306  0.00  0.00    -0.086 HD
ATOM     14  H   UNL     1       6.405   7.915   1.852  0.00  0.00    -0.086 HD
ENDROOT
BRANCH   1  17
ATOM     15  C   UNL     1       0.503   0.906  -0.650  0.00  0.00    +0.002 A 
ATOM     16  C   UNL     1       1.623   1.710  -0.672  0.00  0.00    +0.016 A 
ATOM     17  C   UNL     1       2.741   1.367   0.092  0.00  0.00    +0.073 A 
ATOM     18  C   UNL     1       2.715   0.208   0.874  0.00  0.00    +0.154 A 
ATOM     19  C   UNL     1       1.584  -0.589   0.885  0.00  0.00    +0.077 A 
ATOM     20  C   UNL     1       0.482  -0.240   0.125  0.00  0.00    +0.023 A 
ATOM     21 CL   UNL     1       1.548  -2.029   1.854  0.00  0.00    -0.081 Cl
ATOM     22  F   UNL     1       3.792  -0.133   1.615  0.00  0.00    -0.203 F 
ENDBRANCH   1  17
BRANCH   5  23
ATOM     23  C   UNL     1       2.461   5.466   2.160  0.00  0.00    +0.218 C 
ATOM     24  O   UNL     1       2.450   4.365   2.670  0.00  0.00    -0.275 OA
ATOM     25  N   UNL     1       2.081   6.543   2.874  0.00  0.00    -0.315 N 
ATOM     26  H   UNL     1       2.089   7.423   2.467  0.00  0.00    +0.149 HD
BRANCH  25  27
ATOM     27  C   UNL     1       1.655   6.386   4.267  0.00  0.00    +0.107 C 
BRANCH  27  28
ATOM     28  C   UNL     1       1.279   7.752   4.844  0.00  0.00    +0.003 C 
ATOM     29  C   UNL     1       2.525   8.641   4.909  0.00  0.00    -0.014 C 
ATOM     30  C   UNL     1       2.159   9.976   5.559  0.00  0.00    -0.078 C 
ATOM     31  N   UNL     1       1.652   9.741   6.916  0.00  0.00    +0.382 N 
ATOM     32  C   UNL     1       0.417   8.950   6.857  0.00  0.00    -0.078 C 
ATOM     33  C   UNL     1       0.716   7.575   6.257  0.00  0.00    -0.014 C 
ATOM     34  H   UNL     1       2.346   9.241   7.451  0.00  0.00    -0.081 HD
BRANCH  31  35
ATOM     35  C   UNL     1       1.375  11.030   7.564  0.00  0.00    -0.069 C 
ATOM     36  C   UNL     1       2.680  11.841   7.707  0.00  0.00    -0.015 C 
ATOM     37  C   UNL     1       2.537  12.554   9.075  0.00  0.00    -0.002 C 
ATOM     38  C   UNL     1       1.843  11.480   9.948  0.00  0.00    -0.002 C 
ATOM     39  C   UNL     1       0.843  10.801   8.989  0.00  0.00    -0.015 C 
ENDBRANCH  31  35
ENDBRANCH  27  28
ENDBRANCH  25  27
ENDBRANCH   5  23
TORSDOF 5
