REMARK  Name = ZINC09611426
REMARK  8 active torsions:
REMARK  status: ('A' for Active; 'I' for Inactive)
REMARK    1  A    between atoms: C_1  and  C_2
REMARK    2  A    between atoms: C_8  and  N_10
REMARK    3  A    between atoms: C_11  and  C_13
REMARK    4  A    between atoms: C_13  and  C_15
REMARK    5  A    between atoms: C_13  and  N_22
REMARK    6  A    between atoms: C_15  and  C_16
REMARK    7  A    between atoms: N_22  and  S_23
REMARK    8  A    between atoms: S_23  and  C_26
REMARK                            x       y       z     vdW  Elec       q    Type
REMARK                         _______ _______ _______ _____ _____    ______ ____
ROOT
ATOM      1  C   UNL     1       1.795  -4.639  -2.085  0.00  0.00    +0.166 C 
ENDROOT
BRANCH   1   3
ATOM      2  N   UNL     1       3.457  -5.506  -3.698  0.00  0.00    -0.311 N 
ATOM      3  C   UNL     1       2.263  -5.657  -3.092  0.00  0.00    +0.232 C 
ATOM      4  O   UNL     1       1.565  -6.613  -3.357  0.00  0.00    -0.274 OA
ATOM      5  H   UNL     1       4.015  -4.742  -3.486  0.00  0.00    +0.149 HD
BRANCH   2  12
ATOM      6  C   UNL     1       4.226  -4.682  -6.366  0.00  0.00    +0.009 C 
ATOM      7  C   UNL     1       4.907  -5.843  -5.639  0.00  0.00    +0.006 C 
ATOM      8  C   UNL     1       5.382  -6.877  -6.662  0.00  0.00    +0.005 C 
ATOM      9  C   UNL     1       6.063  -8.038  -5.934  0.00  0.00    +0.000 C 
ATOM     10  C   UNL     1       5.068  -8.691  -4.973  0.00  0.00    +0.002 C 
ATOM     11  C   UNL     1       4.593  -7.657  -3.950  0.00  0.00    +0.022 C 
ATOM     12  C   UNL     1       3.912  -6.496  -4.678  0.00  0.00    +0.076 C 
ENDBRANCH   2  12
ENDBRANCH   1   3
BRANCH   1  13
ATOM     13  N   UNL     1       0.477  -5.027  -1.574  0.00  0.00    -0.178 NA
ATOM     14  H   UNL     1      -0.324  -4.769  -2.055  0.00  0.00    +0.149 HD
BRANCH  13  15
ATOM     15  S   UNL     1       0.358  -5.906  -0.176  0.00  0.00    +0.059 S 
ATOM     16  O   UNL     1       1.240  -7.011  -0.313  0.00  0.00    -0.153 OA
ATOM     17  O   UNL     1      -1.030  -6.067   0.085  0.00  0.00    -0.153 OA
BRANCH  15  18
ATOM     18  C   UNL     1       1.001  -4.906   1.125  0.00  0.00    +0.106 A 
ATOM     19  C   UNL     1       0.181  -3.996   1.766  0.00  0.00    +0.030 A 
ATOM     20  C   UNL     1       0.682  -3.212   2.786  0.00  0.00    +0.025 A 
ATOM     21  C   UNL     1       2.011  -3.337   3.167  0.00  0.00    +0.037 A 
ATOM     22  C   UNL     1       2.832  -4.251   2.521  0.00  0.00    -0.024 A 
ATOM     23  C   UNL     1       2.326  -5.034   1.502  0.00  0.00    +0.034 A 
ATOM     24  C   UNL     1       4.274  -4.387   2.934  0.00  0.00    +0.046 C 
ATOM     25  C   UNL     1       4.812  -3.024   3.369  0.00  0.00    +0.101 C 
ATOM     26  C   UNL     1       3.853  -2.379   4.334  0.00  0.00    +0.218 C 
ATOM     27  O   UNL     1       4.283  -1.702   5.244  0.00  0.00    -0.275 OA
ATOM     28  N   UNL     1       2.525  -2.546   4.199  0.00  0.00    -0.285 N 
ATOM     29  H   UNL     1       1.919  -2.110   4.819  0.00  0.00    +0.155 HD
ENDBRANCH  15  18
ENDBRANCH  13  15
ENDBRANCH   1  13
BRANCH   1  30
ATOM     30  C   UNL     1       1.698  -3.267  -2.754  0.00  0.00    +0.065 C 
BRANCH  30  31
ATOM     31  C   UNL     1       1.343  -2.228  -1.721  0.00  0.00    -0.045 A 
ATOM     32  C   UNL     1       0.018  -1.980  -1.418  0.00  0.00    +0.004 A 
ATOM     33  C   UNL     1      -0.308  -1.030  -0.468  0.00  0.00    +0.000 A 
ATOM     34  C   UNL     1       0.692  -0.322   0.172  0.00  0.00    +0.000 A 
ATOM     35  C   UNL     1       2.018  -0.567  -0.134  0.00  0.00    +0.000 A 
ATOM     36  C   UNL     1       2.343  -1.520  -1.081  0.00  0.00    +0.004 A 
ENDBRANCH  30  31
ENDBRANCH   1  30
TORSDOF 7
