REMARK  Name = ZINC36217075
REMARK  10 active torsions:
REMARK  status: ('A' for Active; 'I' for Inactive)
REMARK    1  A    between atoms: C_1  and  C_2
REMARK    2  A    between atoms: C_5  and  C_8
REMARK    3  A    between atoms: C_8  and  N_9
REMARK    4  A    between atoms: C_10  and  C_33
REMARK    5  A    between atoms: C_12  and  C_17
REMARK    6  A    between atoms: C_20  and  N_23
REMARK    7  A    between atoms: C_24  and  C_26
REMARK    8  A    between atoms: C_30  and  C_32
REMARK    9  A    between atoms: N_35  and  C_36
REMARK   10  A    between atoms: C_36  and  C_37
REMARK                            x       y       z     vdW  Elec       q    Type
REMARK                         _______ _______ _______ _____ _____    ______ ____
ROOT
ATOM      1  N   UNL     1       1.366  -4.712  -0.358  0.00  0.00    -0.248 N 
ATOM      2  C   UNL     1       2.335  -5.054  -1.418  0.00  0.00    +0.210 C 
ATOM      3  C   UNL     1       3.672  -5.088  -0.641  0.00  0.00    +0.238 C 
ATOM      4  O   UNL     1       3.231  -5.357   0.704  0.00  0.00    -0.440 OA
ATOM      5  C   UNL     1       1.976  -4.893   0.829  0.00  0.00    +0.405 C 
ATOM      6  O   UNL     1       1.447  -4.663   1.898  0.00  0.00    -0.226 OA
ENDROOT
BRANCH   3   7
ATOM      7  C   UNL     1       4.374  -3.757  -0.721  0.00  0.00    -0.005 A 
ATOM      8  C   UNL     1       4.056  -2.754   0.176  0.00  0.00    +0.009 A 
ATOM      9  C   UNL     1       4.699  -1.533   0.106  0.00  0.00    +0.024 A 
ATOM     10  C   UNL     1       5.665  -1.313  -0.868  0.00  0.00    +0.034 A 
ATOM     11  C   UNL     1       5.982  -2.323  -1.767  0.00  0.00    +0.024 A 
ATOM     12  C   UNL     1       5.340  -3.543  -1.688  0.00  0.00    +0.009 A 
BRANCH  10  13
ATOM     13  N   UNL     1       6.316  -0.078  -0.942  0.00  0.00    -0.282 N 
ATOM     14  C   UNL     1       6.562   0.623   0.182  0.00  0.00    +0.248 C 
ATOM     15  O   UNL     1       6.304   0.141   1.268  0.00  0.00    -0.270 OA
ATOM     16  H   UNL     1       6.592   0.273  -1.803  0.00  0.00    +0.155 HD
BRANCH  14  17
ATOM     17  C   UNL     1       7.144   1.979   0.095  0.00  0.00    +0.037 A 
ATOM     18  C   UNL     1       7.436   2.538  -1.151  0.00  0.00    +0.013 A 
ATOM     19  C   UNL     1       7.979   3.804  -1.225  0.00  0.00    +0.001 A 
ATOM     20  C   UNL     1       8.236   4.519  -0.068  0.00  0.00    +0.003 A 
ATOM     21  C   UNL     1       7.949   3.971   1.169  0.00  0.00    -0.050 A 
ATOM     22  C   UNL     1       7.399   2.708   1.257  0.00  0.00    +0.016 A 
ATOM     23  C   UNL     1       8.232   4.757   2.423  0.00  0.00    +0.044 C 
ENDBRANCH  14  17
ENDBRANCH  10  13
ENDBRANCH   3   7
BRANCH   2  24
ATOM     24  C   UNL     1       2.023  -6.402  -2.016  0.00  0.00    +0.238 C 
ATOM     25  O   UNL     1       1.316  -7.183  -1.415  0.00  0.00    -0.274 OA
ATOM     26  N   UNL     1       2.529  -6.738  -3.219  0.00  0.00    -0.307 N 
ATOM     27  H   UNL     1       3.094  -6.114  -3.700  0.00  0.00    +0.149 HD
BRANCH  26  28
ATOM     28  C   UNL     1       2.226  -8.049  -3.800  0.00  0.00    +0.178 C 
BRANCH  28  29
ATOM     29  C   UNL     1       2.908  -8.174  -5.138  0.00  0.00    +0.122 A 
ATOM     30  C   UNL     1       4.142  -8.665  -5.349  0.00  0.00    +0.046 A 
ATOM     31  C   UNL     1       4.378  -8.598  -6.741  0.00  0.00    +0.041 A 
ATOM     32  C   UNL     1       3.274  -8.070  -7.298  0.00  0.00    +0.195 A 
ATOM     33  O   UNL     1       2.384  -7.820  -6.323  0.00  0.00    -0.466 OA
ENDBRANCH  28  29
ENDBRANCH  26  28
ENDBRANCH   2  24
BRANCH   1  34
ATOM     34  C   UNL     1      -0.011  -4.254  -0.561  0.00  0.00    +0.147 C 
BRANCH  34  39
ATOM     35  C   UNL     1      -0.087   1.512  -0.934  0.00  0.00    +0.044 C 
ATOM     36  C   UNL     1      -0.067   0.009  -0.837  0.00  0.00    -0.050 A 
ATOM     37  C   UNL     1       0.093  -0.756  -1.977  0.00  0.00    +0.003 A 
ATOM     38  C   UNL     1       0.111  -2.135  -1.888  0.00  0.00    +0.005 A 
ATOM     39  C   UNL     1      -0.030  -2.750  -0.658  0.00  0.00    -0.030 A 
ATOM     40  C   UNL     1      -0.189  -1.985   0.483  0.00  0.00    +0.005 A 
ATOM     41  C   UNL     1      -0.203  -0.606   0.394  0.00  0.00    +0.003 A 
ENDBRANCH  34  39
ENDBRANCH   1  34
TORSDOF 8
