REMARK  Name = ZINC35527790
REMARK  11 active torsions:
REMARK  status: ('A' for Active; 'I' for Inactive)
REMARK    1  A    between atoms: C_1  and  C_2
REMARK    2  A    between atoms: C_5  and  C_8
REMARK    3  A    between atoms: C_10  and  C_13
REMARK    4  A    between atoms: C_19  and  C_21
REMARK    5  A    between atoms: C_21  and  C_23
REMARK    6  A    between atoms: C_21  and  N_26
REMARK    7  A    between atoms: C_23  and  C_24
REMARK    8  A    between atoms: C_23  and  C_25
REMARK    9  A    between atoms: N_26  and  S_27
REMARK   10  A    between atoms: S_27  and  C_30
REMARK   11  A    between atoms: C_33  and  C_36
REMARK                            x       y       z     vdW  Elec       q    Type
REMARK                         _______ _______ _______ _____ _____    ______ ____
ROOT
ATOM      1  C   UNL     1       0.139  -7.693   1.813  0.00  0.00    +0.165 C 
ATOM      2  C   UNL     1      -1.219  -8.424   1.877  0.00  0.00    +0.034 C 
ATOM      3  C   UNL     1      -1.038  -9.583   0.862  0.00  0.00    +0.021 C 
ATOM      4  C   UNL     1       0.456  -9.943   1.064  0.00  0.00    +0.109 C 
ATOM      5  N   UNL     1       1.130  -8.650   1.299  0.00  0.00    -0.288 N 
ATOM      6  C   UNL     1       2.433  -8.388   1.079  0.00  0.00    +0.235 C 
ATOM      7  O   UNL     1       2.877  -7.283   1.308  0.00  0.00    -0.274 OA
ENDROOT
BRANCH   1  10
ATOM      8  C   UNL     1      -0.086  -4.467   0.165  0.00  0.00    +0.202 A 
ATOM      9  N   UNL     1       0.003  -5.259   1.249  0.00  0.00    -0.190 NA
ATOM     10  C   UNL     1       0.040  -6.509   0.886  0.00  0.00    +0.248 A 
ATOM     11  O   UNL     1      -0.024  -6.566  -0.451  0.00  0.00    -0.336 OA
ATOM     12  N   UNL     1      -0.111  -5.223  -0.905  0.00  0.00    -0.056 NA
BRANCH   8  17
ATOM     13  C   UNL     1      -0.341   1.286   0.220  0.00  0.00    +0.044 C 
ATOM     14  C   UNL     1      -0.274  -0.219   0.205  0.00  0.00    -0.050 A 
ATOM     15  C   UNL     1      -0.308  -0.899  -0.999  0.00  0.00    +0.004 A 
ATOM     16  C   UNL     1      -0.248  -2.278  -1.018  0.00  0.00    +0.012 A 
ATOM     17  C   UNL     1      -0.151  -2.985   0.179  0.00  0.00    +0.022 A 
ATOM     18  C   UNL     1      -0.117  -2.295   1.389  0.00  0.00    +0.012 A 
ATOM     19  C   UNL     1      -0.173  -0.916   1.396  0.00  0.00    +0.004 A 
ENDBRANCH   8  17
ENDBRANCH   1  10
BRANCH   6  20
ATOM     20  C   UNL     1       3.339  -9.469   0.547  0.00  0.00    +0.165 C 
BRANCH  20  21
ATOM     21  C   UNL     1       3.359 -10.645   1.525  0.00  0.00    +0.010 C 
ATOM     22  C   UNL     1       4.249 -11.757   0.967  0.00  0.00    +0.009 C 
ATOM     23  C   UNL     1       3.911 -10.178   2.873  0.00  0.00    +0.009 C 
ENDBRANCH  20  21
BRANCH  20  24
ATOM     24  N   UNL     1       4.696  -8.937   0.395  0.00  0.00    -0.178 NA
ATOM     25  H   UNL     1       5.186  -8.629   1.173  0.00  0.00    +0.149 HD
BRANCH  24  26
ATOM     26  S   UNL     1       5.393  -8.863  -1.105  0.00  0.00    +0.059 S 
ATOM     27  O   UNL     1       6.681  -8.289  -0.927  0.00  0.00    -0.153 OA
ATOM     28  O   UNL     1       5.203 -10.137  -1.705  0.00  0.00    -0.153 OA
BRANCH  26  29
ATOM     29  C   UNL     1       4.457  -7.713  -2.058  0.00  0.00    +0.105 A 
ATOM     30  C   UNL     1       3.376  -8.150  -2.801  0.00  0.00    +0.029 A 
ATOM     31  C   UNL     1       2.642  -7.248  -3.549  0.00  0.00    +0.005 A 
ATOM     32  C   UNL     1       2.989  -5.910  -3.553  0.00  0.00    -0.050 A 
ATOM     33  C   UNL     1       4.069  -5.473  -2.809  0.00  0.00    +0.005 A 
ATOM     34  C   UNL     1       4.801  -6.374  -2.058  0.00  0.00    +0.029 A 
ATOM     35  C   UNL     1       2.189  -4.927  -4.368  0.00  0.00    +0.044 C 
ENDBRANCH  26  29
ENDBRANCH  24  26
ENDBRANCH  20  24
ENDBRANCH   6  20
TORSDOF 7
