REMARK  Name = ZINC15675752
REMARK  5 active torsions:
REMARK  status: ('A' for Active; 'I' for Inactive)
REMARK    1  A    between atoms: C_3  and  C_9
REMARK    2  A    between atoms: C_5  and  C_7
REMARK    3  A    between atoms: C_9  and  N_10
REMARK    4  A    between atoms: C_19  and  C_21
REMARK    5  A    between atoms: C_23  and  C_26
REMARK                            x       y       z     vdW  Elec       q    Type
REMARK                         _______ _______ _______ _____ _____    ______ ____
ROOT
ATOM      1  N   UNL     1       4.103   2.451   1.359  0.00  0.00    -0.281 NA
ATOM      2  C   UNL     1       3.149   3.327   2.062  0.00  0.00    +0.140 C 
ATOM      3  C   UNL     1       3.703   3.626   3.433  0.00  0.00    +0.051 A 
ATOM      4  C   UNL     1       4.997   3.424   3.771  0.00  0.00    +0.040 A 
ATOM      5  N   UNL     1       5.135   3.797   5.070  0.00  0.00    -0.349 N 
ATOM      6  H   UNL     1       5.949   3.766   5.596  0.00  0.00    +0.166 HD
ATOM      7  C   UNL     1       3.919   4.219   5.491  0.00  0.00    +0.171 A 
ATOM      8  N   UNL     1       3.070   4.113   4.501  0.00  0.00    -0.349 N 
ATOM      9  C   UNL     1       6.031   2.884   2.817  0.00  0.00    +0.083 C 
ATOM     10  C   UNL     1       5.465   3.001   1.394  0.00  0.00    +0.152 C 
ATOM     11  H   UNL     1       2.130   4.350   4.538  0.00  0.00    +0.166 HD
ENDROOT
BRANCH  10  12
ATOM     12  C   UNL     1       6.342   2.230   0.441  0.00  0.00    +0.245 A 
ATOM     13  N   UNL     1       7.192   2.748  -0.399  0.00  0.00    -0.190 NA
ATOM     14  C   UNL     1       7.804   1.774  -1.095  0.00  0.00    +0.202 A 
ATOM     15  N   UNL     1       7.339   0.617  -0.693  0.00  0.00    -0.056 NA
ATOM     16  O   UNL     1       6.383   0.897   0.319  0.00  0.00    -0.336 OA
BRANCH  14  17
ATOM     17  C   UNL     1       8.836   1.975  -2.142  0.00  0.00    +0.023 A 
ATOM     18  C   UNL     1       9.251   3.263  -2.476  0.00  0.00    +0.014 A 
ATOM     19  C   UNL     1      10.211   3.445  -3.450  0.00  0.00    +0.039 A 
ATOM     20  C   UNL     1      10.761   2.350  -4.097  0.00  0.00    +0.123 A 
ATOM     21  C   UNL     1      10.350   1.068  -3.769  0.00  0.00    +0.039 A 
ATOM     22  C   UNL     1       9.396   0.876  -2.792  0.00  0.00    +0.014 A 
ATOM     23  F   UNL     1      11.700   2.533  -5.051  0.00  0.00    -0.205 F 
ENDBRANCH  14  17
ENDBRANCH  10  12
BRANCH   1  24
ATOM     24  C   UNL     1       3.671   2.204  -0.023  0.00  0.00    +0.120 C 
BRANCH  24  27
ATOM     25  C   UNL     1      -0.017   1.375   0.010  0.00  0.00    +0.002 A 
ATOM     26  C   UNL     1       1.170   2.086   0.002  0.00  0.00    +0.005 A 
ATOM     27  C   UNL     1       2.383   1.421  -0.013  0.00  0.00    -0.032 A 
ATOM     28  C   UNL     1       2.416   0.041  -0.021  0.00  0.00    +0.023 A 
ATOM     29  C   UNL     1       1.223  -0.682  -0.013  0.00  0.00    +0.052 A 
ATOM     30  C   UNL     1       0.002  -0.004   0.002  0.00  0.00    +0.019 A 
BRANCH  29  31
ATOM     31  C   UNL     1       1.250  -2.114  -0.022  0.00  0.00    +0.099 C 
ATOM     32  N   UNL     1       1.271  -3.250  -0.029  0.00  0.00    -0.191 NA
ENDBRANCH  29  31
ENDBRANCH  24  27
ENDBRANCH   1  24
TORSDOF 5
