REMARK  Name = ZINC35857958
REMARK  9 active torsions:
REMARK  status: ('A' for Active; 'I' for Inactive)
REMARK    1  A    between atoms: C_1  and  C_2
REMARK    2  A    between atoms: C_2  and  C_3
REMARK    3  A    between atoms: C_11  and  O_23
REMARK    4  A    between atoms: C_14  and  C_16
REMARK    5  A    between atoms: O_23  and  C_24
REMARK    6  A    between atoms: C_24  and  C_25
REMARK    7  A    between atoms: C_27  and  C_30
REMARK    8  A    between atoms: N_32  and  C_33
REMARK    9  A    between atoms: C_33  and  C_34
REMARK                            x       y       z     vdW  Elec       q    Type
REMARK                         _______ _______ _______ _____ _____    ______ ____
ROOT
ATOM      1  C   UNL     1      -1.728  -0.297   0.009  0.00  0.00    +0.216 C 
ATOM      2  O   UNL     1      -2.768   0.319   0.108  0.00  0.00    -0.276 OA
ATOM      3  N   UNL     1      -1.745  -1.644  -0.043  0.00  0.00    -0.290 N 
ATOM      4  C   UNL     1      -0.500  -2.421  -0.156  0.00  0.00    +0.113 C 
ATOM      5  C   UNL     1      -0.350  -3.256   1.114  0.00  0.00    +0.054 C 
ATOM      6  C   UNL     1      -1.637  -3.966   1.444  0.00  0.00    -0.040 A 
ATOM      7  C   UNL     1      -1.565  -5.070   2.286  0.00  0.00    +0.007 A 
ATOM      8  C   UNL     1      -2.705  -5.761   2.637  0.00  0.00    +0.046 A 
ATOM      9  C   UNL     1      -3.937  -5.351   2.149  0.00  0.00    +0.121 A 
ATOM     10  C   UNL     1      -4.009  -4.253   1.308  0.00  0.00    +0.051 A 
ATOM     11  C   UNL     1      -2.859  -3.564   0.952  0.00  0.00    -0.016 A 
ATOM     12  C   UNL     1      -3.004  -2.394   0.018  0.00  0.00    +0.137 C 
ENDROOT
BRANCH  12  13
ATOM     13  C   UNL     1      -3.354  -2.897  -1.359  0.00  0.00    -0.022 A 
ATOM     14  C   UNL     1      -2.545  -3.831  -1.979  0.00  0.00    +0.008 A 
ATOM     15  C   UNL     1      -2.865  -4.294  -3.241  0.00  0.00    +0.038 A 
ATOM     16  C   UNL     1      -3.997  -3.823  -3.884  0.00  0.00    +0.123 A 
ATOM     17  C   UNL     1      -4.807  -2.888  -3.262  0.00  0.00    +0.038 A 
ATOM     18  C   UNL     1      -4.487  -2.430  -1.998  0.00  0.00    +0.008 A 
ATOM     19  F   UNL     1      -4.311  -4.274  -5.118  0.00  0.00    -0.205 F 
ENDBRANCH  12  13
BRANCH   1  21
ATOM     20  C   UNL     1      -0.677   1.949   0.023  0.00  0.00    +0.013 C 
ATOM     21  C   UNL     1      -0.417   0.443  -0.055  0.00  0.00    +0.092 C 
ENDBRANCH   1  21
BRANCH   9  22
ATOM     22  O   UNL     1      -5.067  -6.023   2.493  0.00  0.00    -0.485 OA
BRANCH  22  23
ATOM     23  C   UNL     1      -4.914  -7.146   3.363  0.00  0.00    +0.291 C 
BRANCH  23  24
ATOM     24  C   UNL     1      -6.263  -7.761   3.632  0.00  0.00    +0.116 A 
ATOM     25  N   UNL     1      -6.864  -8.708   2.965  0.00  0.00    -0.236 NA
ATOM     26  C   UNL     1      -8.070  -9.110   3.378  0.00  0.00    +0.133 A 
ATOM     27  C   UNL     1      -8.569  -8.476   4.485  0.00  0.00    +0.080 A 
ATOM     28  S   UNL     1      -7.342  -7.393   4.864  0.00  0.00    -0.076 S 
BRANCH  26  29
ATOM     29  C   UNL     1      -8.819 -10.172   2.684  0.00  0.00    +0.263 C 
ATOM     30  O   UNL     1      -9.914 -10.509   3.091  0.00  0.00    -0.269 OA
ATOM     31  N   UNL     1      -8.290 -10.769   1.598  0.00  0.00    -0.303 N 
ATOM     32  H   UNL     1      -7.416 -10.500   1.274  0.00  0.00    +0.150 HD
BRANCH  31  33
ATOM     33  C   UNL     1      -9.034 -11.825   0.908  0.00  0.00    +0.179 C 
BRANCH  33  34
ATOM     34  C   UNL     1      -8.229 -12.324  -0.264  0.00  0.00    +0.122 A 
ATOM     35  C   UNL     1      -7.344 -13.336  -0.237  0.00  0.00    +0.046 A 
ATOM     36  C   UNL     1      -6.825 -13.462  -1.546  0.00  0.00    +0.041 A 
ATOM     37  C   UNL     1      -7.424 -12.519  -2.295  0.00  0.00    +0.195 A 
ATOM     38  O   UNL     1      -8.278 -11.836  -1.514  0.00  0.00    -0.466 OA
ENDBRANCH  33  34
ENDBRANCH  31  33
ENDBRANCH  26  29
ENDBRANCH  23  24
ENDBRANCH  22  23
ENDBRANCH   9  22
TORSDOF 8
