REMARK  Name = ZINC07770974
REMARK  10 active torsions:
REMARK  status: ('A' for Active; 'I' for Inactive)
REMARK    1  A    between atoms: C_1  and  C_2
REMARK    2  A    between atoms: C_2  and  C_24
REMARK    3  A    between atoms: C_4  and  N_9
REMARK    4  A    between atoms: C_6  and  C_7
REMARK    5  A    between atoms: C_6  and  C_8
REMARK    6  A    between atoms: C_10  and  C_12
REMARK    7  A    between atoms: C_16  and  S_18
REMARK    8  A    between atoms: S_18  and  N_21
REMARK    9  A    between atoms: N_21  and  C_22
REMARK   10  A    between atoms: N_21  and  C_23
REMARK                            x       y       z     vdW  Elec       q    Type
REMARK                         _______ _______ _______ _____ _____    ______ ____
ROOT
ATOM      1  N   UNL     1       0.376   5.050  -1.216  0.00  0.00    -0.309 N 
ATOM      2  C   UNL     1       0.077   5.700  -2.358  0.00  0.00    +0.244 C 
ATOM      3  O   UNL     1      -0.186   5.072  -3.364  0.00  0.00    -0.270 OA
ATOM      4  H   UNL     1       0.587   5.551  -0.413  0.00  0.00    +0.149 HD
ENDROOT
BRANCH   1   8
ATOM      5  C   UNL     1      -0.958   0.983  -2.263  0.00  0.00    -0.010 C 
ATOM      6  C   UNL     1      -1.049   1.551  -0.842  0.00  0.00    -0.072 C 
ATOM      7  C   UNL     1      -1.030   3.077  -0.900  0.00  0.00    +0.009 C 
ATOM      8  C   UNL     1       0.383   3.582  -1.188  0.00  0.00    +0.071 C 
ATOM      9  C   UNL     1       1.307   3.104  -0.068  0.00  0.00    +0.009 C 
ATOM     10  C   UNL     1       1.318   1.579  -0.002  0.00  0.00    -0.072 C 
ATOM     11  C   UNL     1       2.027   1.175   1.309  0.00  0.00    -0.010 C 
ATOM     12  C   UNL     1       2.153   1.022  -1.161  0.00  0.00    -0.010 C 
ATOM     13  C   UNL     1      -2.418   1.125  -0.266  0.00  0.00    -0.010 C 
ATOM     14  N   UNL     1      -0.027   0.945   0.053  0.00  0.00    +0.386 N 
ATOM     15  H   UNL     1       0.076  -0.043  -0.206  0.00  0.00    -0.084 HD
ATOM     16  H   UNL     1      -0.370   1.012   1.019  0.00  0.00    -0.084 HD
ENDBRANCH   1   8
BRANCH   2  17
ATOM     17  C   UNL     1       0.070   7.178  -2.386  0.00  0.00    +0.039 A 
ATOM     18  C   UNL     1       0.373   7.903  -1.232  0.00  0.00    +0.013 A 
ATOM     19  C   UNL     1       0.365   9.282  -1.266  0.00  0.00    +0.003 A 
ATOM     20  C   UNL     1       0.058   9.947  -2.440  0.00  0.00    +0.028 A 
ATOM     21  C   UNL     1      -0.242   9.235  -3.587  0.00  0.00    +0.106 A 
ATOM     22  C   UNL     1      -0.233   7.855  -3.569  0.00  0.00    +0.041 A 
BRANCH  21  23
ATOM     23  S   UNL     1      -0.630  10.091  -5.077  0.00  0.00    +0.060 S 
ATOM     24  O   UNL     1      -1.406   9.201  -5.867  0.00  0.00    -0.153 OA
ATOM     25  O   UNL     1      -1.098  11.377  -4.696  0.00  0.00    -0.153 OA
BRANCH  23  26
ATOM     26  N   UNL     1       0.793  10.328  -5.891  0.00  0.00    -0.183 NA
ATOM     27  C   UNL     1       1.266   9.324  -6.847  0.00  0.00    +0.131 C 
ATOM     28  C   UNL     1       1.579  11.541  -5.654  0.00  0.00    +0.131 C 
ENDBRANCH  23  26
ENDBRANCH  21  23
ENDBRANCH   2  17
TORSDOF 4
