REMARK  Name = ZINC65063029
REMARK  8 active torsions:
REMARK  status: ('A' for Active; 'I' for Inactive)
REMARK    1  A    between atoms: C_1  and  C_2
REMARK    2  A    between atoms: C_5  and  C_8
REMARK    3  A    between atoms: C_8  and  N_9
REMARK    4  A    between atoms: C_12  and  C_15
REMARK    5  A    between atoms: C_15  and  N_16
REMARK    6  A    between atoms: C_17  and  C_19
REMARK    7  A    between atoms: C_22  and  C_24
REMARK    8  A    between atoms: C_26  and  C_29
REMARK                            x       y       z     vdW  Elec       q    Type
REMARK                         _______ _______ _______ _____ _____    ______ ____
ROOT
ATOM      1  N   UNL     1       5.229  -8.165   0.857  0.00  0.00    -0.311 N 
ATOM      2  C   UNL     1       6.433  -8.762   0.753  0.00  0.00    +0.251 C 
ATOM      3  O   UNL     1       7.444  -8.088   0.690  0.00  0.00    -0.270 OA
ATOM      4  H   UNL     1       4.423  -8.703   0.907  0.00  0.00    +0.149 HD
ENDROOT
BRANCH   2   5
ATOM      5  C   UNL     1       6.524 -10.226   0.717  0.00  0.00    +0.074 A 
ATOM      6  C   UNL     1       7.652 -11.027   0.620  0.00  0.00    +0.021 A 
ATOM      7  C   UNL     1       7.494 -12.385   0.604  0.00  0.00    +0.020 A 
ATOM      8  C   UNL     1       6.215 -12.908   0.684  0.00  0.00    +0.060 A 
ATOM      9  S   UNL     1       5.212 -11.434   0.792  0.00  0.00    -0.080 S 
BRANCH   8  10
ATOM     10  C   UNL     1       5.788 -14.324   0.686  0.00  0.00    +0.209 A 
ATOM     11  N   UNL     1       4.519 -14.758   0.762  0.00  0.00    -0.187 NA
ATOM     12  C   UNL     1       4.494 -16.070   0.738  0.00  0.00    +0.259 A 
ATOM     13  O   UNL     1       5.759 -16.515   0.645  0.00  0.00    -0.332 OA
ATOM     14  N   UNL     1       6.587 -15.363   0.607  0.00  0.00    -0.055 NA
BRANCH  12  15
ATOM     15  C   UNL     1       3.281 -16.914   0.803  0.00  0.00    +0.039 A 
ATOM     16  C   UNL     1       2.020 -16.323   0.892  0.00  0.00    +0.013 A 
ATOM     17  C   UNL     1       0.893 -17.116   0.952  0.00  0.00    +0.001 A 
ATOM     18  C   UNL     1       1.011 -18.495   0.924  0.00  0.00    +0.000 A 
ATOM     19  C   UNL     1       2.258 -19.087   0.835  0.00  0.00    +0.001 A 
ATOM     20  C   UNL     1       3.393 -18.305   0.768  0.00  0.00    +0.013 A 
ENDBRANCH  12  15
ENDBRANCH   8  10
ENDBRANCH   2   5
BRANCH   1  21
ATOM     21  C   UNL     1       5.138  -6.703   0.894  0.00  0.00    +0.108 C 
BRANCH  21  25
ATOM     22  N   UNL     1       1.451  -4.747  -0.032  0.00  0.00    +0.382 N 
ATOM     23  C   UNL     1       2.110  -4.349   1.218  0.00  0.00    -0.078 C 
ATOM     24  C   UNL     1       3.582  -4.767   1.178  0.00  0.00    -0.014 C 
ATOM     25  C   UNL     1       3.671  -6.287   1.014  0.00  0.00    +0.003 C 
ATOM     26  C   UNL     1       2.916  -6.699  -0.253  0.00  0.00    -0.014 C 
ATOM     27  C   UNL     1       1.469  -6.209  -0.161  0.00  0.00    -0.078 C 
ATOM     28  H   UNL     1       1.938  -4.335  -0.813  0.00  0.00    -0.081 HD
BRANCH  22  29
ATOM     29  C   UNL     1       0.059  -4.275  -0.021  0.00  0.00    -0.043 C 
BRANCH  29  34
ATOM     30  C   UNL     1      -0.018   1.503   0.010  0.00  0.00    +0.044 C 
ATOM     31  C   UNL     1       0.002  -0.004   0.002  0.00  0.00    -0.050 A 
ATOM     32  C   UNL     1       0.006  -0.689  -1.199  0.00  0.00    +0.003 A 
ATOM     33  C   UNL     1       0.025  -2.071  -1.206  0.00  0.00    +0.002 A 
ATOM     34  C   UNL     1       0.040  -2.768  -0.013  0.00  0.00    -0.064 A 
ATOM     35  C   UNL     1       0.037  -2.084   1.188  0.00  0.00    +0.002 A 
ATOM     36  C   UNL     1       0.023  -0.702   1.195  0.00  0.00    +0.003 A 
ENDBRANCH  29  34
ENDBRANCH  22  29
ENDBRANCH  21  25
ENDBRANCH   1  21
TORSDOF 7
