REMARK  Name = ZINC08985938
REMARK  10 active torsions:
REMARK  status: ('A' for Active; 'I' for Inactive)
REMARK    1  A    between atoms: C_1  and  C_2
REMARK    2  A    between atoms: C_2  and  C_3
REMARK    3  A    between atoms: C_2  and  C_4
REMARK    4  A    between atoms: C_2  and  C_5
REMARK    5  A    between atoms: C_5  and  C_7
REMARK    6  A    between atoms: C_5  and  N_17
REMARK    7  A    between atoms: C_8  and  C_9
REMARK    8  A    between atoms: N_25  and  C_29
REMARK    9  A    between atoms: C_32  and  O_35
REMARK   10  A    between atoms: O_35  and  C_36
REMARK                            x       y       z     vdW  Elec       q    Type
REMARK                         _______ _______ _______ _____ _____    ______ ____
ROOT
ATOM      1  N   UNL     1       0.778  -1.960  -1.361  0.00  0.00    -0.368 N 
ATOM      2  C   UNL     1      -0.253  -2.618  -1.778  0.00  0.00    +0.098 C 
ATOM      3  C   UNL     1      -0.394  -4.118  -1.906  0.00  0.00    +0.094 C 
ATOM      4  C   UNL     1      -0.241  -4.783  -0.542  0.00  0.00    +0.034 C 
ATOM      5  C   UNL     1      -0.416  -6.297  -0.688  0.00  0.00    +0.003 C 
ATOM      6  C   UNL     1       0.635  -6.839  -1.658  0.00  0.00    +0.000 C 
ATOM      7  C   UNL     1       0.455  -6.180  -3.027  0.00  0.00    +0.003 C 
ATOM      8  C   UNL     1       0.633  -4.666  -2.891  0.00  0.00    +0.034 C 
ATOM      9  N   UNL     1      -1.755  -4.308  -2.422  0.00  0.00    -0.269 N 
ATOM     10  C   UNL     1      -2.297  -3.085  -2.563  0.00  0.00    +0.143 C 
ATOM     11  S   UNL     1      -3.885  -2.811  -3.140  0.00  0.00    -0.018 S 
ATOM     12  N   UNL     1      -1.461  -2.105  -2.197  0.00  0.00    -0.285 N 
ATOM     13  H   UNL     1      -1.676  -1.160  -2.225  0.00  0.00    +0.155 HD
ATOM     14  H   UNL     1       1.580  -2.434  -1.091  0.00  0.00    +0.161 HD
ENDROOT
BRANCH   9  15
ATOM     15  C   UNL     1      -2.372  -5.532  -2.713  0.00  0.00    +0.037 A 
ATOM     16  C   UNL     1      -1.684  -6.721  -2.515  0.00  0.00    +0.027 A 
ATOM     17  C   UNL     1      -2.293  -7.927  -2.803  0.00  0.00    +0.047 A 
ATOM     18  C   UNL     1      -3.592  -7.950  -3.288  0.00  0.00    +0.120 A 
ATOM     19  C   UNL     1      -4.280  -6.762  -3.486  0.00  0.00    +0.047 A 
ATOM     20  C   UNL     1      -3.675  -5.556  -3.193  0.00  0.00    +0.027 A 
BRANCH  18  21
ATOM     21  O   UNL     1      -4.191  -9.137  -3.571  0.00  0.00    -0.495 OA
ATOM     22  C   UNL     1      -5.530  -9.087  -4.068  0.00  0.00    +0.277 C 
ENDBRANCH  18  21
ENDBRANCH   9  15
BRANCH   1  23
ATOM     23  C   UNL     1       0.736  -0.496  -1.297  0.00  0.00    +0.109 C 
BRANCH  23  25
ATOM     24  C   UNL     1       0.061   1.466   0.094  0.00  0.00    +0.013 C 
ATOM     25  C   UNL     1       0.105  -0.062   0.027  0.00  0.00    -0.014 C 
ATOM     26  C   UNL     1       0.941  -0.599   1.190  0.00  0.00    +0.013 C 
ATOM     27  C   UNL     1      -1.317  -0.618   0.122  0.00  0.00    +0.013 C 
ENDBRANCH  23  25
BRANCH  23  28
ATOM     28  C   UNL     1       2.136   0.051  -1.391  0.00  0.00    -0.002 C 
ATOM     29  C   UNL     1       2.464   0.868  -2.383  0.00  0.00    +0.007 C 
BRANCH  29  30
ATOM     30  C   UNL     1       3.838   1.405  -2.474  0.00  0.00    -0.007 A 
ATOM     31  C   UNL     1       4.794   1.050  -1.521  0.00  0.00    +0.011 A 
ATOM     32  C   UNL     1       6.074   1.555  -1.611  0.00  0.00    +0.020 A 
ATOM     33  C   UNL     1       6.413   2.412  -2.645  0.00  0.00    +0.042 A 
ATOM     34  C   UNL     1       5.470   2.768  -3.594  0.00  0.00    +0.040 A 
ATOM     35  C   UNL     1       4.186   2.264  -3.518  0.00  0.00    +0.049 A 
ATOM     36 CL   UNL     1       3.006   2.706  -4.712  0.00  0.00    -0.083 Cl
ATOM     37 CL   UNL     1       8.027   3.042  -2.752  0.00  0.00    -0.083 Cl
ENDBRANCH  29  30
ENDBRANCH  23  28
ENDBRANCH   1  23
TORSDOF 6
