REMARK  Name = ZINC38965256
REMARK  6 active torsions:
REMARK  status: ('A' for Active; 'I' for Inactive)
REMARK    1  A    between atoms: C_1  and  N_2
REMARK    2  A    between atoms: N_6  and  N_7
REMARK    3  A    between atoms: C_8  and  C_9
REMARK    4  A    between atoms: N_15  and  C_24
REMARK    5  A    between atoms: N_20  and  C_23
REMARK    6  A    between atoms: C_24  and  C_25
REMARK                            x       y       z     vdW  Elec       q    Type
REMARK                         _______ _______ _______ _____ _____    ______ ____
ROOT
ATOM      1  C   UNL     1      -0.018   1.461   0.010  0.00  0.00    +0.141 C 
ATOM      2  N   UNL     1       0.002  -0.004   0.002  0.00  0.00    -0.244 N 
ATOM      3  C   UNL     1      -1.143  -0.754   0.003  0.00  0.00    +0.138 C 
ATOM      4  N   UNL     1      -2.291  -0.600   0.565  0.00  0.00    -0.200 NA
ATOM      5  C   UNL     1      -3.040  -1.716   0.510  0.00  0.00    +0.240 C 
ATOM      6  N   UNL     1      -4.239  -1.837   1.054  0.00  0.00    -0.113 NA
ATOM      7  N   UNL     1      -2.395  -2.720  -0.190  0.00  0.00    -0.276 N 
ATOM      8  C   UNL     1      -1.189  -2.092  -0.733  0.00  0.00    +0.227 C 
ATOM      9  C   UNL     1       0.078  -2.807  -0.335  0.00  0.00    +0.251 C 
ATOM     10  O   UNL     1       0.120  -4.018  -0.273  0.00  0.00    -0.273 OA
ATOM     11  N   UNL     1       1.166  -2.058  -0.051  0.00  0.00    -0.227 N 
ATOM     12  C   UNL     1       1.158  -0.717  -0.013  0.00  0.00    +0.316 C 
ATOM     13  O   UNL     1       2.217  -0.123   0.013  0.00  0.00    -0.252 OA
ATOM     14  C   UNL     1       2.427  -2.749   0.227  0.00  0.00    +0.143 C 
ENDROOT
BRANCH   6  15
ATOM     15  N   UNL     1      -4.762  -0.844   1.689  0.00  0.00    -0.154 NA
ATOM     16  C   UNL     1      -5.947  -0.964   2.226  0.00  0.00    +0.144 C 
BRANCH  16  17
ATOM     17  C   UNL     1      -6.544   0.169   2.951  0.00  0.00    +0.013 A 
ATOM     18  C   UNL     1      -7.813   0.052   3.538  0.00  0.00    +0.012 A 
ATOM     19  C   UNL     1      -8.328   1.147   4.207  0.00  0.00    +0.020 A 
ATOM     20  C   UNL     1      -7.583   2.311   4.277  0.00  0.00    +0.111 A 
ATOM     21  N   UNL     1      -6.392   2.394   3.716  0.00  0.00    -0.263 NA
ATOM     22  C   UNL     1      -5.854   1.379   3.072  0.00  0.00    +0.120 A 
ENDBRANCH  16  17
ENDBRANCH   6  15
BRANCH   7  23
ATOM     23  C   UNL     1      -2.825  -4.111  -0.352  0.00  0.00    +0.145 C 
BRANCH  23  24
ATOM     24  C   UNL     1      -3.688  -4.229  -1.582  0.00  0.00    -0.012 A 
ATOM     25  C   UNL     1      -5.064  -4.261  -1.460  0.00  0.00    +0.008 A 
ATOM     26  C   UNL     1      -5.856  -4.370  -2.588  0.00  0.00    +0.020 A 
ATOM     27  C   UNL     1      -5.271  -4.447  -3.839  0.00  0.00    +0.042 A 
ATOM     28  C   UNL     1      -3.894  -4.415  -3.962  0.00  0.00    +0.040 A 
ATOM     29  C   UNL     1      -3.102  -4.301  -2.833  0.00  0.00    +0.047 A 
ATOM     30 CL   UNL     1      -1.373  -4.254  -2.986  0.00  0.00    -0.083 Cl
ATOM     31 CL   UNL     1      -6.266  -4.584  -5.256  0.00  0.00    -0.083 Cl
ENDBRANCH  23  24
ENDBRANCH   7  23
TORSDOF 4
