REMARK  Name = ZINC12281962
REMARK  6 active torsions:
REMARK  status: ('A' for Active; 'I' for Inactive)
REMARK    1  A    between atoms: C_1  and  C_2
REMARK    2  A    between atoms: C_10  and  C_11
REMARK    3  A    between atoms: N_13  and  C_14
REMARK    4  A    between atoms: C_14  and  C_15
REMARK    5  A    between atoms: C_15  and  N_64
REMARK    6  A    between atoms: N_25  and  C_26
REMARK                            x       y       z     vdW  Elec       q    Type
REMARK                         _______ _______ _______ _____ _____    ______ ____
ROOT
ATOM      1  C   UNL     1       1.205   0.855   4.954  0.00  0.00    +0.046 C 
ATOM      2  C   UNL     1      -0.075   1.609   4.704  0.00  0.00    -0.019 A 
ATOM      3  C   UNL     1      -0.621   2.419   5.709  0.00  0.00    +0.051 A 
ATOM      4  C   UNL     1      -0.136   2.673   7.027  0.00  0.00    +0.131 A 
ATOM      5  N   UNL     1      -0.819   3.481   7.820  0.00  0.00    -0.220 NA
ATOM      6  C   UNL     1      -1.939   4.067   7.436  0.00  0.00    +0.224 A 
ATOM      7  N   UNL     1      -2.439   3.874   6.231  0.00  0.00    -0.228 NA
ATOM      8  C   UNL     1      -1.826   3.084   5.373  0.00  0.00    +0.114 A 
ATOM      9  S   UNL     1      -2.128   2.562   3.704  0.00  0.00    -0.064 S 
ATOM     10  C   UNL     1      -0.706   1.504   3.502  0.00  0.00    +0.079 A 
ATOM     11  N   UNL     1       1.030   2.081   7.468  0.00  0.00    -0.323 N 
ATOM     12  H   UNL     1       1.573   1.562   6.855  0.00  0.00    +0.148 HD
ENDROOT
BRANCH  11  13
ATOM     13  C   UNL     1       1.449   2.239   8.863  0.00  0.00    +0.099 C 
ATOM     14  C   UNL     1       2.431   1.112   9.264  0.00  0.00    +0.052 C 
ATOM     15  C   UNL     1       3.807   1.806   9.095  0.00  0.00    +0.162 C 
ATOM     16  O   UNL     1       3.560   3.157   9.539  0.00  0.00    -0.378 OA
ATOM     17  C   UNL     1       2.266   3.533   9.038  0.00  0.00    +0.182 C 
ENDBRANCH  11  13
BRANCH  10  18
ATOM     18  C   UNL     1      -0.309   0.719   2.326  0.00  0.00    +0.251 C 
ATOM     19  O   UNL     1       0.706   0.048   2.357  0.00  0.00    -0.270 OA
ATOM     20  N   UNL     1      -1.069   0.741   1.214  0.00  0.00    -0.312 N 
ATOM     21  H   UNL     1      -1.878   1.276   1.189  0.00  0.00    +0.149 HD
BRANCH  20  22
ATOM     22  C   UNL     1      -0.673  -0.043   0.041  0.00  0.00    +0.092 C 
BRANCH  22  23
ATOM     23  C   UNL     1      -1.630   0.253  -1.116  0.00  0.00    -0.050 C 
ATOM     24  C   UNL     1      -3.034  -0.300  -0.795  0.00  0.00    -0.010 C 
ATOM     25  C   UNL     1      -3.557  -0.823  -2.156  0.00  0.00    -0.001 C 
ATOM     26  C   UNL     1      -2.286  -1.433  -2.799  0.00  0.00    -0.001 C 
ATOM     27  C   UNL     1      -1.154  -0.468  -2.390  0.00  0.00    -0.010 C 
BRANCH  23  33
ATOM     28  C   UNL     1      -2.708   2.018  -2.373  0.00  0.00    -0.078 C 
ATOM     29  C   UNL     1      -2.856   3.537  -2.489  0.00  0.00    -0.019 C 
ATOM     30  C   UNL     1      -1.506   4.149  -2.873  0.00  0.00    -0.004 C 
ATOM     31  C   UNL     1      -0.463   3.763  -1.821  0.00  0.00    -0.019 C 
ATOM     32  C   UNL     1      -0.384   2.237  -1.724  0.00  0.00    -0.078 C 
ATOM     33  N   UNL     1      -1.708   1.713  -1.328  0.00  0.00    +0.384 N 
ATOM     34  H   UNL     1      -1.996   2.162  -0.450  0.00  0.00    -0.081 HD
ENDBRANCH  23  33
ENDBRANCH  22  23
ENDBRANCH  20  22
ENDBRANCH  10  18
TORSDOF 5
