REMARK  Name = ZINC34786348
REMARK  7 active torsions:
REMARK  status: ('A' for Active; 'I' for Inactive)
REMARK    1  A    between atoms: C_1  and  C_2
REMARK    2  A    between atoms: C_4  and  C_36
REMARK    3  A    between atoms: C_18  and  C_20
REMARK    4  A    between atoms: C_18  and  C_21
REMARK    5  A    between atoms: N_22  and  N_23
REMARK    6  A    between atoms: N_22  and  N_30
REMARK    7  A    between atoms: N_23  and  C_24
REMARK                            x       y       z     vdW  Elec       q    Type
REMARK                         _______ _______ _______ _____ _____    ______ ____
ROOT
ATOM      1  C   UNL     1       1.100   0.307  -1.020  0.00  0.00    +0.067 C 
ATOM      2  C   UNL     1       0.858  -1.154  -0.740  0.00  0.00    +0.061 A 
ATOM      3  C   UNL     1       0.769  -2.169  -1.701  0.00  0.00    +0.048 A 
ATOM      4  C   UNL     1       0.547  -3.336  -1.055  0.00  0.00    +0.045 A 
ATOM      5  N   UNL     1       0.497  -3.067   0.276  0.00  0.00    -0.202 N 
ATOM      6  N   UNL     1       0.701  -1.691   0.442  0.00  0.00    -0.169 NA
ATOM      7  C   UNL     1       0.285  -3.996   1.295  0.00  0.00    +0.254 A 
ATOM      8  N   UNL     1       0.256  -3.584   2.555  0.00  0.00    -0.192 NA
ATOM      9  C   UNL     1       0.060  -4.416   3.563  0.00  0.00    +0.164 A 
ATOM     10  C   UNL     1      -0.126  -5.802   3.295  0.00  0.00    +0.054 A 
ATOM     11  C   UNL     1      -0.353  -6.896   4.237  0.00  0.00    -0.020 A 
ATOM     12  C   UNL     1      -0.499  -8.134   3.718  0.00  0.00    +0.021 A 
ATOM     13  S   UNL     1      -0.346  -7.921   1.967  0.00  0.00    -0.071 S 
ATOM     14  C   UNL     1      -0.083  -6.166   1.934  0.00  0.00    +0.116 A 
ATOM     15  N   UNL     1       0.113  -5.272   0.985  0.00  0.00    -0.203 NA
ATOM     16  C   UNL     1      -0.738  -9.395   4.489  0.00  0.00    +0.203 C 
ATOM     17  O   UNL     1      -0.468  -9.124   5.873  0.00  0.00    -0.368 OA
ATOM     18  C   UNL     1      -1.101  -7.936   6.355  0.00  0.00    +0.068 C 
ATOM     19  C   UNL     1      -0.431  -6.699   5.749  0.00  0.00    +0.071 C 
ATOM     20  C   UNL     1      -2.580  -7.955   5.963  0.00  0.00    +0.041 C 
ATOM     21  C   UNL     1      -0.984  -7.881   7.879  0.00  0.00    +0.041 C 
ATOM     22  N   UNL     1       0.037  -3.946   4.864  0.00  0.00    -0.178 N 
ATOM     23  C   UNL     1       0.385  -4.690  -1.696  0.00  0.00    +0.066 C 
ENDROOT
BRANCH  22  24
ATOM     24  N   UNL     1      -0.888  -3.012   5.236  0.00  0.00    -0.211 NA
ATOM     25  C   UNL     1      -2.250  -3.552   5.137  0.00  0.00    +0.107 C 
ATOM     26  C   UNL     1      -3.246  -2.534   5.697  0.00  0.00    +0.017 C 
ATOM     27  C   UNL     1      -3.135  -1.229   4.904  0.00  0.00    +0.003 C 
ATOM     28  C   UNL     1      -1.695  -0.714   4.983  0.00  0.00    +0.017 C 
ATOM     29  C   UNL     1      -0.745  -1.784   4.444  0.00  0.00    +0.107 C 
ENDBRANCH  22  24
BRANCH  22  30
ATOM     30  N   UNL     1       0.939  -4.416   5.776  0.00  0.00    -0.221 NA
ATOM     31  H   UNL     1       1.325  -5.300   5.481  0.00  0.00    +0.146 HD
BRANCH  30  32
ATOM     32  C   UNL     1       2.002  -3.432   6.020  0.00  0.00    +0.074 C 
ATOM     33  C   UNL     1       3.119  -3.622   4.992  0.00  0.00    +0.020 C 
ATOM     34  C   UNL     1       4.226  -2.597   5.247  0.00  0.00    +0.002 C 
ATOM     35  C   UNL     1       4.790  -2.794   6.655  0.00  0.00    +0.000 C 
ATOM     36  C   UNL     1       3.673  -2.604   7.683  0.00  0.00    +0.002 C 
ATOM     37  C   UNL     1       2.566  -3.629   7.429  0.00  0.00    +0.020 C 
ENDBRANCH  30  32
ENDBRANCH  22  30
TORSDOF 3
