REMARK  Name = ZINC40325372
REMARK  9 active torsions:
REMARK  status: ('A' for Active; 'I' for Inactive)
REMARK    1  A    between atoms: C_1  and  C_2
REMARK    2  A    between atoms: C_5  and  C_8
REMARK    3  A    between atoms: C_8  and  C_9
REMARK    4  A    between atoms: C_9  and  N_10
REMARK    5  A    between atoms: C_12  and  C_17
REMARK    6  A    between atoms: N_19  and  C_20
REMARK    7  A    between atoms: C_21  and  C_29
REMARK    8  A    between atoms: N_31  and  C_32
REMARK    9  A    between atoms: C_32  and  C_33
REMARK                            x       y       z     vdW  Elec       q    Type
REMARK                         _______ _______ _______ _____ _____    ______ ____
ROOT
ATOM      1  C   UNL     1       1.871  -9.542   1.454  0.00  0.00    +0.223 C 
ATOM      2  O   UNL     1       2.677  -9.228   2.304  0.00  0.00    -0.275 OA
ATOM      3  N   UNL     1       1.645 -10.844   1.188  0.00  0.00    -0.279 N 
ATOM      4  H   UNL     1       1.001 -11.095   0.508  0.00  0.00    +0.155 HD
ENDROOT
BRANCH   3   5
ATOM      5  C   UNL     1       2.335 -11.824   1.885  0.00  0.00    +0.084 A 
ATOM      6  C   UNL     1       2.238 -13.199   1.742  0.00  0.00    +0.069 A 
ATOM      7  C   UNL     1       3.077 -14.017   2.601  0.00  0.00    -0.023 A 
ATOM      8  C   UNL     1       3.858 -13.309   3.446  0.00  0.00    -0.004 A 
ATOM      9  S   UNL     1       3.485 -11.617   3.091  0.00  0.00    -0.077 S 
ATOM     10  C   UNL     1       4.824 -13.858   4.450  0.00  0.00    +0.043 C 
ATOM     11  C   UNL     1       4.523 -15.351   4.643  0.00  0.00    +0.005 C 
ATOM     12  C   UNL     1       4.389 -16.012   3.268  0.00  0.00    +0.005 C 
ATOM     13  C   UNL     1       3.105 -15.538   2.585  0.00  0.00    +0.037 C 
BRANCH   6  14
ATOM     14  C   UNL     1       1.327 -13.803   0.766  0.00  0.00    +0.247 C 
ATOM     15  O   UNL     1       1.712 -14.033  -0.366  0.00  0.00    -0.270 OA
ATOM     16  N   UNL     1       0.062 -14.104   1.121  0.00  0.00    -0.304 N 
ATOM     17  H   UNL     1      -0.246 -13.921   2.022  0.00  0.00    +0.149 HD
BRANCH  16  18
ATOM     18  C   UNL     1      -0.849 -14.708   0.145  0.00  0.00    +0.179 C 
BRANCH  18  19
ATOM     19  C   UNL     1      -2.191 -14.943   0.788  0.00  0.00    +0.122 A 
ATOM     20  C   UNL     1      -3.218 -14.074   0.807  0.00  0.00    +0.046 A 
ATOM     21  C   UNL     1      -4.271 -14.700   1.512  0.00  0.00    +0.041 A 
ATOM     22  C   UNL     1      -3.826 -15.915   1.882  0.00  0.00    +0.195 A 
ATOM     23  O   UNL     1      -2.567 -16.058   1.435  0.00  0.00    -0.466 OA
ENDBRANCH  18  19
ENDBRANCH  16  18
ENDBRANCH   6  14
ENDBRANCH   3   5
BRANCH   1  26
ATOM     24  N   UNL     1       1.527  -6.231  -0.040  0.00  0.00    -0.300 N 
ATOM     25  C   UNL     1       1.539  -7.066   1.167  0.00  0.00    +0.121 C 
ATOM     26  C   UNL     1       1.121  -8.477   0.696  0.00  0.00    +0.101 C 
ATOM     27  C   UNL     1       1.545  -8.452  -0.790  0.00  0.00    +0.110 C 
ATOM     28  C   UNL     1       1.530  -6.984  -1.154  0.00  0.00    +0.216 C 
ATOM     29  O   UNL     1       1.525  -6.549  -2.286  0.00  0.00    -0.276 OA
BRANCH  24  30
ATOM     30  C   UNL     1       1.508  -4.767  -0.032  0.00  0.00    +0.112 C 
BRANCH  30  31
ATOM     31  C   UNL     1       0.059  -4.275  -0.021  0.00  0.00    +0.054 C 
BRANCH  31  36
ATOM     32  C   UNL     1      -0.018   1.503   0.010  0.00  0.00    +0.044 C 
ATOM     33  C   UNL     1       0.002  -0.004   0.002  0.00  0.00    -0.050 A 
ATOM     34  C   UNL     1       0.006  -0.689  -1.199  0.00  0.00    +0.003 A 
ATOM     35  C   UNL     1       0.025  -2.071  -1.206  0.00  0.00    +0.004 A 
ATOM     36  C   UNL     1       0.040  -2.768  -0.013  0.00  0.00    -0.046 A 
ATOM     37  C   UNL     1       0.037  -2.084   1.188  0.00  0.00    +0.004 A 
ATOM     38  C   UNL     1       0.023  -0.702   1.195  0.00  0.00    +0.003 A 
ENDBRANCH  31  36
ENDBRANCH  30  31
ENDBRANCH  24  30
ENDBRANCH   1  26
TORSDOF 8
