REMARK  Name = ZINC36207916
REMARK  13 active torsions:
REMARK  status: ('A' for Active; 'I' for Inactive)
REMARK    1  A    between atoms: C_1  and  C_2
REMARK    2  A    between atoms: C_2  and  C_3
REMARK    3  A    between atoms: C_2  and  C_4
REMARK    4  A    between atoms: C_4  and  N_5
REMARK    5  A    between atoms: N_5  and  C_6
REMARK    6  A    between atoms: N_5  and  C_25
REMARK    7  A    between atoms: C_6  and  C_7
REMARK    8  A    between atoms: C_13  and  C_18
REMARK    9  A    between atoms: C_25  and  C_26
REMARK   10  A    between atoms: C_26  and  C_28
REMARK   11  A    between atoms: C_26  and  O_36
REMARK   12  A    between atoms: C_28  and  O_29
REMARK   13  A    between atoms: O_29  and  C_30
REMARK                            x       y       z     vdW  Elec       q    Type
REMARK                         _______ _______ _______ _____ _____    ______ ____
ROOT
ATOM      1  C   UNL     1       2.766  -0.188  -2.565  0.00  0.00    -0.003 C 
ENDROOT
BRANCH   1   2
ATOM      2  C   UNL     1       2.039   0.597  -3.627  0.00  0.00    +0.094 A 
ATOM      3  N   UNL     1       2.486   0.558  -4.909  0.00  0.00    -0.312 N 
ATOM      4  H   UNL     1       3.267   0.024  -5.124  0.00  0.00    +0.170 HD
ATOM      5  C   UNL     1       1.866   1.244  -5.886  0.00  0.00    +0.260 A 
ATOM      6  O   UNL     1       2.279   1.197  -7.032  0.00  0.00    -0.267 OA
ATOM      7  C   UNL     1       0.713   2.027  -5.561  0.00  0.00    +0.080 A 
ATOM      8  C   UNL     1      -0.121   2.848  -6.431  0.00  0.00    +0.004 A 
ATOM      9  C   UNL     1      -1.174   3.508  -5.891  0.00  0.00    +0.056 A 
ATOM     10  S   UNL     1      -1.102   3.060  -4.167  0.00  0.00    -0.076 S 
ATOM     11  C   UNL     1       0.326   2.007  -4.211  0.00  0.00    +0.116 A 
ATOM     12  N   UNL     1       0.988   1.299  -3.300  0.00  0.00    -0.229 NA
BRANCH   8  13
ATOM     13  C   UNL     1       0.177   2.957  -7.879  0.00  0.00    -0.015 A 
ATOM     14  C   UNL     1       1.470   3.260  -8.306  0.00  0.00    +0.008 A 
ATOM     15  C   UNL     1       1.742   3.361  -9.655  0.00  0.00    +0.002 A 
ATOM     16  C   UNL     1       0.736   3.163 -10.583  0.00  0.00    +0.020 A 
ATOM     17  C   UNL     1      -0.549   2.863 -10.166  0.00  0.00    +0.042 A 
ATOM     18  C   UNL     1      -0.832   2.753  -8.818  0.00  0.00    +0.028 A 
ATOM     19 CL   UNL     1      -1.806   2.617 -11.338  0.00  0.00    -0.084 Cl
ENDBRANCH   8  13
ENDBRANCH   1   2
BRANCH   1  20
ATOM     20  N   UNL     1       2.099   0.005  -1.271  0.00  0.00    +0.386 N 
ATOM     21  H   UNL     1       2.035   0.992  -1.069  0.00  0.00    -0.081 HD
BRANCH  20  22
ATOM     22  C   UNL     1       0.749  -0.572  -1.325  0.00  0.00    -0.075 C 
BRANCH  22  24
ATOM     23  C   UNL     1      -0.219   1.276   0.050  0.00  0.00    +0.005 C 
ATOM     24  C   UNL     1      -0.002  -0.236  -0.035  0.00  0.00    -0.034 C 
ATOM     25  C   UNL     1      -1.356  -0.948  -0.033  0.00  0.00    +0.005 C 
ENDBRANCH  22  24
ENDBRANCH  20  22
BRANCH  20  26
ATOM     26  C   UNL     1       2.874  -0.661  -0.216  0.00  0.00    -0.043 C 
BRANCH  26  27
ATOM     27  C   UNL     1       4.227   0.037  -0.060  0.00  0.00    +0.135 C 
BRANCH  27  28
ATOM     28  O   UNL     1       4.019   1.404   0.302  0.00  0.00    -0.390 OA
ATOM     29  H   UNL     1       3.607   1.523   1.168  0.00  0.00    +0.210 HD
ENDBRANCH  27  28
BRANCH  27  30
ATOM     30  C   UNL     1       5.038  -0.662   1.033  0.00  0.00    +0.258 C 
BRANCH  30  31
ATOM     31  O   UNL     1       6.344  -0.086   1.099  0.00  0.00    -0.489 OA
BRANCH  31  32
ATOM     32  C   UNL     1       7.197  -0.597   2.026  0.00  0.00    +0.121 A 
ATOM     33  C   UNL     1       6.788  -1.635   2.850  0.00  0.00    +0.045 A 
ATOM     34  C   UNL     1       7.657  -2.152   3.790  0.00  0.00    +0.004 A 
ATOM     35  C   UNL     1       8.934  -1.636   3.911  0.00  0.00    +0.000 A 
ATOM     36  C   UNL     1       9.345  -0.601   3.091  0.00  0.00    +0.004 A 
ATOM     37  C   UNL     1       8.481  -0.085   2.145  0.00  0.00    +0.045 A 
ENDBRANCH  31  32
ENDBRANCH  30  31
ENDBRANCH  27  30
ENDBRANCH  26  27
ENDBRANCH  20  26
ENDBRANCH   1  20
TORSDOF 11
