REMARK  Name = ZINC26897639
REMARK  3 active torsions:
REMARK  status: ('A' for Active; 'I' for Inactive)
REMARK    1  A    between atoms: C_1  and  C_2
REMARK    2  A    between atoms: C_2  and  C_3
REMARK    3  A    between atoms: C_3  and  C_4
REMARK                            x       y       z     vdW  Elec       q    Type
REMARK                         _______ _______ _______ _____ _____    ______ ____
ROOT
ATOM      1  C   UNL     1      -1.413  -2.063   0.004  0.00  0.00    +0.196 C 
ATOM      2  C   UNL     1      -2.821  -2.585   0.141  0.00  0.00    +0.018 C 
ATOM      3  C   UNL     1      -3.548  -2.792  -0.953  0.00  0.00    +0.014 C 
ATOM      4  C   UNL     1      -2.936  -2.505  -2.273  0.00  0.00    +0.055 C 
ATOM      5  C   UNL     1      -1.581  -2.386  -2.357  0.00  0.00    +0.109 C 
ATOM      6  O   UNL     1      -0.838  -2.532  -1.243  0.00  0.00    -0.488 OA
ATOM      7  C   UNL     1      -0.911  -2.098  -3.673  0.00  0.00    +0.075 C 
ATOM      8  C   UNL     1      -1.850  -1.276  -4.559  0.00  0.00    +0.016 C 
ATOM      9  C   UNL     1      -3.153  -2.057  -4.760  0.00  0.00    +0.080 C 
ATOM     10  C   UNL     1      -3.759  -2.358  -3.413  0.00  0.00    +0.166 C 
ATOM     11  O   UNL     1      -4.962  -2.475  -3.307  0.00  0.00    -0.292 OA
ENDROOT
BRANCH   1  12
ATOM     12  C   UNL     1      -1.433  -0.534   0.013  0.00  0.00    +0.048 C 
BRANCH  12  14
ATOM     13  C   UNL     1      -0.019   1.526   0.010  0.00  0.00    +0.004 C 
ATOM     14  C   UNL     1       0.002  -0.004   0.002  0.00  0.00    +0.001 C 
ENDBRANCH  12  14
ENDBRANCH   1  12
TORSDOF 2
