REMARK  Name = ZINC22324886
REMARK  7 active torsions:
REMARK  status: ('A' for Active; 'I' for Inactive)
REMARK    1  A    between atoms: C_1  and  C_2
REMARK    2  A    between atoms: C_5  and  C_31
REMARK    3  A    between atoms: N_8  and  C_10
REMARK    4  A    between atoms: C_10  and  C_11
REMARK    5  A    between atoms: N_16  and  C_17
REMARK    6  A    between atoms: C_17  and  C_19
REMARK    7  A    between atoms: C_19  and  N_20
REMARK                            x       y       z     vdW  Elec       q    Type
REMARK                         _______ _______ _______ _____ _____    ______ ____
ROOT
ATOM      1  C   UNL     1       2.971  -2.034   2.241  0.00  0.00    +0.008 A 
ATOM      2  C   UNL     1       3.536  -1.180   3.102  0.00  0.00    +0.067 A 
ATOM      3  S   UNL     1       5.192  -1.045   2.455  0.00  0.00    -0.061 S 
ATOM      4  C   UNL     1       5.038  -2.085   1.143  0.00  0.00    +0.163 A 
ATOM      5  N   UNL     1       3.749  -2.507   1.231  0.00  0.00    -0.341 N 
ATOM      6  N   UNL     1       5.960  -2.418   0.236  0.00  0.00    -0.155 NA
ATOM      7  H   UNL     1       3.389  -3.132   0.583  0.00  0.00    +0.167 HD
ENDROOT
BRANCH   6   8
ATOM      8  C   UNL     1       7.181  -1.904   0.312  0.00  0.00    +0.258 C 
ATOM      9  O   UNL     1       7.461  -1.130   1.208  0.00  0.00    -0.272 OA
BRANCH   8  10
ATOM     10  C   UNL     1       8.221  -2.280  -0.711  0.00  0.00    +0.224 C 
BRANCH  10  11
ATOM     11  N   UNL     1       9.476  -1.586  -0.410  0.00  0.00    -0.290 N 
ATOM     12  C   UNL     1       9.711  -0.359  -0.945  0.00  0.00    +0.203 A 
ATOM     13  N   UNL     1      10.797   0.318  -0.726  0.00  0.00    -0.237 NA
ATOM     14  C   UNL     1      11.788  -0.162   0.066  0.00  0.00    +0.078 A 
ATOM     15  C   UNL     1      12.955   0.566   0.302  0.00  0.00    +0.028 A 
ATOM     16  C   UNL     1      13.935   0.040   1.113  0.00  0.00    +0.002 A 
ATOM     17  C   UNL     1      13.777  -1.208   1.702  0.00  0.00    +0.001 A 
ATOM     18  C   UNL     1      12.634  -1.946   1.484  0.00  0.00    +0.015 A 
ATOM     19  C   UNL     1      11.631  -1.431   0.666  0.00  0.00    +0.065 A 
ATOM     20  C   UNL     1      10.387  -2.171   0.402  0.00  0.00    +0.262 A 
ATOM     21  O   UNL     1      10.187  -3.267   0.891  0.00  0.00    -0.267 OA
ENDBRANCH  10  11
ENDBRANCH   8  10
ENDBRANCH   6   8
BRANCH   1  22
ATOM     22  C   UNL     1       1.534  -2.461   2.390  0.00  0.00    -0.024 C 
BRANCH  22  28
ATOM     23  C   UNL     1      -0.019   1.526   0.010  0.00  0.00    +0.005 C 
ATOM     24  C   UNL     1       0.002  -0.004   0.002  0.00  0.00    -0.031 C 
ATOM     25  C   UNL     1      -1.434  -0.535   0.015  0.00  0.00    +0.003 C 
ATOM     26  C   UNL     1      -1.402  -2.064   0.086  0.00  0.00    -0.031 C 
ATOM     27  C   UNL     1      -0.613  -2.496   1.324  0.00  0.00    -0.075 C 
ATOM     28  N   UNL     1       0.758  -1.980   1.239  0.00  0.00    +0.384 N 
ATOM     29  C   UNL     1       0.740  -0.512   1.242  0.00  0.00    -0.075 C 
ATOM     30  C   UNL     1      -2.832  -2.602   0.177  0.00  0.00    +0.005 C 
ATOM     31  H   UNL     1       1.188  -2.307   0.386  0.00  0.00    -0.081 HD
ENDBRANCH  22  28
ENDBRANCH   1  22
TORSDOF 5
