REMARK  Name = ZINC54667991
REMARK  6 active torsions:
REMARK  status: ('A' for Active; 'I' for Inactive)
REMARK    1  A    between atoms: C_3  and  N_16
REMARK    2  A    between atoms: C_6  and  C_7
REMARK    3  A    between atoms: C_17  and  C_19
REMARK    4  A    between atoms: C_19  and  S_20
REMARK    5  A    between atoms: S_20  and  C_21
REMARK    6  A    between atoms: C_24  and  N_27
REMARK                            x       y       z     vdW  Elec       q    Type
REMARK                         _______ _______ _______ _____ _____    ______ ____
ROOT
ATOM      1  C   UNL     1      -0.014   1.377  -0.001  0.00  0.00    +0.012 A 
ATOM      2  C   UNL     1       1.169   2.086  -0.002  0.00  0.00    +0.024 A 
ATOM      3  C   UNL     1       2.384   1.412  -0.020  0.00  0.00    +0.033 A 
ATOM      4  C   UNL     1       2.409   0.023  -0.038  0.00  0.00    +0.024 A 
ATOM      5  C   UNL     1       1.229  -0.690  -0.037  0.00  0.00    +0.012 A 
ATOM      6  C   UNL     1       0.009  -0.016  -0.018  0.00  0.00    -0.000 A 
ENDROOT
BRANCH   6   7
ATOM      7  C   UNL     1      -1.262  -0.781  -0.017  0.00  0.00    +0.064 A 
ATOM      8  C   UNL     1      -2.516  -0.253  -0.006  0.00  0.00    +0.113 A 
ATOM      9  N   UNL     1      -3.381  -1.305  -0.009  0.00  0.00    -0.335 N 
ATOM     10  C   UNL     1      -2.643  -2.442  -0.022  0.00  0.00    +0.087 A 
ATOM     11  N   UNL     1      -1.382  -2.125  -0.033  0.00  0.00    -0.343 N 
ATOM     12  C   UNL     1      -3.236  -3.831  -0.027  0.00  0.00    +0.072 C 
ATOM     13  C   UNL     1      -4.710  -3.726   0.383  0.00  0.00    +0.009 C 
ATOM     14  C   UNL     1      -5.385  -2.624  -0.439  0.00  0.00    +0.022 C 
ATOM     15  C   UNL     1      -4.845  -1.258  -0.003  0.00  0.00    +0.123 C 
ATOM     16  H   UNL     1      -0.645  -2.755  -0.048  0.00  0.00    +0.167 HD
ENDBRANCH   6   7
BRANCH   3  17
ATOM     17  N   UNL     1       3.583   2.133  -0.021  0.00  0.00    -0.285 N 
ATOM     18  C   UNL     1       4.657   1.654   0.636  0.00  0.00    +0.227 C 
ATOM     19  O   UNL     1       4.612   0.559   1.157  0.00  0.00    -0.275 OA
ATOM     20  H   UNL     1       3.640   2.978  -0.494  0.00  0.00    +0.155 HD
BRANCH  18  21
ATOM     21  C   UNL     1       5.916   2.478   0.723  0.00  0.00    +0.170 C 
BRANCH  21  22
ATOM     22  S   UNL     1       7.172   1.566   1.663  0.00  0.00    -0.116 S 
BRANCH  22  23
ATOM     23  C   UNL     1       8.563   2.647   1.675  0.00  0.00    +0.008 A 
ATOM     24  C   UNL     1       8.490   3.884   1.045  0.00  0.00    +0.017 A 
ATOM     25  C   UNL     1       9.583   4.728   1.057  0.00  0.00    +0.034 A 
ATOM     26  C   UNL     1      10.748   4.345   1.695  0.00  0.00    +0.126 A 
ATOM     27  C   UNL     1      10.825   3.115   2.323  0.00  0.00    +0.034 A 
ATOM     28  C   UNL     1       9.734   2.268   2.321  0.00  0.00    +0.017 A 
BRANCH  26  29
ATOM     29  N   UNL     1      11.917   5.253   1.705  0.00  0.00    +0.056 N 
ATOM     30  O   UNL     1      11.852   6.328   1.156  0.00  0.00    -0.126 OA
ATOM     31  O   UNL     1      12.937   4.919   2.263  0.00  0.00    -0.126 OA
ENDBRANCH  26  29
ENDBRANCH  22  23
ENDBRANCH  21  22
ENDBRANCH  18  21
ENDBRANCH   3  17
TORSDOF 6
