REMARK  Name = ZINC59888649
REMARK  9 active torsions:
REMARK  status: ('A' for Active; 'I' for Inactive)
REMARK    1  A    between atoms: C_1  and  C_2
REMARK    2  A    between atoms: C_2  and  C_3
REMARK    3  A    between atoms: C_3  and  C_24
REMARK    4  A    between atoms: N_4  and  N_5
REMARK    5  A    between atoms: C_8  and  S_11
REMARK    6  A    between atoms: S_11  and  C_12
REMARK    7  A    between atoms: C_12  and  C_13
REMARK    8  A    between atoms: N_15  and  C_16
REMARK    9  A    between atoms: C_19  and  C_23
REMARK                            x       y       z     vdW  Elec       q    Type
REMARK                         _______ _______ _______ _____ _____    ______ ____
ROOT
ATOM      1  S   UNL     1       6.536  -3.878  -0.137  0.00  0.00    -0.075 S 
ENDROOT
BRANCH   1   5
ATOM      2  N   UNL     1       2.435  -1.636  -2.283  0.00  0.00    -0.205 N 
ATOM      3  C   UNL     1       3.633  -2.320  -2.175  0.00  0.00    +0.232 A 
ATOM      4  N   UNL     1       4.256  -2.616  -1.054  0.00  0.00    -0.186 NA
ATOM      5  C   UNL     1       5.383  -3.282  -1.329  0.00  0.00    +0.211 A 
ATOM      6  N   UNL     1       5.492  -3.418  -2.629  0.00  0.00    -0.144 NA
ATOM      7  N   UNL     1       4.364  -2.807  -3.200  0.00  0.00    -0.245 N 
ATOM      8  H   UNL     1       2.050  -1.469  -3.158  0.00  0.00    +0.177 HD
ATOM      9  H   UNL     1       4.153  -2.745  -4.145  0.00  0.00    +0.192 HD
BRANCH   2  11
ATOM     10  C   UNL     1       0.671  -0.552  -1.231  0.00  0.00    +0.034 C 
ATOM     11  N   UNL     1       1.780  -1.185  -1.130  0.00  0.00    -0.189 NA
ATOM     12  C   UNL     1       0.072  -0.291  -2.589  0.00  0.00    +0.062 C 
BRANCH  10  14
ATOM     13  C   UNL     1      -0.064   1.464   0.013  0.00  0.00    +0.010 C 
ATOM     14  C   UNL     1      -0.034  -0.066   0.010  0.00  0.00    +0.049 C 
ENDBRANCH  10  14
ENDBRANCH   2  11
ENDBRANCH   1   5
BRANCH   1  15
ATOM     15  C   UNL     1       7.824  -4.678  -1.134  0.00  0.00    +0.173 C 
BRANCH  15  16
ATOM     16  C   UNL     1       8.887  -5.239  -0.225  0.00  0.00    +0.228 C 
ATOM     17  O   UNL     1       8.786  -5.112   0.977  0.00  0.00    -0.275 OA
ATOM     18  N   UNL     1       9.950  -5.881  -0.748  0.00  0.00    -0.284 N 
ATOM     19  H   UNL     1       9.999  -6.040  -1.704  0.00  0.00    +0.155 HD
BRANCH  18  20
ATOM     20  C   UNL     1      10.983  -6.320   0.088  0.00  0.00    +0.047 A 
ATOM     21  C   UNL     1      10.698  -6.771   1.370  0.00  0.00    +0.024 A 
ATOM     22  C   UNL     1      11.719  -7.203   2.192  0.00  0.00    +0.005 A 
ATOM     23  C   UNL     1      13.027  -7.187   1.741  0.00  0.00    -0.049 A 
ATOM     24  C   UNL     1      13.315  -6.738   0.466  0.00  0.00    +0.020 A 
ATOM     25  C   UNL     1      12.297  -6.310  -0.365  0.00  0.00    +0.039 A 
ATOM     26 BR   UNL     1      12.691  -5.704  -2.112  0.00  0.00    -0.048 Br
ATOM     27  C   UNL     1      14.139  -7.659   2.642  0.00  0.00    +0.044 C 
ENDBRANCH  18  20
ENDBRANCH  15  16
ENDBRANCH   1  15
TORSDOF 6
