REMARK  Name = ZINC14070957
REMARK  8 active torsions:
REMARK  status: ('A' for Active; 'I' for Inactive)
REMARK    1  A    between atoms: C_3  and  C_6
REMARK    2  A    between atoms: C_6  and  C_8
REMARK    3  A    between atoms: C_6  and  N_29
REMARK    4  A    between atoms: C_8  and  N_9
REMARK    5  A    between atoms: C_10  and  C_12
REMARK    6  A    between atoms: C_15  and  S_18
REMARK    7  A    between atoms: S_18  and  N_21
REMARK    8  A    between atoms: N_21  and  C_22
REMARK                            x       y       z     vdW  Elec       q    Type
REMARK                         _______ _______ _______ _____ _____    ______ ____
ROOT
ATOM      1  N   UNL     1       5.570   0.024  -1.358  0.00  0.00    -0.312 N 
ATOM      2  C   UNL     1       6.234  -0.409  -2.448  0.00  0.00    +0.244 C 
ATOM      3  O   UNL     1       5.633  -0.605  -3.486  0.00  0.00    -0.270 OA
ATOM      4  H   UNL     1       6.049   0.181  -0.529  0.00  0.00    +0.149 HD
ENDROOT
BRANCH   2   5
ATOM      5  C   UNL     1       7.691  -0.647  -2.380  0.00  0.00    +0.037 A 
ATOM      6  C   UNL     1       8.383  -0.428  -1.188  0.00  0.00    +0.015 A 
ATOM      7  C   UNL     1       9.743  -0.652  -1.131  0.00  0.00    +0.029 A 
ATOM      8  C   UNL     1      10.422  -1.092  -2.254  0.00  0.00    +0.110 A 
ATOM      9  C   UNL     1       9.742  -1.310  -3.439  0.00  0.00    +0.029 A 
ATOM     10  C   UNL     1       8.381  -1.096  -3.507  0.00  0.00    +0.015 A 
BRANCH   8  11
ATOM     11  S   UNL     1      12.159  -1.375  -2.173  0.00  0.00    +0.092 S 
ATOM     12  O   UNL     1      12.651  -1.260  -3.501  0.00  0.00    -0.148 OA
ATOM     13  O   UNL     1      12.652  -0.577  -1.106  0.00  0.00    -0.148 OA
BRANCH  11  14
ATOM     14  N   UNL     1      12.377  -2.954  -1.723  0.00  0.00    -0.098 NA
BRANCH  14  15
ATOM     15  C   UNL     1      13.670  -3.467  -1.577  0.00  0.00    +0.074 A 
ATOM     16  C   UNL     1      14.771  -2.651  -1.804  0.00  0.00    +0.029 A 
ATOM     17  C   UNL     1      16.047  -3.160  -1.659  0.00  0.00    +0.040 A 
ATOM     18  C   UNL     1      16.229  -4.481  -1.287  0.00  0.00    +0.124 A 
ATOM     19  C   UNL     1      15.132  -5.296  -1.061  0.00  0.00    +0.040 A 
ATOM     20  C   UNL     1      13.854  -4.790  -1.200  0.00  0.00    +0.029 A 
ATOM     21  F   UNL     1      17.478  -4.977  -1.146  0.00  0.00    -0.205 F 
ENDBRANCH  14  15
ENDBRANCH  11  14
ENDBRANCH   8  11
ENDBRANCH   2   5
BRANCH   1  22
ATOM     22  C   UNL     1       4.126   0.260  -1.425  0.00  0.00    +0.097 C 
BRANCH  22  23
ATOM     23  C   UNL     1       3.602   0.617  -0.032  0.00  0.00    +0.016 C 
BRANCH  23  24
ATOM     24  N   UNL     1       3.975  -0.441   0.917  0.00  0.00    +0.387 N 
ATOM     25  C   UNL     1       3.460  -1.729   0.438  0.00  0.00    -0.078 C 
ATOM     26  C   UNL     1       3.914  -2.846   1.381  0.00  0.00    -0.019 C 
ATOM     27  C   UNL     1       3.374  -2.570   2.787  0.00  0.00    -0.004 C 
ATOM     28  C   UNL     1       3.857  -1.191   3.247  0.00  0.00    -0.019 C 
ATOM     29  C   UNL     1       3.405  -0.136   2.235  0.00  0.00    -0.078 C 
ATOM     30  H   UNL     1       4.980  -0.488   0.989  0.00  0.00    -0.081 HD
ENDBRANCH  23  24
BRANCH  23  33
ATOM     31  C   UNL     1       0.038   1.554  -0.081  0.00  0.00    +0.041 A 
ATOM     32  C   UNL     1       1.408   1.895   0.005  0.00  0.00    +0.043 A 
ATOM     33  C   UNL     1       2.102   0.746  -0.077  0.00  0.00    +0.093 A 
ATOM     34  O   UNL     1       1.230  -0.268  -0.207  0.00  0.00    -0.469 OA
ATOM     35  C   UNL     1      -0.023   0.217  -0.210  0.00  0.00    +0.195 A 
ENDBRANCH  23  33
ENDBRANCH  22  23
ENDBRANCH   1  22
TORSDOF 8
