REMARK  Name = ZINC01341465
REMARK  9 active torsions:
REMARK  status: ('A' for Active; 'I' for Inactive)
REMARK    1  A    between atoms: C_1  and  C_2
REMARK    2  A    between atoms: C_2  and  C_4
REMARK    3  A    between atoms: C_9  and  N_10
REMARK    4  A    between atoms: N_10  and  C_11
REMARK    5  A    between atoms: C_11  and  C_13
REMARK    6  A    between atoms: C_11  and  C_20
REMARK    7  A    between atoms: N_22  and  C_23
REMARK    8  A    between atoms: C_29  and  C_31
REMARK    9  A    between atoms: C_31  and  C_32
REMARK                            x       y       z     vdW  Elec       q    Type
REMARK                         _______ _______ _______ _____ _____    ______ ____
ROOT
ATOM      1  N   UNL     1       1.214   0.846  -0.177  0.00  0.00    -0.254 N 
ATOM      2  C   UNL     1       0.449   0.226   0.743  0.00  0.00    +0.226 C 
ATOM      3  O   UNL     1       0.939  -0.147   1.788  0.00  0.00    -0.275 OA
ENDROOT
BRANCH   1   9
ATOM      4  C   UNL     1       0.683   0.441  -2.508  0.00  0.00    +0.039 A 
ATOM      5  C   UNL     1       0.109   0.884  -3.705  0.00  0.00    +0.013 A 
ATOM      6  C   UNL     1      -0.470   2.131  -3.769  0.00  0.00    +0.001 A 
ATOM      7  C   UNL     1      -0.493   2.951  -2.651  0.00  0.00    +0.002 A 
ATOM      8  C   UNL     1       0.064   2.528  -1.462  0.00  0.00    +0.024 A 
ATOM      9  C   UNL     1       0.652   1.274  -1.375  0.00  0.00    +0.048 A 
BRANCH   4  11
ATOM     10  C   UNL     1       1.436  -1.728  -3.676  0.00  0.00    +0.091 C 
ATOM     11  C   UNL     1       1.307  -0.885  -2.433  0.00  0.00    +0.162 C 
ATOM     12  O   UNL     1       1.720  -1.302  -1.372  0.00  0.00    -0.292 OA
ENDBRANCH   4  11
ENDBRANCH   1   9
BRANCH   1  13
ATOM     13  C   UNL     1       2.639   1.068   0.085  0.00  0.00    +0.197 C 
BRANCH  13  14
ATOM     14  C   UNL     1       2.794   2.091   1.181  0.00  0.00    -0.018 A 
ATOM     15  C   UNL     1       2.094   3.281   1.119  0.00  0.00    +0.007 A 
ATOM     16  C   UNL     1       2.232   4.217   2.127  0.00  0.00    +0.020 A 
ATOM     17  C   UNL     1       3.079   3.967   3.192  0.00  0.00    +0.041 A 
ATOM     18  C   UNL     1       3.784   2.778   3.250  0.00  0.00    +0.020 A 
ATOM     19  C   UNL     1       3.641   1.841   2.245  0.00  0.00    +0.007 A 
ATOM     20 CL   UNL     1       3.259   5.146   4.454  0.00  0.00    -0.084 Cl
ENDBRANCH  13  14
BRANCH  13  21
ATOM     21  C   UNL     1       3.308   1.569  -1.169  0.00  0.00    +0.239 C 
ATOM     22  O   UNL     1       2.767   2.417  -1.847  0.00  0.00    -0.273 OA
ATOM     23  N   UNL     1       4.507   1.076  -1.536  0.00  0.00    -0.311 N 
ATOM     24  H   UNL     1       4.939   0.398  -0.993  0.00  0.00    +0.149 HD
BRANCH  23  25
ATOM     25  C   UNL     1       5.157   1.563  -2.755  0.00  0.00    +0.073 C 
ATOM     26  C   UNL     1       4.631   0.783  -3.961  0.00  0.00    +0.022 C 
ATOM     27  C   UNL     1       5.311   1.292  -5.234  0.00  0.00    +0.002 C 
ATOM     28  C   UNL     1       6.823   1.093  -5.119  0.00  0.00    +0.000 C 
ATOM     29  C   UNL     1       7.350   1.874  -3.912  0.00  0.00    +0.002 C 
ATOM     30  C   UNL     1       6.670   1.365  -2.639  0.00  0.00    +0.022 C 
ENDBRANCH  23  25
ENDBRANCH  13  21
ENDBRANCH   1  13
BRANCH   2  31
ATOM     31  C   UNL     1      -1.015  -0.008   0.471  0.00  0.00    +0.138 C 
BRANCH  31  32
ATOM     32  C   UNL     1      -1.637  -0.719   1.645  0.00  0.00    -0.001 A 
ATOM     33  C   UNL     1      -2.215  -0.193   2.753  0.00  0.00    +0.011 A 
ATOM     34  C   UNL     1      -2.728  -1.047   3.711  0.00  0.00    +0.008 A 
ATOM     35  C   UNL     1      -2.629  -2.385   3.519  0.00  0.00    +0.045 A 
ATOM     36  S   UNL     1      -1.797  -2.472   1.942  0.00  0.00    -0.101 S 
ENDBRANCH  31  32
ENDBRANCH   2  31
TORSDOF 8
