REMARK  Name = ZINC06196855
REMARK  10 active torsions:
REMARK  status: ('A' for Active; 'I' for Inactive)
REMARK    1  A    between atoms: C_1  and  C_2
REMARK    2  A    between atoms: C_2  and  O_3
REMARK    3  A    between atoms: O_3  and  C_4
REMARK    4  A    between atoms: C_11  and  C_16
REMARK    5  A    between atoms: C_16  and  C_18
REMARK    6  A    between atoms: C_16  and  N_67
REMARK    7  A    between atoms: N_22  and  C_23
REMARK    8  A    between atoms: C_23  and  C_24
REMARK    9  A    between atoms: C_31  and  N_67
REMARK   10  A    between atoms: C_32  and  N_67
REMARK                            x       y       z     vdW  Elec       q    Type
REMARK                         _______ _______ _______ _____ _____    ______ ____
ROOT
ATOM      1  C   UNL     1       1.339   3.056  -1.942  0.00  0.00    +0.039 C 
ENDROOT
BRANCH   1   9
ATOM      2  C   UNL     1       2.109  -1.911  -5.571  0.00  0.00    +0.121 A 
ATOM      3  C   UNL     1       3.457  -1.689  -5.843  0.00  0.00    +0.047 A 
ATOM      4  C   UNL     1       4.112  -0.603  -5.308  0.00  0.00    +0.030 A 
ATOM      5  C   UNL     1       3.426   0.286  -4.487  0.00  0.00    +0.049 A 
ATOM      6  C   UNL     1       2.064   0.067  -4.208  0.00  0.00    +0.002 A 
ATOM      7  C   UNL     1       1.410  -1.041  -4.758  0.00  0.00    +0.055 A 
ATOM      8  C   UNL     1       1.357   1.007  -3.338  0.00  0.00    +0.017 A 
ATOM      9  C   UNL     1       2.040   2.066  -2.837  0.00  0.00    +0.011 A 
ATOM     10  C   UNL     1       3.405   2.242  -3.146  0.00  0.00    +0.251 A 
ATOM     11  O   UNL     1       4.001   3.199  -2.682  0.00  0.00    -0.268 OA
ATOM     12  N   UNL     1       4.065   1.381  -3.941  0.00  0.00    -0.322 N 
ATOM     13  H   UNL     1       5.033   1.537  -4.139  0.00  0.00    +0.169 HD
BRANCH   2  14
ATOM     14  O   UNL     1       1.478  -2.989  -6.107  0.00  0.00    -0.492 OA
BRANCH  14  16
ATOM     15  C   UNL     1       1.385  -4.998  -7.447  0.00  0.00    +0.048 C 
ATOM     16  C   UNL     1       2.259  -3.850  -6.939  0.00  0.00    +0.225 C 
ENDBRANCH  14  16
ENDBRANCH   2  14
ENDBRANCH   1   9
BRANCH   1  17
ATOM     17  C   UNL     1       1.923   2.979  -0.554  0.00  0.00    +0.143 A 
ATOM     18  N   UNL     1       3.053   3.506  -0.151  0.00  0.00    -0.115 NA
ATOM     19  N   UNL     1       3.202   3.221   1.097  0.00  0.00    -0.023 NA
ATOM     20  N   UNL     1       2.194   2.530   1.501  0.00  0.00    -0.044 NA
ATOM     21  N   UNL     1       1.386   2.354   0.510  0.00  0.00    -0.226 N 
BRANCH  21  22
ATOM     22  C   UNL     1       0.119   1.619   0.540  0.00  0.00    +0.182 C 
BRANCH  22  23
ATOM     23  C   UNL     1      -0.976   2.527   1.038  0.00  0.00    -0.026 A 
ATOM     24  C   UNL     1      -1.240   2.613   2.392  0.00  0.00    +0.008 A 
ATOM     25  C   UNL     1      -2.241   3.448   2.850  0.00  0.00    +0.038 A 
ATOM     26  C   UNL     1      -2.987   4.191   1.951  0.00  0.00    +0.123 A 
ATOM     27  C   UNL     1      -2.726   4.100   0.594  0.00  0.00    +0.038 A 
ATOM     28  C   UNL     1      -1.720   3.268   0.139  0.00  0.00    +0.008 A 
ATOM     29  F   UNL     1      -3.969   5.005   2.397  0.00  0.00    -0.205 F 
ENDBRANCH  22  23
ENDBRANCH  21  22
ENDBRANCH   1  17
BRANCH   1  31
ATOM     30  C   UNL     1       0.911   5.412  -1.588  0.00  0.00    -0.094 C 
ATOM     31  N   UNL     1       1.549   4.418  -2.476  0.00  0.00    +0.389 N 
ATOM     32  H   UNL     1       2.557   4.608  -2.519  0.00  0.00    -0.080 HD
BRANCH  31  33
ATOM     33  C   UNL     1       0.982   4.519  -3.837  0.00  0.00    -0.068 C 
ATOM     34  C   UNL     1       1.391   5.863  -4.444  0.00  0.00    -0.015 C 
ATOM     35  C   UNL     1       0.830   5.974  -5.863  0.00  0.00    -0.002 C 
ATOM     36  C   UNL     1      -0.696   5.878  -5.817  0.00  0.00    -0.000 C 
ATOM     37  C   UNL     1      -1.105   4.534  -5.211  0.00  0.00    -0.002 C 
ATOM     38  C   UNL     1      -0.544   4.423  -3.792  0.00  0.00    -0.015 C 
ENDBRANCH  31  33
ENDBRANCH   1  31
TORSDOF 8
