REMARK  Name = ZINC43746443
REMARK  5 active torsions:
REMARK  status: ('A' for Active; 'I' for Inactive)
REMARK    1  A    between atoms: C_2  and  C_3
REMARK    2  A    between atoms: C_3  and  O_4
REMARK    3  A    between atoms: O_4  and  C_5
REMARK    4  A    between atoms: C_10  and  C_11
REMARK    5  A    between atoms: C_11  and  C_13
REMARK                            x       y       z     vdW  Elec       q    Type
REMARK                         _______ _______ _______ _____ _____    ______ ____
ROOT
ATOM      1  C   UNL     1      -1.232  -5.127  -3.754  0.00  0.00    +0.066 C 
ATOM      2  C   UNL     1      -0.824  -6.416  -3.020  0.00  0.00    -0.055 C 
ATOM      3  C   UNL     1      -2.068  -7.152  -2.506  0.00  0.00    -0.016 C 
ATOM      4  C   UNL     1      -2.037  -8.530  -3.207  0.00  0.00    -0.020 C 
ATOM      5  C   UNL     1      -1.196  -8.252  -4.476  0.00  0.00    -0.076 C 
ATOM      6  N   UNL     1      -0.145  -7.279  -4.014  0.00  0.00    +0.395 N 
ATOM      7  C   UNL     1       0.259  -6.442  -5.156  0.00  0.00    +0.060 C 
ATOM      8  C   UNL     1      -0.199  -5.013  -4.885  0.00  0.00    +0.085 C 
ATOM      9  C   UNL     1       0.943  -4.120  -4.488  0.00  0.00    -0.011 A 
ATOM     10  C   UNL     1       1.867  -4.160  -3.468  0.00  0.00    +0.006 A 
ATOM     11  C   UNL     1       2.822  -3.165  -3.359  0.00  0.00    +0.000 A 
ATOM     12  C   UNL     1       2.846  -2.131  -4.277  0.00  0.00    +0.002 A 
ATOM     13  C   UNL     1       1.923  -2.087  -5.300  0.00  0.00    +0.023 A 
ATOM     14  C   UNL     1       0.957  -3.084  -5.417  0.00  0.00    +0.038 A 
ATOM     15  N   UNL     1      -0.068  -3.257  -6.349  0.00  0.00    -0.285 N 
ATOM     16  C   UNL     1      -0.794  -4.366  -6.106  0.00  0.00    +0.228 C 
ATOM     17  O   UNL     1      -1.743  -4.765  -6.747  0.00  0.00    -0.275 OA
ATOM     18  C   UNL     1      -0.332  -6.968  -6.438  0.00  0.00    -0.027 A 
ATOM     19  C   UNL     1      -1.624  -7.159  -6.872  0.00  0.00    +0.004 A 
ATOM     20  C   UNL     1      -1.861  -7.674  -8.134  0.00  0.00    +0.000 A 
ATOM     21  C   UNL     1      -0.797  -7.996  -8.957  0.00  0.00    +0.002 A 
ATOM     22  C   UNL     1       0.500  -7.806  -8.525  0.00  0.00    +0.023 A 
ATOM     23  C   UNL     1       0.747  -7.288  -7.256  0.00  0.00    +0.036 A 
ATOM     24  N   UNL     1       1.948  -7.009  -6.602  0.00  0.00    -0.286 N 
ATOM     25  C   UNL     1       1.751  -6.510  -5.368  0.00  0.00    +0.212 C 
ATOM     26  O   UNL     1       2.609  -6.178  -4.577  0.00  0.00    -0.277 OA
ATOM     27  H   UNL     1      -0.238  -2.650  -7.086  0.00  0.00    +0.155 HD
ATOM     28  H   UNL     1       2.823  -7.157  -6.992  0.00  0.00    +0.155 HD
ATOM     29  H   UNL     1       0.643  -7.755  -3.602  0.00  0.00    -0.079 HD
ENDROOT
BRANCH   1  30
ATOM     30  C   UNL     1      -1.143  -3.939  -2.831  0.00  0.00    +0.169 C 
ATOM     31  O   UNL     1      -0.445  -3.993  -1.840  0.00  0.00    -0.292 OA
BRANCH  30  37
ATOM     32  C   UNL     1      -1.736  -1.572  -2.336  0.00  0.00    +0.131 A 
ATOM     33  C   UNL     1      -2.453  -0.422  -2.634  0.00  0.00    +0.046 A 
ATOM     34  C   UNL     1      -3.328  -0.408  -3.701  0.00  0.00    +0.004 A 
ATOM     35  C   UNL     1      -3.499  -1.540  -4.484  0.00  0.00    +0.001 A 
ATOM     36  C   UNL     1      -2.796  -2.691  -4.206  0.00  0.00    +0.015 A 
ATOM     37  C   UNL     1      -1.901  -2.718  -3.131  0.00  0.00    +0.059 A 
BRANCH  32  38
ATOM     38  O   UNL     1      -0.876  -1.587  -1.288  0.00  0.00    -0.487 OA
BRANCH  38  39
ATOM     39  C   UNL     1      -0.762  -0.383  -0.526  0.00  0.00    +0.256 C 
BRANCH  39  41
ATOM     40  C   UNL     1       1.136   0.328   0.836  0.00  0.00    +0.007 C 
ATOM     41  C   UNL     1       0.231  -0.587   0.589  0.00  0.00    +0.006 C 
ENDBRANCH  39  41
ENDBRANCH  38  39
ENDBRANCH  32  38
ENDBRANCH  30  37
ENDBRANCH   1  30
TORSDOF 5
