REMARK  Name = ZINC02092693
REMARK  6 active torsions:
REMARK  status: ('A' for Active; 'I' for Inactive)
REMARK    1  A    between atoms: C_11  and  C_31
REMARK    2  A    between atoms: N_19  and  C_23
REMARK    3  A    between atoms: C_23  and  C_24
REMARK    4  A    between atoms: C_24  and  C_25
REMARK    5  A    between atoms: C_25  and  N_66
REMARK    6  A    between atoms: C_35  and  N_37
REMARK                            x       y       z     vdW  Elec       q    Type
REMARK                         _______ _______ _______ _____ _____    ______ ____
ROOT
ATOM      1  C   UNL     1       0.337  -4.218  -4.583  0.00  0.00    +0.001 A 
ATOM      2  C   UNL     1      -1.018  -4.504  -4.625  0.00  0.00    +0.002 A 
ATOM      3  C   UNL     1      -1.919  -3.948  -3.732  0.00  0.00    +0.026 A 
ATOM      4  C   UNL     1      -1.402  -3.077  -2.775  0.00  0.00    +0.047 A 
ATOM      5  C   UNL     1      -0.014  -2.788  -2.737  0.00  0.00    +0.003 A 
ATOM      6  C   UNL     1       0.873  -3.364  -3.652  0.00  0.00    +0.010 A 
ATOM      7  C   UNL     1       0.172  -1.861  -1.639  0.00  0.00    -0.015 A 
ATOM      8  C   UNL     1      -1.044  -1.649  -1.091  0.00  0.00    +0.046 A 
ATOM      9  N   UNL     1      -1.991  -2.372  -1.765  0.00  0.00    -0.356 N 
ATOM     10  H   UNL     1      -2.939  -2.382  -1.557  0.00  0.00    +0.166 HD
ATOM     11  C   UNL     1      -1.277  -0.740   0.094  0.00  0.00    +0.154 C 
ATOM     12  N   UNL     1      -0.038   0.039   0.303  0.00  0.00    -0.276 N 
ATOM     13  C   UNL     1       1.235  -0.679   0.258  0.00  0.00    +0.167 C 
ATOM     14  C   UNL     1       1.453  -1.226  -1.160  0.00  0.00    +0.069 C 
ATOM     15  C   UNL     1       2.386   0.194   0.641  0.00  0.00    +0.237 C 
ATOM     16  O   UNL     1       3.482  -0.318   0.729  0.00  0.00    -0.274 OA
ATOM     17  N   UNL     1       2.285   1.498   0.891  0.00  0.00    -0.291 N 
ATOM     18  C   UNL     1       1.036   2.238   0.832  0.00  0.00    +0.203 C 
ATOM     19  C   UNL     1      -0.128   1.352   0.527  0.00  0.00    +0.234 C 
ATOM     20  O   UNL     1      -1.228   1.860   0.475  0.00  0.00    -0.274 OA
ENDROOT
BRANCH  11  21
ATOM     21  C   UNL     1      -2.426   0.192  -0.193  0.00  0.00    -0.019 A 
ATOM     22  C   UNL     1      -2.452   0.915  -1.371  0.00  0.00    +0.006 A 
ATOM     23  C   UNL     1      -3.506   1.770  -1.634  0.00  0.00    +0.003 A 
ATOM     24  C   UNL     1      -4.534   1.902  -0.720  0.00  0.00    +0.033 A 
ATOM     25  C   UNL     1      -4.509   1.178   0.458  0.00  0.00    +0.127 A 
ATOM     26  C   UNL     1      -3.457   0.320   0.719  0.00  0.00    +0.038 A 
BRANCH  25  27
ATOM     27  N   UNL     1      -5.610   1.320   1.437  0.00  0.00    +0.056 N 
ATOM     28  O   UNL     1      -6.538   2.074   1.206  0.00  0.00    -0.126 OA
ATOM     29  O   UNL     1      -5.587   0.682   2.475  0.00  0.00    -0.126 OA
ENDBRANCH  25  27
ENDBRANCH  11  21
BRANCH  17  30
ATOM     30  C   UNL     1       3.504   2.229   1.247  0.00  0.00    +0.106 C 
BRANCH  30  31
ATOM     31  C   UNL     1       4.164   2.769  -0.024  0.00  0.00    +0.000 C 
BRANCH  31  32
ATOM     32  C   UNL     1       5.437   3.532   0.348  0.00  0.00    -0.077 C 
BRANCH  32  38
ATOM     33  C   UNL     1       6.563   2.953  -1.717  0.00  0.00    -0.050 C 
ATOM     34  C   UNL     1       7.161   3.534  -3.001  0.00  0.00    +0.141 C 
ATOM     35  O   UNL     1       8.194   4.462  -2.663  0.00  0.00    -0.383 OA
ATOM     36  C   UNL     1       7.750   5.545  -1.840  0.00  0.00    +0.141 C 
ATOM     37  C   UNL     1       7.158   4.984  -0.544  0.00  0.00    -0.050 C 
ATOM     38  N   UNL     1       6.053   4.064  -0.887  0.00  0.00    +0.383 N 
ATOM     39  H   UNL     1       5.342   4.580  -1.419  0.00  0.00    -0.082 HD
ENDBRANCH  32  38
ENDBRANCH  31  32
ENDBRANCH  30  31
ENDBRANCH  17  30
TORSDOF 6
