REMARK  Name = ZINC20704749
REMARK  6 active torsions:
REMARK  status: ('A' for Active; 'I' for Inactive)
REMARK    1  A    between atoms: C_4  and  N_34
REMARK    2  A    between atoms: C_6  and  C_7
REMARK    3  A    between atoms: C_18  and  S_23
REMARK    4  A    between atoms: S_23  and  N_26
REMARK    5  A    between atoms: N_26  and  C_27
REMARK    6  A    between atoms: C_27  and  C_28
REMARK                            x       y       z     vdW  Elec       q    Type
REMARK                         _______ _______ _______ _____ _____    ______ ____
ROOT
ATOM      1  C   UNL     1       4.893   1.494  -0.019  0.00  0.00    +0.105 C 
ATOM      2  C   UNL     1       5.103   0.274   0.860  0.00  0.00    +0.029 C 
ATOM      3  C   UNL     1       6.496  -0.371   0.843  0.00  0.00    +0.033 C 
ATOM      4  C   UNL     1       6.162  -1.832   1.150  0.00  0.00    -0.030 C 
ATOM      5  C   UNL     1       4.919  -2.103   0.770  0.00  0.00    -0.023 C 
ATOM      6  C   UNL     1       4.333  -0.884   0.157  0.00  0.00    +0.049 C 
ATOM      7  C   UNL     1       2.888  -0.583   0.241  0.00  0.00    -0.018 A 
ATOM      8  C   UNL     1       1.934  -1.569   0.378  0.00  0.00    +0.034 A 
ATOM      9  C   UNL     1       0.593  -1.239   0.436  0.00  0.00    +0.106 A 
ATOM     10  C   UNL     1       0.203   0.086   0.350  0.00  0.00    +0.030 A 
ATOM     11  C   UNL     1       1.149   1.079   0.214  0.00  0.00    +0.025 A 
ATOM     12  C   UNL     1       2.501   0.759   0.164  0.00  0.00    +0.031 A 
ATOM     13  N   UNL     1       3.445   1.787   0.049  0.00  0.00    -0.336 N 
ATOM     14  H   UNL     1       3.092   2.829   0.009  0.00  0.00    +0.147 HD
ENDROOT
BRANCH   1  20
ATOM     15  C   UNL     1       6.603   1.389  -1.843  0.00  0.00    +0.007 A 
ATOM     16  C   UNL     1       6.975   1.104  -3.144  0.00  0.00    +0.022 A 
ATOM     17  C   UNL     1       6.037   0.628  -4.043  0.00  0.00    +0.071 A 
ATOM     18  C   UNL     1       4.729   0.432  -3.638  0.00  0.00    +0.145 A 
ATOM     19  C   UNL     1       4.359   0.712  -2.336  0.00  0.00    +0.039 A 
ATOM     20  C   UNL     1       5.296   1.188  -1.438  0.00  0.00    -0.025 A 
ATOM     21 CL   UNL     1       6.502   0.277  -5.678  0.00  0.00    -0.081 Cl
BRANCH  18  22
ATOM     22  N   UNL     1       3.725  -0.078  -4.599  0.00  0.00    +0.058 N 
ATOM     23  O   UNL     1       2.573  -0.251  -4.242  0.00  0.00    -0.126 OA
ATOM     24  O   UNL     1       4.051  -0.325  -5.746  0.00  0.00    -0.126 OA
ENDBRANCH  18  22
ENDBRANCH   1  20
BRANCH   9  25
ATOM     25  S   UNL     1      -0.619  -2.505   0.618  0.00  0.00    +0.058 S 
ATOM     26  O   UNL     1       0.036  -3.611   1.222  0.00  0.00    -0.153 OA
ATOM     27  O   UNL     1      -1.764  -1.891   1.193  0.00  0.00    -0.153 OA
BRANCH  25  28
ATOM     28  N   UNL     1      -1.056  -2.987  -0.905  0.00  0.00    -0.187 NA
ATOM     29  H   UNL     1      -2.027  -2.669  -1.312  0.00  0.00    +0.148 HD
BRANCH  28  30
ATOM     30  C   UNL     1      -0.075  -3.640  -1.776  0.00  0.00    +0.137 C 
BRANCH  30  31
ATOM     31  C   UNL     1      -0.798  -4.311  -2.946  0.00  0.00    +0.134 C 
ATOM     32  C   UNL     1       0.214  -5.098  -3.805  0.00  0.00    +0.035 C 
ATOM     33  C   UNL     1      -0.292  -4.819  -5.247  0.00  0.00    +0.031 C 
ATOM     34  C   UNL     1      -0.821  -3.370  -5.099  0.00  0.00    +0.160 C 
ATOM     35  O   UNL     1      -1.395  -3.314  -3.784  0.00  0.00    -0.375 OA
ENDBRANCH  30  31
ENDBRANCH  28  30
ENDBRANCH  25  28
ENDBRANCH   9  25
TORSDOF 6
