REMARK  Name = ZINC43527956
REMARK  6 active torsions:
REMARK  status: ('A' for Active; 'I' for Inactive)
REMARK    1  A    between atoms: C_1  and  C_2
REMARK    2  A    between atoms: C_4  and  C_32
REMARK    3  A    between atoms: C_6  and  C_8
REMARK    4  A    between atoms: C_17  and  C_19
REMARK    5  A    between atoms: C_19  and  N_20
REMARK    6  A    between atoms: C_21  and  C_23
REMARK                            x       y       z     vdW  Elec       q    Type
REMARK                         _______ _______ _______ _____ _____    ______ ____
ROOT
ATOM      1  C   UNL     1       0.051  -2.697   2.514  0.00  0.00    +0.024 C 
ATOM      2  C   UNL     1      -0.754  -3.994   2.401  0.00  0.00    -0.068 C 
ATOM      3  N   UNL     1       0.106  -5.144   2.689  0.00  0.00    +0.383 N 
ATOM      4  C   UNL     1       1.203  -5.223   1.721  0.00  0.00    -0.078 C 
ATOM      5  C   UNL     1       2.073  -3.966   1.812  0.00  0.00    -0.015 C 
ATOM      6  C   UNL     1       1.497  -3.040   2.895  0.00  0.00    -0.007 C 
ATOM      7  C   UNL     1       1.478  -3.805   4.225  0.00  0.00    -0.010 C 
ATOM      8  C   UNL     1       0.627  -5.069   4.056  0.00  0.00    -0.051 C 
ATOM      9  H   UNL     1      -0.446  -5.984   2.603  0.00  0.00    -0.081 HD
ENDROOT
BRANCH   1  15
ATOM     10  C   UNL     1      -0.018   1.503   0.010  0.00  0.00    +0.088 C 
ATOM     11  C   UNL     1       0.002  -0.004   0.002  0.00  0.00    +0.127 A 
ATOM     12  N   UNL     1       0.005  -0.637  -1.152  0.00  0.00    -0.232 NA
ATOM     13  C   UNL     1       0.023  -1.970  -1.197  0.00  0.00    +0.081 A 
ATOM     14  C   UNL     1       0.038  -2.686   0.008  0.00  0.00    +0.052 A 
ATOM     15  C   UNL     1       0.035  -1.975   1.192  0.00  0.00    +0.047 A 
ATOM     16  N   UNL     1       0.022  -0.650   1.151  0.00  0.00    -0.237 NA
BRANCH  13  17
ATOM     17  C   UNL     1       0.026  -2.678  -2.491  0.00  0.00    +0.038 A 
ATOM     18  C   UNL     1       0.018  -2.159  -3.760  0.00  0.00    +0.017 A 
ATOM     19  C   UNL     1       0.023  -3.025  -4.829  0.00  0.00    +0.008 A 
ATOM     20  C   UNL     1       0.035  -4.364  -4.597  0.00  0.00    +0.046 A 
ATOM     21  S   UNL     1       0.049  -4.434  -2.813  0.00  0.00    -0.095 S 
ENDBRANCH  13  17
ENDBRANCH   1  15
BRANCH   8  22
ATOM     22  C   UNL     1       1.487  -6.303   4.339  0.00  0.00    +0.089 C 
BRANCH  22  23
ATOM     23  N   UNL     1       0.705  -7.514   4.077  0.00  0.00    -0.313 N 
ATOM     24  C   UNL     1       1.261  -8.728   4.260  0.00  0.00    +0.244 C 
ATOM     25  O   UNL     1       2.411  -8.818   4.643  0.00  0.00    -0.270 OA
ATOM     26  H   UNL     1      -0.213  -7.441   3.771  0.00  0.00    +0.149 HD
BRANCH  24  27
ATOM     27  C   UNL     1       0.473  -9.947   3.995  0.00  0.00    +0.040 A 
ATOM     28  C   UNL     1      -0.847  -9.846   3.550  0.00  0.00    +0.017 A 
ATOM     29  C   UNL     1      -1.581 -10.985   3.302  0.00  0.00    +0.050 A 
ATOM     30  C   UNL     1      -1.013 -12.238   3.495  0.00  0.00    +0.166 A 
ATOM     31  C   UNL     1       0.305 -12.346   3.940  0.00  0.00    +0.167 A 
ATOM     32  C   UNL     1       1.047 -11.207   4.184  0.00  0.00    +0.062 A 
ATOM     33  O   UNL     1       0.621 -13.670   4.047  0.00  0.00    -0.453 OA
ATOM     34  C   UNL     1      -0.640 -14.366   4.057  0.00  0.00    +0.466 C 
ATOM     35  O   UNL     1      -1.519 -13.492   3.323  0.00  0.00    -0.453 OA
ENDBRANCH  24  27
ENDBRANCH  22  23
ENDBRANCH   8  22
TORSDOF 5
