REMARK  Name = ZINC64062189
REMARK  6 active torsions:
REMARK  status: ('A' for Active; 'I' for Inactive)
REMARK    1  A    between atoms: C_1  and  C_2
REMARK    2  A    between atoms: C_2  and  C_3
REMARK    3  A    between atoms: C_3  and  C_4
REMARK    4  A    between atoms: C_4  and  N_5
REMARK    5  A    between atoms: C_8  and  C_14
REMARK    6  A    between atoms: N_28  and  C_29
REMARK                            x       y       z     vdW  Elec       q    Type
REMARK                         _______ _______ _______ _____ _____    ______ ____
ROOT
ATOM      1  C   UNL     1       0.615  -3.428  -6.024  0.00  0.00    -0.000 C 
ATOM      2  C   UNL     1      -0.075  -2.139  -6.476  0.00  0.00    +0.097 C 
ATOM      3  C   UNL     1      -1.111  -1.814  -5.405  0.00  0.00    -0.041 C 
ATOM      4  C   UNL     1      -0.874  -0.569  -5.020  0.00  0.00    -0.001 A 
ATOM      5  C   UNL     1      -1.584   0.324  -4.090  0.00  0.00    +0.010 A 
ATOM      6  C   UNL     1      -1.044   1.559  -3.914  0.00  0.00    +0.001 A 
ATOM      7  C   UNL     1       0.117   1.991  -4.562  0.00  0.00    +0.002 A 
ATOM      8  C   UNL     1       0.831   1.240  -5.439  0.00  0.00    +0.026 A 
ATOM      9  C   UNL     1       0.359  -0.078  -5.709  0.00  0.00    +0.043 A 
ATOM     10  N   UNL     1       0.835  -0.997  -6.526  0.00  0.00    -0.379 N 
ATOM     11  C   UNL     1      -2.085  -2.855  -4.910  0.00  0.00    +0.015 C 
ATOM     12  C   UNL     1      -1.253  -4.119  -4.625  0.00  0.00    -0.074 C 
ATOM     13  N   UNL     1      -0.417  -4.448  -5.784  0.00  0.00    +0.384 N 
ATOM     14  C   UNL     1       0.235  -5.744  -5.551  0.00  0.00    -0.095 C 
ATOM     15  H   UNL     1       1.642  -0.937  -7.061  0.00  0.00    +0.160 HD
ATOM     16  H   UNL     1      -1.004  -4.520  -6.601  0.00  0.00    -0.081 HD
ENDROOT
BRANCH   1  20
ATOM     17  N   UNL     1       3.424  -3.234  -3.531  0.00  0.00    -0.261 N 
ATOM     18  C   UNL     1       2.755  -3.469  -4.677  0.00  0.00    +0.262 A 
ATOM     19  O   UNL     1       3.337  -3.935  -5.642  0.00  0.00    -0.267 OA
ATOM     20  C   UNL     1       1.383  -3.174  -4.752  0.00  0.00    +0.070 A 
ATOM     21  C   UNL     1       0.756  -2.654  -3.659  0.00  0.00    +0.259 A 
ATOM     22  N   UNL     1       1.475  -2.430  -2.512  0.00  0.00    -0.275 N 
ATOM     23  C   UNL     1       2.787  -2.725  -2.461  0.00  0.00    +0.332 A 
ATOM     24  O   UNL     1       3.406  -2.525  -1.434  0.00  0.00    -0.246 OA
ATOM     25  O   UNL     1      -0.561  -2.361  -3.705  0.00  0.00    -0.267 OA
ATOM     26  H   UNL     1       1.034  -2.060  -1.731  0.00  0.00    +0.173 HD
BRANCH  17  27
ATOM     27  C   UNL     1       4.854  -3.540  -3.448  0.00  0.00    +0.130 C 
BRANCH  27  28
ATOM     28  C   UNL     1       5.040  -4.982  -2.970  0.00  0.00    +0.022 C 
BRANCH  28  30
ATOM     29  C   UNL     1       6.719  -6.743  -2.404  0.00  0.00    +0.004 C 
ATOM     30  C   UNL     1       6.534  -5.302  -2.882  0.00  0.00    -0.002 C 
ENDBRANCH  28  30
ENDBRANCH  27  28
ENDBRANCH  17  27
ENDBRANCH   1  20
TORSDOF 4
