REMARK  Name = ZINC09307679
REMARK  7 active torsions:
REMARK  status: ('A' for Active; 'I' for Inactive)
REMARK    1  A    between atoms: C_1  and  C_2
REMARK    2  A    between atoms: C_2  and  C_35
REMARK    3  A    between atoms: C_6  and  N_16
REMARK    4  A    between atoms: C_8  and  C_10
REMARK    5  A    between atoms: N_16  and  N_17
REMARK    6  A    between atoms: C_18  and  C_20
REMARK    7  A    between atoms: C_25  and  C_27
REMARK                            x       y       z     vdW  Elec       q    Type
REMARK                         _______ _______ _______ _____ _____    ______ ____
ROOT
ATOM      1  C   UNL     1      -4.148   5.072  -5.177  0.00  0.00    +0.041 C 
ATOM      2  C   UNL     1      -3.341   5.110  -3.877  0.00  0.00    +0.070 C 
ATOM      3  C   UNL     1      -3.975   4.168  -2.852  0.00  0.00    +0.090 C 
ATOM      4  C   UNL     1      -3.044   3.992  -1.681  0.00  0.00    +0.055 A 
ATOM      5  C   UNL     1      -1.713   4.333  -1.767  0.00  0.00    +0.041 A 
ATOM      6  C   UNL     1      -0.896   4.134  -0.649  0.00  0.00    +0.145 A 
ATOM      7  N   UNL     1      -1.433   3.637   0.460  0.00  0.00    -0.211 NA
ATOM      8  C   UNL     1      -2.721   3.330   0.505  0.00  0.00    +0.162 A 
ATOM      9  N   UNL     1      -3.515   3.502  -0.542  0.00  0.00    -0.232 NA
ATOM     10  C   UNL     1      -1.120   4.899  -3.028  0.00  0.00    +0.201 C 
ATOM     11  O   UNL     1      -2.001   4.676  -4.130  0.00  0.00    -0.369 OA
ATOM     12  C   UNL     1      -3.328   6.537  -3.324  0.00  0.00    +0.041 C 
ENDROOT
BRANCH   8  13
ATOM     13  C   UNL     1      -3.289   2.780   1.760  0.00  0.00    +0.019 A 
ATOM     14  C   UNL     1      -4.643   2.455   1.832  0.00  0.00    +0.011 A 
ATOM     15  C   UNL     1      -5.165   1.938   3.000  0.00  0.00    +0.001 A 
ATOM     16  C   UNL     1      -4.349   1.753   4.103  0.00  0.00    +0.000 A 
ATOM     17  C   UNL     1      -3.007   2.079   4.039  0.00  0.00    +0.001 A 
ATOM     18  C   UNL     1      -2.473   2.591   2.874  0.00  0.00    +0.011 A 
ENDBRANCH   8  13
BRANCH   6  19
ATOM     19  N   UNL     1       0.451   4.454  -0.697  0.00  0.00    -0.238 N 
ATOM     20  H   UNL     1       0.854   4.732  -1.534  0.00  0.00    +0.172 HD
BRANCH  19  21
ATOM     21  N   UNL     1       1.230   4.377   0.465  0.00  0.00    -0.148 N 
ATOM     22  C   UNL     1       1.287   5.426   1.309  0.00  0.00    +0.305 C 
ATOM     23  O   UNL     1       1.964   5.359   2.318  0.00  0.00    -0.265 OA
ATOM     24  C   UNL     1       1.924   3.254   0.738  0.00  0.00    +0.268 C 
ATOM     25  O   UNL     1       2.532   3.156   1.782  0.00  0.00    -0.271 OA
BRANCH  22  26
ATOM     26  C   UNL     1       0.533   6.647   1.013  0.00  0.00    +0.191 A 
ATOM     27  C   UNL     1       0.497   7.776   1.782  0.00  0.00    +0.054 A 
ATOM     28  C   UNL     1      -0.340   8.688   1.121  0.00  0.00    +0.042 A 
ATOM     29  C   UNL     1      -0.781   8.081  -0.003  0.00  0.00    +0.196 A 
ATOM     30  O   UNL     1      -0.253   6.852  -0.065  0.00  0.00    -0.458 OA
ENDBRANCH  22  26
BRANCH  24  31
ATOM     31  C   UNL     1       1.943   2.121  -0.255  0.00  0.00    +0.206 C 
ATOM     32  C   UNL     1       0.542   1.478  -0.364  0.00  0.00    +0.043 C 
ATOM     33  C   UNL     1       0.834  -0.030  -0.534  0.00  0.00    +0.031 C 
ATOM     34  C   UNL     1       2.376  -0.120  -0.507  0.00  0.00    +0.161 C 
ATOM     35  O   UNL     1       2.801   1.058   0.213  0.00  0.00    -0.367 OA
ENDBRANCH  24  31
ENDBRANCH  19  21
ENDBRANCH   6  19
TORSDOF 5
