REMARK  Name = ZINC45970867
REMARK  11 active torsions:
REMARK  status: ('A' for Active; 'I' for Inactive)
REMARK    1  A    between atoms: C_1  and  C_2
REMARK    2  A    between atoms: C_2  and  C_3
REMARK    3  A    between atoms: C_2  and  C_4
REMARK    4  A    between atoms: C_7  and  N_10
REMARK    5  A    between atoms: C_11  and  C_13
REMARK    6  A    between atoms: C_13  and  N_14
REMARK    7  A    between atoms: C_22  and  S_24
REMARK    8  A    between atoms: S_24  and  C_25
REMARK    9  A    between atoms: C_25  and  C_26
REMARK   10  A    between atoms: C_25  and  C_27
REMARK   11  A    between atoms: C_25  and  C_28
REMARK                            x       y       z     vdW  Elec       q    Type
REMARK                         _______ _______ _______ _____ _____    ______ ____
ROOT
ATOM      1  N   UNL     1      -7.495  -3.822  -2.292  0.00  0.00    -0.202 N 
ATOM      2  C   UNL     1      -7.381  -5.156  -2.468  0.00  0.00    +0.368 A 
ATOM      3  O   UNL     1      -7.043  -5.965  -1.621  0.00  0.00    -0.243 OA
ATOM      4  N   UNL     1      -7.708  -5.433  -3.746  0.00  0.00    -0.160 N 
ATOM      5  C   UNL     1      -8.031  -4.248  -4.377  0.00  0.00    +0.179 A 
ATOM      6  N   UNL     1      -7.913  -3.270  -3.511  0.00  0.00    -0.147 NA
ATOM      7  C   UNL     1      -8.414  -4.273  -5.743  0.00  0.00    +0.053 A 
ATOM      8  C   UNL     1      -8.454  -5.458  -6.396  0.00  0.00    +0.040 A 
ATOM      9  C   UNL     1      -8.116  -6.653  -5.718  0.00  0.00    +0.118 A 
ATOM     10  N   UNL     1      -7.761  -6.637  -4.459  0.00  0.00    -0.154 NA
ENDROOT
BRANCH   1  11
ATOM     11  C   UNL     1      -7.236  -3.087  -1.052  0.00  0.00    +0.245 C 
BRANCH  11  13
ATOM     12  N   UNL     1      -5.320  -1.968   0.042  0.00  0.00    -0.284 N 
ATOM     13  C   UNL     1      -5.790  -2.663  -1.013  0.00  0.00    +0.239 C 
ATOM     14  O   UNL     1      -5.050  -2.946  -1.931  0.00  0.00    -0.273 OA
ATOM     15  H   UNL     1      -5.891  -1.807   0.810  0.00  0.00    +0.155 HD
BRANCH  12  19
ATOM     16  C   UNL     1      -1.418  -0.509   0.005  0.00  0.00    -0.045 A 
ATOM     17  C   UNL     1      -2.137  -0.586  -1.174  0.00  0.00    +0.006 A 
ATOM     18  C   UNL     1      -3.431  -1.069  -1.165  0.00  0.00    +0.023 A 
ATOM     19  C   UNL     1      -4.010  -1.478   0.030  0.00  0.00    +0.033 A 
ATOM     20  C   UNL     1      -3.284  -1.400   1.212  0.00  0.00    +0.023 A 
ATOM     21  C   UNL     1      -1.989  -0.920   1.195  0.00  0.00    +0.006 A 
BRANCH  16  23
ATOM     22  C   UNL     1       0.857  -0.856  -0.919  0.00  0.00    +0.012 C 
ATOM     23  C   UNL     1      -0.007   0.019  -0.009  0.00  0.00    +0.013 C 
ATOM     24  C   UNL     1      -0.005   1.457  -0.532  0.00  0.00    +0.012 C 
ENDBRANCH  16  23
ENDBRANCH  12  19
ENDBRANCH  11  13
ENDBRANCH   1  11
BRANCH   9  25
ATOM     25  S   UNL     1      -8.173  -8.187  -6.584  0.00  0.00    -0.098 S 
BRANCH  25  26
ATOM     26  C   UNL     1      -7.672  -9.411  -5.343  0.00  0.00    +0.014 C 
ATOM     27  C   UNL     1      -8.652  -9.375  -4.168  0.00  0.00    +0.022 C 
ATOM     28  C   UNL     1      -7.679 -10.806  -5.970  0.00  0.00    +0.022 C 
ATOM     29  C   UNL     1      -6.264  -9.083  -4.843  0.00  0.00    +0.022 C 
ENDBRANCH  25  26
ENDBRANCH   9  25
TORSDOF 6
