REMARK  Name = ZINC14532843
REMARK  13 active torsions:
REMARK  status: ('A' for Active; 'I' for Inactive)
REMARK    1  A    between atoms: C_1  and  C_2
REMARK    2  A    between atoms: C_2  and  C_3
REMARK    3  A    between atoms: C_2  and  C_4
REMARK    4  A    between atoms: C_4  and  C_5
REMARK    5  A    between atoms: C_5  and  C_6
REMARK    6  A    between atoms: C_9  and  C_11
REMARK    7  A    between atoms: C_13  and  C_17
REMARK    8  A    between atoms: C_17  and  C_18
REMARK    9  A    between atoms: C_17  and  C_19
REMARK   10  A    between atoms: N_22  and  C_24
REMARK   11  A    between atoms: C_24  and  C_25
REMARK   12  A    between atoms: N_27  and  C_34
REMARK   13  A    between atoms: C_34  and  C_35
REMARK                            x       y       z     vdW  Elec       q    Type
REMARK                         _______ _______ _______ _____ _____    ______ ____
ROOT
ATOM      1  C   UNL     1      -2.829  -2.579  -0.111  0.00  0.00    +0.061 A 
ATOM      2  C   UNL     1      -3.525  -2.940   0.974  0.00  0.00    +0.025 A 
ATOM      3  N   UNL     1      -4.762  -3.359   0.543  0.00  0.00    -0.330 N 
ATOM      4  C   UNL     1      -4.780  -3.232  -0.804  0.00  0.00    +0.161 A 
ATOM      5  N   UNL     1      -3.611  -2.757  -1.187  0.00  0.00    -0.231 NA
ATOM      6  C   UNL     1      -5.805  -3.844   1.451  0.00  0.00    +0.105 C 
ATOM      7  C   UNL     1      -5.146  -4.168   2.798  0.00  0.00    -0.056 C 
ATOM      8  N   UNL     1      -4.334  -3.028   3.245  0.00  0.00    +0.387 N 
ATOM      9  C   UNL     1      -3.115  -2.924   2.424  0.00  0.00    -0.022 C 
ATOM     10  H   UNL     1      -4.871  -2.179   3.156  0.00  0.00    -0.081 HD
ENDROOT
BRANCH   4  11
ATOM     11  C   UNL     1      -5.916  -3.562  -1.692  0.00  0.00    +0.128 A 
ATOM     12  C   UNL     1      -5.936  -3.435  -3.097  0.00  0.00    +0.056 A 
ATOM     13  C   UNL     1      -7.150  -3.838  -3.531  0.00  0.00    +0.039 A 
ATOM     14  N   UNL     1      -7.878  -4.206  -2.455  0.00  0.00    -0.281 N 
ATOM     15  H   UNL     1      -8.789  -4.538  -2.471  0.00  0.00    +0.189 HD
ATOM     16  N   UNL     1      -7.087  -4.032  -1.312  0.00  0.00    -0.171 NA
BRANCH  13  17
ATOM     17  C   UNL     1      -7.611  -3.870  -4.966  0.00  0.00    +0.031 C 
ATOM     18  C   UNL     1      -8.534  -5.071  -5.178  0.00  0.00    +0.014 C 
ATOM     19  C   UNL     1      -8.370  -2.581  -5.286  0.00  0.00    +0.014 C 
ENDBRANCH  13  17
ENDBRANCH   4  11
BRANCH   1  20
ATOM     20  C   UNL     1      -1.416  -2.058  -0.121  0.00  0.00    +0.057 C 
BRANCH  20  21
ATOM     21  C   UNL     1      -1.433  -0.534   0.013  0.00  0.00    +0.009 C 
BRANCH  21  23
ATOM     22  C   UNL     1      -0.019   1.526   0.010  0.00  0.00    +0.007 C 
ATOM     23  C   UNL     1       0.002  -0.004   0.002  0.00  0.00    -0.017 C 
ATOM     24  C   UNL     1       0.742  -0.511   1.242  0.00  0.00    +0.007 C 
ENDBRANCH  21  23
ENDBRANCH  20  21
ENDBRANCH   1  20
BRANCH   8  25
ATOM     25  C   UNL     1      -3.958  -3.220   4.653  0.00  0.00    -0.040 C 
BRANCH  25  26
ATOM     26  C   UNL     1      -5.197  -3.189   5.511  0.00  0.00    -0.039 A 
ATOM     27  C   UNL     1      -5.645  -2.148   6.229  0.00  0.00    +0.089 A 
ATOM     28  N   UNL     1      -6.798  -2.492   6.881  0.00  0.00    -0.338 N 
ATOM     29  C   UNL     1      -7.127  -3.797   6.592  0.00  0.00    +0.050 A 
ATOM     30  C   UNL     1      -6.142  -4.290   5.716  0.00  0.00    +0.001 A 
ATOM     31  C   UNL     1      -6.222  -5.601   5.244  0.00  0.00    +0.010 A 
ATOM     32  C   UNL     1      -7.260  -6.400   5.633  0.00  0.00    +0.001 A 
ATOM     33  C   UNL     1      -8.236  -5.918   6.494  0.00  0.00    +0.002 A 
ATOM     34  C   UNL     1      -8.172  -4.630   6.979  0.00  0.00    +0.026 A 
BRANCH  28  35
ATOM     35  C   UNL     1      -7.567  -1.605   7.757  0.00  0.00    +0.217 C 
BRANCH  35  36
ATOM     36  C   UNL     1      -7.152  -1.829   9.188  0.00  0.00    +0.230 C 
ATOM     37  O   UNL     1      -6.298  -2.649   9.451  0.00  0.00    -0.274 OA
ATOM     38  N   UNL     1      -7.730  -1.118  10.177  0.00  0.00    -0.328 N 
ATOM     39  H   UNL     1      -8.413  -0.462   9.967  0.00  0.00    +0.145 HD
ATOM     40  H   UNL     1      -7.463  -1.262  11.098  0.00  0.00    +0.145 HD
ENDBRANCH  35  36
ENDBRANCH  28  35
ENDBRANCH  25  26
ENDBRANCH   8  25
TORSDOF 9
