REMARK  Name = ZINC11481905
REMARK  12 active torsions:
REMARK  status: ('A' for Active; 'I' for Inactive)
REMARK    1  A    between atoms: C_1  and  C_2
REMARK    2  A    between atoms: C_7  and  N_8
REMARK    3  A    between atoms: C_9  and  C_11
REMARK    4  A    between atoms: C_11  and  N_12
REMARK    5  A    between atoms: C_13  and  C_15
REMARK    6  A    between atoms: C_15  and  O_16
REMARK    7  A    between atoms: O_16  and  C_17
REMARK    8  A    between atoms: C_17  and  C_19
REMARK    9  A    between atoms: C_19  and  C_20
REMARK   10  A    between atoms: C_19  and  C_21
REMARK   11  A    between atoms: C_19  and  O_22
REMARK   12  A    between atoms: O_22  and  C_23
REMARK                            x       y       z     vdW  Elec       q    Type
REMARK                         _______ _______ _______ _____ _____    ______ ____
ROOT
ATOM      1  N   UNL     1       4.339   9.215   0.818  0.00  0.00    -0.304 N 
ATOM      2  C   UNL     1       4.303   7.884   0.611  0.00  0.00    +0.251 C 
ATOM      3  O   UNL     1       5.328   7.278   0.379  0.00  0.00    -0.272 OA
ATOM      4  H   UNL     1       3.520   9.700   1.003  0.00  0.00    +0.149 HD
ENDROOT
BRANCH   1   5
ATOM      5  C   UNL     1       5.616   9.931   0.761  0.00  0.00    +0.200 C 
BRANCH   5   7
ATOM      6  N   UNL     1       6.422  12.255   1.023  0.00  0.00    -0.284 N 
ATOM      7  C   UNL     1       5.383  11.396   1.025  0.00  0.00    +0.234 C 
ATOM      8  O   UNL     1       4.261  11.803   1.239  0.00  0.00    -0.274 OA
ATOM      9  H   UNL     1       7.309  11.942   0.787  0.00  0.00    +0.155 HD
BRANCH   6  16
ATOM     10  C   UNL     1       8.590  13.689   2.179  0.00  0.00    +0.046 C 
ATOM     11  C   UNL     1       7.252  14.335   1.929  0.00  0.00    -0.028 A 
ATOM     12  C   UNL     1       7.052  15.661   2.257  0.00  0.00    +0.020 A 
ATOM     13  C   UNL     1       5.822  16.253   2.033  0.00  0.00    +0.018 A 
ATOM     14  C   UNL     1       4.790  15.519   1.473  0.00  0.00    +0.017 A 
ATOM     15  C   UNL     1       4.986  14.194   1.137  0.00  0.00    +0.024 A 
ATOM     16  C   UNL     1       6.220  13.598   1.362  0.00  0.00    +0.036 A 
ATOM     17 BR   UNL     1       5.549  18.067   2.491  0.00  0.00    -0.050 Br
ENDBRANCH   6  16
ENDBRANCH   5   7
ENDBRANCH   1   5
BRANCH   2  18
ATOM     18  C   UNL     1       2.990   7.148   0.669  0.00  0.00    +0.327 C 
BRANCH  18  19
ATOM     19  O   UNL     1       3.214   5.736   0.415  0.00  0.00    -0.452 OA
BRANCH  19  20
ATOM     20  C   UNL     1       2.137   4.935   0.431  0.00  0.00    +0.351 C 
ATOM     21  O   UNL     1       1.043   5.398   0.650  0.00  0.00    -0.246 OA
BRANCH  20  22
ATOM     22  C   UNL     1       2.293   3.458   0.176  0.00  0.00    +0.200 C 
ATOM     23  C   UNL     1       3.220   2.853   1.232  0.00  0.00    +0.067 C 
ATOM     24  C   UNL     1       2.894   3.241  -1.214  0.00  0.00    +0.067 C 
BRANCH  22  25
ATOM     25  O   UNL     1       1.014   2.825   0.246  0.00  0.00    -0.475 OA
BRANCH  25  26
ATOM     26  C   UNL     1       0.076   3.228  -0.652  0.00  0.00    +0.122 A 
ATOM     27  C   UNL     1      -1.147   2.577  -0.718  0.00  0.00    +0.047 A 
ATOM     28  C   UNL     1      -2.099   2.988  -1.631  0.00  0.00    +0.023 A 
ATOM     29  C   UNL     1      -1.833   4.049  -2.479  0.00  0.00    +0.041 A 
ATOM     30  C   UNL     1      -0.613   4.699  -2.415  0.00  0.00    +0.023 A 
ATOM     31  C   UNL     1       0.342   4.290  -1.504  0.00  0.00    +0.047 A 
ATOM     32 CL   UNL     1      -3.030   4.564  -3.625  0.00  0.00    -0.084 Cl
ENDBRANCH  25  26
ENDBRANCH  22  25
ENDBRANCH  20  22
ENDBRANCH  19  20
ENDBRANCH  18  19
ENDBRANCH   2  18
TORSDOF 9
