REMARK  Name = ZINC39870622
REMARK  5 active torsions:
REMARK  status: ('A' for Active; 'I' for Inactive)
REMARK    1  A    between atoms: C_1  and  C_2
REMARK    2  A    between atoms: C_3  and  C_21
REMARK    3  A    between atoms: N_6  and  C_20
REMARK    4  A    between atoms: C_8  and  N_9
REMARK    5  A    between atoms: N_10  and  C_11
REMARK                            x       y       z     vdW  Elec       q    Type
REMARK                         _______ _______ _______ _____ _____    ______ ____
ROOT
ATOM      1  C   UNL     1      -0.018   1.503   0.010  0.00  0.00    +0.048 C 
ATOM      2  C   UNL     1       0.002  -0.004   0.002  0.00  0.00    +0.005 A 
ATOM      3  C   UNL     1       0.006  -0.705  -1.200  0.00  0.00    +0.121 A 
ATOM      4  C   UNL     1       0.025  -2.123  -1.178  0.00  0.00    +0.272 A 
ATOM      5  O   UNL     1       0.029  -2.745  -2.226  0.00  0.00    -0.266 OA
ATOM      6  N   UNL     1       0.040  -2.786  -0.008  0.00  0.00    -0.276 N 
ATOM      7  C   UNL     1       0.036  -2.123   1.175  0.00  0.00    +0.281 A 
ATOM      8  C   UNL     1       0.023  -0.725   1.208  0.00  0.00    +0.155 A 
ATOM      9  O   UNL     1       0.050  -2.817   2.329  0.00  0.00    -0.265 OA
ATOM     10  C   UNL     1       0.060  -4.251  -0.011  0.00  0.00    +0.156 C 
ENDROOT
BRANCH   8  11
ATOM     11  N   UNL     1       0.026  -0.066   2.400  0.00  0.00    -0.143 NA
ATOM     12  N   UNL     1       0.045  -0.733   3.505  0.00  0.00    -0.148 NA
BRANCH  12  13
ATOM     13  C   UNL     1       0.048  -0.072   4.702  0.00  0.00    +0.106 A 
ATOM     14  C   UNL     1       0.023   1.325   4.732  0.00  0.00    +0.031 A 
ATOM     15  C   UNL     1       0.026   1.986   5.943  0.00  0.00    +0.004 A 
ATOM     16  C   UNL     1       0.053   1.269   7.127  0.00  0.00    +0.021 A 
ATOM     17  C   UNL     1       0.077  -0.115   7.106  0.00  0.00    +0.061 A 
ATOM     18  C   UNL     1       0.069  -0.790   5.901  0.00  0.00    +0.086 A 
ATOM     19 CL   UNL     1       0.091  -2.526   5.875  0.00  0.00    -0.080 Cl
ATOM     20 CL   UNL     1       0.112  -1.003   8.597  0.00  0.00    -0.082 Cl
ENDBRANCH  12  13
ENDBRANCH   8  11
BRANCH   3  21
ATOM     21  C   UNL     1      -0.010  -0.001  -2.447  0.00  0.00    +0.105 C 
ATOM     22  N   UNL     1      -0.022   0.557  -3.437  0.00  0.00    -0.191 NA
ENDBRANCH   3  21
TORSDOF 3
