REMARK  Name = ZINC39666372
REMARK  7 active torsions:
REMARK  status: ('A' for Active; 'I' for Inactive)
REMARK    1  A    between atoms: C_1  and  C_2
REMARK    2  A    between atoms: C_2  and  C_4
REMARK    3  A    between atoms: C_2  and  O_29
REMARK    4  A    between atoms: C_4  and  N_5
REMARK    5  A    between atoms: C_6  and  C_8
REMARK    6  A    between atoms: C_19  and  C_21
REMARK    7  A    between atoms: O_29  and  C_30
REMARK                            x       y       z     vdW  Elec       q    Type
REMARK                         _______ _______ _______ _____ _____    ______ ____
ROOT
ATOM      1  C   UNL     1       1.517  -3.713   1.452  0.00  0.00    +0.100 C 
ATOM      2  C   UNL     1       2.354  -3.975   0.180  0.00  0.00    +0.121 C 
ATOM      3  N   UNL     1       3.728  -4.215   0.680  0.00  0.00    -0.296 N 
ATOM      4  C   UNL     1       3.538  -5.016   1.912  0.00  0.00    +0.115 C 
ATOM      5  C   UNL     1       2.295  -4.401   2.586  0.00  0.00    -0.004 C 
ATOM      6  C   UNL     1       1.443  -5.495   3.223  0.00  0.00    -0.010 C 
ATOM      7  C   UNL     1       2.216  -6.126   4.385  0.00  0.00    -0.082 C 
ATOM      8  N   UNL     1       2.542  -5.093   5.376  0.00  0.00    +0.379 N 
ATOM      9  C   UNL     1       3.437  -4.093   4.780  0.00  0.00    -0.082 C 
ATOM     10  C   UNL     1       2.717  -3.377   3.635  0.00  0.00    -0.010 C 
ATOM     11  C   UNL     1       4.890  -3.800   0.136  0.00  0.00    +0.249 C 
ATOM     12  O   UNL     1       5.945  -4.081   0.669  0.00  0.00    -0.270 OA
ATOM     13  H   UNL     1       1.693  -4.641   5.681  0.00  0.00    -0.086 HD
ATOM     14  H   UNL     1       2.997  -5.520   6.168  0.00  0.00    -0.086 HD
ENDROOT
BRANCH  11  15
ATOM     15  C   UNL     1       4.880  -3.003  -1.107  0.00  0.00    +0.073 A 
ATOM     16  C   UNL     1       4.822  -1.608  -1.047  0.00  0.00    +0.054 A 
ATOM     17  C   UNL     1       4.813  -0.870  -2.215  0.00  0.00    +0.021 A 
ATOM     18  C   UNL     1       4.861  -1.508  -3.441  0.00  0.00    +0.003 A 
ATOM     19  C   UNL     1       4.918  -2.889  -3.509  0.00  0.00    +0.021 A 
ATOM     20  C   UNL     1       4.933  -3.640  -2.350  0.00  0.00    +0.054 A 
ATOM     21 CL   UNL     1       5.012  -5.372  -2.437  0.00  0.00    -0.083 Cl
ATOM     22 CL   UNL     1       4.761  -0.805   0.490  0.00  0.00    -0.083 Cl
ENDBRANCH  11  15
BRANCH   1  24
ATOM     23  N   UNL     1       0.366  -1.747   2.417  0.00  0.00    -0.312 N 
ATOM     24  C   UNL     1       1.409  -2.233   1.713  0.00  0.00    +0.218 C 
ATOM     25  O   UNL     1       2.259  -1.478   1.291  0.00  0.00    -0.275 OA
ATOM     26  H   UNL     1      -0.314  -2.350   2.754  0.00  0.00    +0.149 HD
BRANCH  23  27
ATOM     27  C   UNL     1       0.261  -0.308   2.671  0.00  0.00    +0.148 C 
BRANCH  27  29
ATOM     28  C   UNL     1      -1.113   1.478   3.749  0.00  0.00    +0.053 C 
ATOM     29  C   UNL     1      -1.004  -0.025   3.484  0.00  0.00    +0.187 C 
BRANCH  29  30
ATOM     30  O   UNL     1      -2.149  -0.464   2.751  0.00  0.00    -0.486 OA
BRANCH  30  31
ATOM     31  C   UNL     1      -3.258  -0.781   3.471  0.00  0.00    +0.139 A 
ATOM     32  C   UNL     1      -3.280  -0.569   4.841  0.00  0.00    +0.047 A 
ATOM     33  C   UNL     1      -4.408  -0.892   5.571  0.00  0.00    +0.004 A 
ATOM     34  C   UNL     1      -5.514  -1.427   4.936  0.00  0.00    +0.002 A 
ATOM     35  C   UNL     1      -5.495  -1.640   3.570  0.00  0.00    +0.023 A 
ATOM     36  C   UNL     1      -4.371  -1.313   2.835  0.00  0.00    +0.083 A 
ATOM     37 CL   UNL     1      -4.349  -1.574   1.119  0.00  0.00    -0.080 Cl
ENDBRANCH  30  31
ENDBRANCH  29  30
ENDBRANCH  27  29
ENDBRANCH  23  27
ENDBRANCH   1  24
TORSDOF 6
