REMARK  Name = ZINC08868831
REMARK  9 active torsions:
REMARK  status: ('A' for Active; 'I' for Inactive)
REMARK    1  A    between atoms: C_1  and  C_2
REMARK    2  A    between atoms: C_5  and  S_8
REMARK    3  A    between atoms: S_8  and  N_11
REMARK    4  A    between atoms: C_15  and  C_17
REMARK    5  A    between atoms: N_19  and  C_20
REMARK    6  A    between atoms: C_20  and  C_21
REMARK    7  A    between atoms: C_21  and  N_60
REMARK    8  A    between atoms: C_22  and  N_60
REMARK    9  A    between atoms: C_23  and  N_60
REMARK                            x       y       z     vdW  Elec       q    Type
REMARK                         _______ _______ _______ _____ _____    ______ ____
ROOT
ATOM      1  C   UNL     1       1.993  -4.875   0.001  0.00  0.00    +0.240 C 
ATOM      2  O   UNL     1       1.074  -4.553  -0.722  0.00  0.00    -0.273 OA
ATOM      3  N   UNL     1       2.689  -3.933   0.666  0.00  0.00    -0.251 N 
ATOM      4  C   UNL     1       2.297  -2.605   0.600  0.00  0.00    +0.168 A 
ATOM      5  N   UNL     1       1.287  -2.077  -0.051  0.00  0.00    -0.223 NA
ATOM      6  C   UNL     1       1.021  -0.753  -0.027  0.00  0.00    +0.099 A 
ATOM      7  C   UNL     1       1.902   0.035   0.748  0.00  0.00    +0.042 A 
ATOM      8  S   UNL     1       3.038  -1.177   1.378  0.00  0.00    -0.052 S 
ATOM      9  C   UNL     1       1.765   1.395   0.873  0.00  0.00    +0.017 A 
ATOM     10  C   UNL     1       0.729   2.040   0.223  0.00  0.00    +0.003 A 
ATOM     11  C   UNL     1      -0.156   1.299  -0.547  0.00  0.00    +0.022 A 
ATOM     12  C   UNL     1      -0.028  -0.061  -0.677  0.00  0.00    +0.067 A 
ATOM     13 CL   UNL     1      -1.163  -0.941  -1.652  0.00  0.00    -0.081 Cl
ENDROOT
BRANCH   1  18
ATOM     14  N   UNL     1       1.147  -7.160   0.060  0.00  0.00    -0.165 NA
ATOM     15  C   UNL     1       1.281  -8.062  -1.099  0.00  0.00    +0.110 C 
ATOM     16  C   UNL     1       2.808  -8.194  -1.323  0.00  0.00    +0.019 C 
ATOM     17  C   UNL     1       3.297  -6.759  -0.991  0.00  0.00    +0.031 C 
ATOM     18  C   UNL     1       2.356  -6.330   0.154  0.00  0.00    +0.166 C 
BRANCH  14  19
ATOM     19  S   UNL     1      -0.152  -7.094   1.085  0.00  0.00    +0.062 S 
ATOM     20  O   UNL     1      -0.796  -8.358   1.007  0.00  0.00    -0.153 OA
ATOM     21  O   UNL     1       0.326  -6.556   2.311  0.00  0.00    -0.153 OA
BRANCH  19  26
ATOM     22  C   UNL     1      -4.015  -3.051  -1.182  0.00  0.00    +0.044 C 
ATOM     23  C   UNL     1      -3.050  -4.061  -0.616  0.00  0.00    -0.050 A 
ATOM     24  C   UNL     1      -3.146  -5.390  -0.983  0.00  0.00    +0.005 A 
ATOM     25  C   UNL     1      -2.261  -6.316  -0.464  0.00  0.00    +0.029 A 
ATOM     26  C   UNL     1      -1.280  -5.913   0.423  0.00  0.00    +0.106 A 
ATOM     27  C   UNL     1      -1.187  -4.585   0.794  0.00  0.00    +0.029 A 
ATOM     28  C   UNL     1      -2.068  -3.658   0.270  0.00  0.00    +0.005 A 
ENDBRANCH  19  26
ENDBRANCH  14  19
ENDBRANCH   1  18
BRANCH   3  29
ATOM     29  C   UNL     1       3.861  -4.311   1.460  0.00  0.00    +0.097 C 
BRANCH  29  30
ATOM     30  C   UNL     1       3.436  -4.567   2.907  0.00  0.00    -0.060 C 
BRANCH  30  33
ATOM     31  C   UNL     1       4.291  -4.969   5.136  0.00  0.00    -0.097 C 
ATOM     32  C   UNL     1       5.148  -6.241   3.263  0.00  0.00    -0.097 C 
ATOM     33  N   UNL     1       4.631  -4.927   3.699  0.00  0.00    +0.377 N 
ATOM     34  H   UNL     1       5.357  -4.216   3.549  0.00  0.00    -0.083 HD
ENDBRANCH  30  33
ENDBRANCH  29  30
ENDBRANCH   3  29
TORSDOF 6
