REMARK  Name = ZINC45800374
REMARK  12 active torsions:
REMARK  status: ('A' for Active; 'I' for Inactive)
REMARK    1  A    between atoms: C_1  and  C_2
REMARK    2  A    between atoms: C_2  and  C_3
REMARK    3  A    between atoms: C_3  and  C_5
REMARK    4  A    between atoms: C_3  and  C_6
REMARK    5  A    between atoms: C_6  and  C_7
REMARK    6  A    between atoms: C_8  and  C_35
REMARK    7  A    between atoms: C_16  and  S_18
REMARK    8  A    between atoms: S_18  and  C_19
REMARK    9  A    between atoms: C_19  and  C_20
REMARK   10  A    between atoms: C_23  and  C_25
REMARK   11  A    between atoms: N_27  and  C_28
REMARK   12  A    between atoms: C_31  and  C_34
REMARK                            x       y       z     vdW  Elec       q    Type
REMARK                         _______ _______ _______ _____ _____    ______ ____
ROOT
ATOM      1  S   UNL     1       6.930  -3.961  -3.587  0.00  0.00    -0.081 S 
ENDROOT
BRANCH   1  11
ATOM      2  C   UNL     1       1.249  -2.488  -2.583  0.00  0.00    -0.023 A 
ATOM      3  C   UNL     1       0.476  -2.620  -3.671  0.00  0.00    -0.007 A 
ATOM      4  S   UNL     1       1.610  -3.205  -4.916  0.00  0.00    -0.073 S 
ATOM      5  C   UNL     1       3.090  -3.256  -3.939  0.00  0.00    +0.117 A 
ATOM      6  C   UNL     1       2.663  -2.810  -2.674  0.00  0.00    +0.075 A 
ATOM      7  C   UNL     1       3.673  -2.744  -1.663  0.00  0.00    +0.261 A 
ATOM      8  O   UNL     1       3.394  -2.374  -0.535  0.00  0.00    -0.267 OA
ATOM      9  N   UNL     1       4.934  -3.095  -1.973  0.00  0.00    -0.301 N 
ATOM     10  H   UNL     1       5.622  -3.052  -1.290  0.00  0.00    +0.171 HD
ATOM     11  C   UNL     1       5.264  -3.512  -3.230  0.00  0.00    +0.170 A 
ATOM     12  N   UNL     1       4.352  -3.592  -4.177  0.00  0.00    -0.216 NA
ATOM     13  C   UNL     1      -0.999  -2.342  -3.808  0.00  0.00    +0.052 C 
BRANCH   2  14
ATOM     14  C   UNL     1       0.659  -2.005  -1.283  0.00  0.00    +0.040 C 
BRANCH  14  15
ATOM     15  C   UNL     1       0.745  -0.479  -1.220  0.00  0.00    -0.010 C 
ATOM     16  C   UNL     1       2.214  -0.053  -1.181  0.00  0.00    +0.008 C 
BRANCH  15  18
ATOM     17  C   UNL     1       0.013   1.550   0.041  0.00  0.00    +0.004 C 
ATOM     18  C   UNL     1       0.036   0.020   0.040  0.00  0.00    +0.000 C 
ENDBRANCH  15  18
ENDBRANCH  14  15
ENDBRANCH   2  14
ENDBRANCH   1  11
BRANCH   1  19
ATOM     19  C   UNL     1       6.891  -4.436  -5.338  0.00  0.00    +0.142 C 
BRANCH  19  20
ATOM     20  C   UNL     1       8.272  -4.848  -5.777  0.00  0.00    +0.113 A 
ATOM     21  N   UNL     1       8.826  -6.044  -5.758  0.00  0.00    -0.145 NA
ATOM     22  N   UNL     1      10.007  -6.242  -6.163  0.00  0.00    -0.136 NA
ATOM     23  C   UNL     1      10.707  -5.209  -6.623  0.00  0.00    +0.187 A 
ATOM     24  S   UNL     1       9.505  -3.901  -6.429  0.00  0.00    -0.045 S 
BRANCH  23  25
ATOM     25  C   UNL     1      12.082  -5.158  -7.148  0.00  0.00    +0.275 C 
ATOM     26  O   UNL     1      12.550  -4.101  -7.525  0.00  0.00    -0.268 OA
ATOM     27  N   UNL     1      12.821  -6.284  -7.212  0.00  0.00    -0.280 N 
ATOM     28  H   UNL     1      12.473  -7.114  -6.850  0.00  0.00    +0.155 HD
BRANCH  27  29
ATOM     29  C   UNL     1      14.089  -6.255  -7.799  0.00  0.00    +0.034 A 
ATOM     30  C   UNL     1      14.546  -7.348  -8.525  0.00  0.00    +0.023 A 
ATOM     31  C   UNL     1      15.799  -7.316  -9.104  0.00  0.00    +0.005 A 
ATOM     32  C   UNL     1      16.599  -6.197  -8.962  0.00  0.00    -0.050 A 
ATOM     33  C   UNL     1      16.148  -5.107  -8.240  0.00  0.00    +0.005 A 
ATOM     34  C   UNL     1      14.894  -5.131  -7.663  0.00  0.00    +0.023 A 
ATOM     35  C   UNL     1      17.967  -6.166  -9.595  0.00  0.00    +0.044 C 
ENDBRANCH  27  29
ENDBRANCH  23  25
ENDBRANCH  19  20
ENDBRANCH   1  19
TORSDOF 8
