REMARK  Name = ZINC21577612
REMARK  10 active torsions:
REMARK  status: ('A' for Active; 'I' for Inactive)
REMARK    1  A    between atoms: C_1  and  C_2
REMARK    2  A    between atoms: C_5  and  S_8
REMARK    3  A    between atoms: S_8  and  N_11
REMARK    4  A    between atoms: N_14  and  C_17
REMARK    5  A    between atoms: C_18  and  N_24
REMARK    6  A    between atoms: N_24  and  C_25
REMARK    7  A    between atoms: C_25  and  N_27
REMARK    8  A    between atoms: C_28  and  C_30
REMARK    9  A    between atoms: C_30  and  C_31
REMARK   10  A    between atoms: C_30  and  C_32
REMARK                            x       y       z     vdW  Elec       q    Type
REMARK                         _______ _______ _______ _____ _____    ______ ____
ROOT
ATOM      1  C   UNL     1       2.345   1.396  -0.259  0.00  0.00    +0.070 A 
ATOM      2  C   UNL     1       1.166   2.088   0.014  0.00  0.00    +0.055 A 
ATOM      3  C   UNL     1       0.003   1.387   0.290  0.00  0.00    +0.025 A 
ATOM      4  C   UNL     1       0.013   0.004   0.294  0.00  0.00    +0.003 A 
ATOM      5  C   UNL     1       1.181  -0.683   0.024  0.00  0.00    +0.022 A 
ATOM      6  C   UNL     1       2.347   0.008  -0.253  0.00  0.00    +0.064 A 
ATOM      7 CL   UNL     1       3.812  -0.860  -0.593  0.00  0.00    -0.082 Cl
ENDROOT
BRANCH   1  11
ATOM      8  N   UNL     1       6.186   2.587  -1.201  0.00  0.00    -0.174 NA
ATOM      9  C   UNL     1       5.779   2.693   0.208  0.00  0.00    +0.128 C 
ATOM     10  C   UNL     1       4.573   1.775   0.437  0.00  0.00    +0.122 C 
ATOM     11  N   UNL     1       3.523   2.098  -0.539  0.00  0.00    -0.325 N 
ATOM     12  C   UNL     1       3.976   1.843  -1.913  0.00  0.00    +0.122 C 
ATOM     13  C   UNL     1       5.157   2.763  -2.238  0.00  0.00    +0.128 C 
BRANCH   8  14
ATOM     14  S   UNL     1       7.760   2.277  -1.611  0.00  0.00    +0.061 S 
ATOM     15  O   UNL     1       7.943   2.777  -2.928  0.00  0.00    -0.153 OA
ATOM     16  O   UNL     1       8.557   2.707  -0.515  0.00  0.00    -0.153 OA
BRANCH  14  21
ATOM     17  C   UNL     1       8.372  -3.717  -1.940  0.00  0.00    +0.044 C 
ATOM     18  C   UNL     1       8.220  -2.220  -1.858  0.00  0.00    -0.050 A 
ATOM     19  C   UNL     1       7.854  -1.500  -2.979  0.00  0.00    +0.005 A 
ATOM     20  C   UNL     1       7.714  -0.126  -2.904  0.00  0.00    +0.029 A 
ATOM     21  C   UNL     1       7.939   0.527  -1.707  0.00  0.00    +0.105 A 
ATOM     22  C   UNL     1       8.309  -0.193  -0.586  0.00  0.00    +0.029 A 
ATOM     23  C   UNL     1       8.445  -1.567  -0.660  0.00  0.00    +0.005 A 
ENDBRANCH  14  21
ENDBRANCH   8  14
ENDBRANCH   1  11
BRANCH   2  24
ATOM     24  N   UNL     1       1.157   3.490   0.009  0.00  0.00    -0.295 N 
ATOM     25  H   UNL     1       1.942   4.047   0.542  0.00  0.00    +0.154 HD
BRANCH  24  26
ATOM     26  C   UNL     1       0.186   4.155  -0.648  0.00  0.00    +0.141 C 
ATOM     27  S   UNL     1      -1.096   3.292  -1.383  0.00  0.00    -0.018 S 
BRANCH  26  28
ATOM     28  N   UNL     1       0.226   5.500  -0.726  0.00  0.00    -0.267 N 
ATOM     29  C   UNL     1      -0.745   6.165  -1.383  0.00  0.00    +0.221 C 
ATOM     30  O   UNL     1      -1.653   5.554  -1.904  0.00  0.00    -0.275 OA
ATOM     31  H   UNL     1       1.050   6.055  -0.254  0.00  0.00    +0.157 HD
BRANCH  29  32
ATOM     32  C   UNL     1      -0.701   7.669  -1.470  0.00  0.00    +0.069 C 
ATOM     33  C   UNL     1      -1.910   8.169  -2.264  0.00  0.00    +0.017 C 
ATOM     34  C   UNL     1      -0.735   8.263  -0.061  0.00  0.00    +0.017 C 
ENDBRANCH  29  32
ENDBRANCH  26  28
ENDBRANCH  24  26
ENDBRANCH   2  24
TORSDOF 7
