REMARK  Name = ZINC38684674
REMARK  16 active torsions:
REMARK  status: ('A' for Active; 'I' for Inactive)
REMARK    1  A    between atoms: C_1  and  C_2
REMARK    2  A    between atoms: C_2  and  C_3
REMARK    3  A    between atoms: C_3  and  O_4
REMARK    4  A    between atoms: O_4  and  C_5
REMARK    5  A    between atoms: C_8  and  C_11
REMARK    6  A    between atoms: C_11  and  O_13
REMARK    7  A    between atoms: O_13  and  C_14
REMARK    8  A    between atoms: C_21  and  N_39
REMARK    9  A    between atoms: C_22  and  C_37
REMARK   10  A    between atoms: C_23  and  C_25
REMARK   11  A    between atoms: C_29  and  O_31
REMARK   12  A    between atoms: O_31  and  C_32
REMARK   13  A    between atoms: C_32  and  C_33
REMARK   14  A    between atoms: C_33  and  C_34
REMARK   15  A    between atoms: C_34  and  C_35
REMARK   16  A    between atoms: C_34  and  C_36
REMARK                            x       y       z     vdW  Elec       q    Type
REMARK                         _______ _______ _______ _____ _____    ______ ____
ROOT
ATOM      1  C   UNL     1       3.934  -6.225  -6.788  0.00  0.00    +0.135 A 
ATOM      2  C   UNL     1       4.523  -5.338  -7.678  0.00  0.00    +0.047 A 
ATOM      3  C   UNL     1       5.194  -5.815  -8.787  0.00  0.00    +0.012 A 
ATOM      4  C   UNL     1       5.283  -7.177  -9.015  0.00  0.00    +0.008 A 
ATOM      5  C   UNL     1       4.697  -8.068  -8.130  0.00  0.00    +0.138 A 
ATOM      6  C   UNL     1       4.026  -7.590  -7.012  0.00  0.00    +0.093 A 
ATOM      7  O   UNL     1       4.774  -9.405  -8.337  0.00  0.00    -0.441 OA
ATOM      8  C   UNL     1       5.714  -9.905  -9.156  0.00  0.00    +0.199 C 
ATOM      9  C   UNL     1       6.344  -9.136 -10.076  0.00  0.00    +0.098 C 
ATOM     10  C   UNL     1       6.019  -7.677 -10.230  0.00  0.00    +0.098 C 
ENDROOT
BRANCH  10  11
ATOM     11  C   UNL     1       5.158  -7.483 -11.451  0.00  0.00    -0.031 A 
ATOM     12  C   UNL     1       3.920  -8.094 -11.527  0.00  0.00    +0.005 A 
ATOM     13  C   UNL     1       3.127  -7.919 -12.645  0.00  0.00    +0.004 A 
ATOM     14  C   UNL     1       3.570  -7.132 -13.691  0.00  0.00    +0.045 A 
ATOM     15  C   UNL     1       4.812  -6.517 -13.617  0.00  0.00    +0.121 A 
ATOM     16  C   UNL     1       5.603  -6.691 -12.491  0.00  0.00    +0.050 A 
BRANCH  15  17
ATOM     17  O   UNL     1       5.250  -5.743 -14.644  0.00  0.00    -0.492 OA
BRANCH  17  18
ATOM     18  C   UNL     1       4.380  -5.605 -15.770  0.00  0.00    +0.229 C 
BRANCH  18  19
ATOM     19  C   UNL     1       5.039  -4.704 -16.816  0.00  0.00    +0.044 C 
BRANCH  19  20
ATOM     20  C   UNL     1       4.107  -4.556 -18.021  0.00  0.00    -0.014 C 
ATOM     21  C   UNL     1       2.836  -3.819 -17.595  0.00  0.00    +0.007 C 
ATOM     22  C   UNL     1       4.816  -3.759 -19.118  0.00  0.00    +0.007 C 
ENDBRANCH  19  20
ENDBRANCH  18  19
ENDBRANCH  17  18
ENDBRANCH  15  17
ENDBRANCH  10  11
BRANCH   8  23
ATOM     23  N   UNL     1       6.047 -11.232  -9.057  0.00  0.00    -0.328 N 
ATOM     24  H   UNL     1       5.605 -11.796  -8.402  0.00  0.00    +0.145 HD
ATOM     25  H   UNL     1       6.724 -11.608  -9.641  0.00  0.00    +0.145 HD
ENDBRANCH   8  23
BRANCH   9  26
ATOM     26  C   UNL     1       7.339  -9.727 -10.920  0.00  0.00    +0.101 C 
ATOM     27  N   UNL     1       8.128 -10.195 -11.590  0.00  0.00    -0.191 NA
ENDBRANCH   9  26
BRANCH   1  28
ATOM     28  O   UNL     1       3.274  -5.757  -5.697  0.00  0.00    -0.422 OA
BRANCH  28  29
ATOM     29  C   UNL     1       3.896  -5.825  -4.503  0.00  0.00    +0.344 C 
ATOM     30  O   UNL     1       4.976  -6.375  -4.412  0.00  0.00    -0.245 OA
BRANCH  29  34
ATOM     31  C   UNL     1       2.085  -4.119  -1.064  0.00  0.00    +0.121 A 
ATOM     32  C   UNL     1       3.320  -4.747  -0.957  0.00  0.00    +0.046 A 
ATOM     33  C   UNL     1       3.911  -5.303  -2.070  0.00  0.00    +0.018 A 
ATOM     34  C   UNL     1       3.267  -5.233  -3.309  0.00  0.00    +0.060 A 
ATOM     35  C   UNL     1       2.025  -4.599  -3.412  0.00  0.00    +0.018 A 
ATOM     36  C   UNL     1       1.438  -4.052  -2.293  0.00  0.00    +0.046 A 
BRANCH  31  37
ATOM     37  O   UNL     1       1.506  -3.573   0.035  0.00  0.00    -0.492 OA
BRANCH  37  38
ATOM     38  C   UNL     1       2.224  -3.677   1.266  0.00  0.00    +0.229 C 
BRANCH  38  40
ATOM     39  C   UNL     1       2.190  -3.120   3.701  0.00  0.00    +0.007 C 
ATOM     40  C   UNL     1       1.420  -3.009   2.384  0.00  0.00    +0.038 C 
ENDBRANCH  38  40
ENDBRANCH  37  38
ENDBRANCH  31  37
ENDBRANCH  29  34
ENDBRANCH  28  29
ENDBRANCH   1  28
TORSDOF 13
