REMARK  Name = ZINC19941075
REMARK  13 active torsions:
REMARK  status: ('A' for Active; 'I' for Inactive)
REMARK    1  A    between atoms: C_1  and  C_2
REMARK    2  A    between atoms: C_2  and  C_3
REMARK    3  A    between atoms: C_6  and  N_9
REMARK    4  A    between atoms: N_9  and  C_10
REMARK    5  A    between atoms: C_10  and  C_12
REMARK    6  A    between atoms: C_10  and  C_17
REMARK    7  A    between atoms: N_19  and  C_20
REMARK    8  A    between atoms: C_20  and  C_21
REMARK    9  A    between atoms: C_20  and  C_22
REMARK   10  A    between atoms: C_20  and  C_23
REMARK   11  A    between atoms: C_24  and  C_26
REMARK   12  A    between atoms: C_29  and  C_31
REMARK   13  A    between atoms: C_31  and  N_32
REMARK                            x       y       z     vdW  Elec       q    Type
REMARK                         _______ _______ _______ _____ _____    ______ ____
ROOT
ATOM      1  N   UNL     1      -1.865   4.044   5.675  0.00  0.00    -0.248 N 
ATOM      2  C   UNL     1      -2.804   3.093   5.500  0.00  0.00    +0.287 C 
ATOM      3  O   UNL     1      -2.702   2.297   4.585  0.00  0.00    -0.266 OA
ENDROOT
BRANCH   1   7
ATOM      4  C   UNL     1       1.165   4.521   2.857  0.00  0.00    -0.048 A 
ATOM      5  C   UNL     1       1.032   5.432   3.889  0.00  0.00    +0.005 A 
ATOM      6  C   UNL     1       0.026   5.280   4.821  0.00  0.00    +0.024 A 
ATOM      7  C   UNL     1      -0.848   4.204   4.729  0.00  0.00    +0.038 A 
ATOM      8  C   UNL     1      -0.708   3.287   3.695  0.00  0.00    +0.024 A 
ATOM      9  C   UNL     1       0.297   3.448   2.762  0.00  0.00    +0.005 A 
BRANCH   4  11
ATOM     10  C   UNL     1       1.745   5.541   0.673  0.00  0.00    +0.009 C 
ATOM     11  C   UNL     1       2.261   4.693   1.837  0.00  0.00    +0.032 C 
ENDBRANCH   4  11
ENDBRANCH   1   7
BRANCH   2  12
ATOM     12  C   UNL     1      -3.950   3.017   6.413  0.00  0.00    +0.190 A 
ATOM     13  C   UNL     1      -4.891   2.029   6.438  0.00  0.00    +0.055 A 
ATOM     14  C   UNL     1      -5.793   2.357   7.462  0.00  0.00    +0.047 A 
ATOM     15  C   UNL     1      -5.369   3.517   8.009  0.00  0.00    +0.120 A 
ATOM     16  O   UNL     1      -4.254   3.909   7.378  0.00  0.00    -0.454 OA
BRANCH  15  17
ATOM     17  C   UNL     1      -6.035   4.247   9.147  0.00  0.00    +0.159 C 
BRANCH  17  18
ATOM     18  N   UNL     1      -5.391   3.873  10.413  0.00  0.00    -0.291 NA
ATOM     19  C   UNL     1      -5.619   2.453  10.721  0.00  0.00    +0.113 C 
ATOM     20  C   UNL     1      -4.882   2.092  12.014  0.00  0.00    +0.175 C 
ATOM     21  O   UNL     1      -5.328   2.953  13.066  0.00  0.00    -0.377 OA
ATOM     22  C   UNL     1      -5.121   4.342  12.800  0.00  0.00    +0.175 C 
ATOM     23  C   UNL     1      -5.860   4.726  11.515  0.00  0.00    +0.113 C 
ENDBRANCH  17  18
ENDBRANCH  15  17
ENDBRANCH   2  12
BRANCH   1  24
ATOM     24  C   UNL     1      -1.911   4.910   6.856  0.00  0.00    +0.204 C 
BRANCH  24  25
ATOM     25  C   UNL     1      -0.615   4.791   7.616  0.00  0.00    +0.019 A 
ATOM     26  C   UNL     1      -0.361   5.066   8.919  0.00  0.00    +0.013 A 
ATOM     27  C   UNL     1       0.919   4.879   9.406  0.00  0.00    +0.008 A 
ATOM     28  C   UNL     1       1.882   4.428   8.567  0.00  0.00    +0.045 A 
ATOM     29  S   UNL     1       0.983   4.244   7.036  0.00  0.00    -0.099 S 
ENDBRANCH  24  25
BRANCH  24  30
ATOM     30  C   UNL     1      -2.109   6.340   6.422  0.00  0.00    +0.239 C 
ATOM     31  O   UNL     1      -2.193   6.610   5.243  0.00  0.00    -0.273 OA
ATOM     32  N   UNL     1      -2.194   7.318   7.346  0.00  0.00    -0.309 N 
ATOM     33  H   UNL     1      -2.039   7.085   8.409  0.00  0.00    +0.149 HD
BRANCH  32  34
ATOM     34  C   UNL     1      -2.492   8.691   6.932  0.00  0.00    +0.026 C 
ATOM     35  C   UNL     1      -3.832   8.723   6.195  0.00  0.00    +0.031 C 
ATOM     36  C   UNL     1      -2.567   9.591   8.168  0.00  0.00    +0.031 C 
ATOM     37  C   UNL     1      -1.386   9.195   6.002  0.00  0.00    +0.031 C 
ENDBRANCH  32  34
ENDBRANCH  24  30
ENDBRANCH   1  24
TORSDOF 9
