REMARK  Name = ZINC02757920
REMARK  11 active torsions:
REMARK  status: ('A' for Active; 'I' for Inactive)
REMARK    1  A    between atoms: C_1  and  C_2
REMARK    2  A    between atoms: C_2  and  C_3
REMARK    3  A    between atoms: C_3  and  C_5
REMARK    4  A    between atoms: C_3  and  S_19
REMARK    5  A    between atoms: N_7  and  C_8
REMARK    6  A    between atoms: C_9  and  C_17
REMARK    7  A    between atoms: S_19  and  C_20
REMARK    8  A    between atoms: C_25  and  C_36
REMARK    9  A    between atoms: C_26  and  C_28
REMARK   10  A    between atoms: C_32  and  O_34
REMARK   11  A    between atoms: O_34  and  C_35
REMARK                            x       y       z     vdW  Elec       q    Type
REMARK                         _______ _______ _______ _____ _____    ______ ____
ROOT
ATOM      1  S   UNL     1       2.534   8.118  -0.013  0.00  0.00    -0.075 S 
ENDROOT
BRANCH   1   2
ATOM      2  C   UNL     1       2.894   8.828  -1.584  0.00  0.00    +0.170 A 
ATOM      3  N   UNL     1       2.342  10.029  -1.910  0.00  0.00    -0.301 N 
ATOM      4  H   UNL     1       1.760  10.480  -1.279  0.00  0.00    +0.171 HD
ATOM      5  C   UNL     1       2.601  10.595  -3.108  0.00  0.00    +0.270 A 
ATOM      6  O   UNL     1       2.111  11.671  -3.406  0.00  0.00    -0.266 OA
ATOM      7  C   UNL     1       3.456   9.913  -4.011  0.00  0.00    +0.142 A 
ATOM      8  C   UNL     1       3.994   8.675  -3.615  0.00  0.00    +0.097 A 
ATOM      9  N   UNL     1       3.686   8.178  -2.415  0.00  0.00    -0.222 NA
BRANCH   8  10
ATOM     10  C   UNL     1       4.891   7.926  -4.523  0.00  0.00    +0.005 A 
ATOM     11  C   UNL     1       4.681   6.565  -4.749  0.00  0.00    +0.010 A 
ATOM     12  C   UNL     1       5.516   5.871  -5.601  0.00  0.00    +0.004 A 
ATOM     13  C   UNL     1       6.567   6.518  -6.225  0.00  0.00    +0.045 A 
ATOM     14  C   UNL     1       6.783   7.872  -6.006  0.00  0.00    +0.121 A 
ATOM     15  C   UNL     1       5.948   8.579  -5.157  0.00  0.00    +0.055 A 
BRANCH  14  16
ATOM     16  O   UNL     1       7.814   8.504  -6.626  0.00  0.00    -0.495 OA
ATOM     17  C   UNL     1       8.635   7.714  -7.489  0.00  0.00    +0.277 C 
ENDBRANCH  14  16
ENDBRANCH   8  10
BRANCH   7  18
ATOM     18  C   UNL     1       3.764  10.470  -5.294  0.00  0.00    +0.107 C 
ATOM     19  N   UNL     1       4.008  10.912  -6.312  0.00  0.00    -0.191 NA
ENDBRANCH   7  18
ENDBRANCH   1   2
BRANCH   1  20
ATOM     20  C   UNL     1       3.616   6.668  -0.067  0.00  0.00    +0.140 C 
BRANCH  20  21
ATOM     21  C   UNL     1       5.055   7.113  -0.013  0.00  0.00    +0.231 C 
ATOM     22  O   UNL     1       5.342   8.177   0.495  0.00  0.00    -0.274 OA
ATOM     23  N   UNL     1       6.023   6.329  -0.528  0.00  0.00    -0.278 N 
ATOM     24  H   UNL     1       5.793   5.479  -0.934  0.00  0.00    +0.155 HD
BRANCH  23  25
ATOM     25  C   UNL     1       7.348   6.739  -0.478  0.00  0.00    +0.090 A 
ATOM     26  C   UNL     1       8.472   6.079  -0.950  0.00  0.00    +0.084 A 
ATOM     27  C   UNL     1       9.758   6.730  -0.772  0.00  0.00    -0.018 A 
ATOM     28  C   UNL     1       9.714   7.932  -0.155  0.00  0.00    -0.004 A 
ATOM     29  S   UNL     1       7.997   8.204   0.182  0.00  0.00    -0.077 S 
ATOM     30  C   UNL     1      10.872   8.827   0.163  0.00  0.00    +0.043 C 
ATOM     31  C   UNL     1      12.166   8.014   0.019  0.00  0.00    +0.005 C 
ATOM     32  C   UNL     1      12.125   7.252  -1.309  0.00  0.00    +0.005 C 
ATOM     33  C   UNL     1      11.082   6.135  -1.236  0.00  0.00    +0.037 C 
BRANCH  26  34
ATOM     34  C   UNL     1       8.370   4.801  -1.588  0.00  0.00    +0.102 C 
ATOM     35  N   UNL     1       8.288   3.788  -2.095  0.00  0.00    -0.191 NA
ENDBRANCH  26  34
ENDBRANCH  23  25
ENDBRANCH  20  21
BRANCH  20  37
ATOM     36  C   UNL     1       1.892   5.217   1.012  0.00  0.00    +0.005 C 
ATOM     37  C   UNL     1       3.317   5.763   1.130  0.00  0.00    +0.020 C 
ENDBRANCH  20  37
ENDBRANCH   1  20
TORSDOF 9
