REMARK  Name = ZINC24750934
REMARK  8 active torsions:
REMARK  status: ('A' for Active; 'I' for Inactive)
REMARK    1  A    between atoms: C_1  and  N_2
REMARK    2  A    between atoms: N_2  and  C_3
REMARK    3  A    between atoms: C_3  and  C_4
REMARK    4  A    between atoms: C_7  and  N_10
REMARK    5  A    between atoms: C_16  and  C_18
REMARK    6  A    between atoms: C_18  and  C_19
REMARK    7  A    between atoms: C_19  and  C_21
REMARK    8  A    between atoms: C_19  and  N_28
REMARK                            x       y       z     vdW  Elec       q    Type
REMARK                         _______ _______ _______ _____ _____    ______ ____
ROOT
ATOM      1  C   UNL     1      -1.999   3.339  -3.850  0.00  0.00    +0.132 C 
ATOM      2  N   UNL     1      -1.846   1.899  -3.623  0.00  0.00    -0.300 N 
ATOM      3  C   UNL     1      -1.641   1.431  -2.376  0.00  0.00    +0.218 C 
ATOM      4  O   UNL     1      -1.514   0.240  -2.189  0.00  0.00    -0.276 OA
ENDROOT
BRANCH   2   5
ATOM      5  C   UNL     1      -1.917   0.969  -4.752  0.00  0.00    +0.142 C 
BRANCH   5   6
ATOM      6  C   UNL     1      -3.345   0.530  -4.953  0.00  0.00    -0.030 A 
ATOM      7  C   UNL     1      -3.819  -0.594  -4.302  0.00  0.00    +0.007 A 
ATOM      8  C   UNL     1      -5.129  -0.996  -4.479  0.00  0.00    +0.023 A 
ATOM      9  C   UNL     1      -5.967  -0.275  -5.321  0.00  0.00    +0.030 A 
ATOM     10  C   UNL     1      -5.485   0.850  -5.978  0.00  0.00    +0.023 A 
ATOM     11  C   UNL     1      -4.176   1.249  -5.792  0.00  0.00    +0.007 A 
BRANCH   9  12
ATOM     12  N   UNL     1      -7.290  -0.682  -5.506  0.00  0.00    -0.330 N 
ATOM     13  C   UNL     1      -8.224   0.404  -5.183  0.00  0.00    +0.105 C 
ATOM     14  C   UNL     1      -9.650  -0.026  -5.535  0.00  0.00    +0.019 C 
ATOM     15  C   UNL     1     -10.008  -1.286  -4.742  0.00  0.00    +0.003 C 
ATOM     16  C   UNL     1      -8.992  -2.386  -5.060  0.00  0.00    +0.019 C 
ATOM     17  C   UNL     1      -7.585  -1.887  -4.722  0.00  0.00    +0.105 C 
ENDBRANCH   9  12
ENDBRANCH   5   6
ENDBRANCH   2   5
BRANCH   3  18
ATOM     18  C   UNL     1      -1.568   2.389  -1.215  0.00  0.00    +0.123 C 
BRANCH  18  19
ATOM     19  C   UNL     1      -1.329   1.605   0.078  0.00  0.00    +0.113 C 
BRANCH  19  20
ATOM     20  C   UNL     1      -1.378   2.548   1.253  0.00  0.00    -0.027 A 
ATOM     21  C   UNL     1      -0.321   3.404   1.497  0.00  0.00    +0.007 A 
ATOM     22  C   UNL     1      -0.368   4.272   2.571  0.00  0.00    +0.020 A 
ATOM     23  C   UNL     1      -1.469   4.277   3.409  0.00  0.00    +0.041 A 
ATOM     24  C   UNL     1      -2.525   3.416   3.167  0.00  0.00    +0.020 A 
ATOM     25  C   UNL     1      -2.479   2.552   2.089  0.00  0.00    +0.007 A 
ATOM     26 CL   UNL     1      -1.525   5.362   4.762  0.00  0.00    -0.084 Cl
ENDBRANCH  19  20
BRANCH  19  27
ATOM     27  N   UNL     1      -0.014   0.962   0.023  0.00  0.00    -0.292 N 
ATOM     28  C   UNL     1       0.218  -0.157   0.737  0.00  0.00    +0.298 C 
ATOM     29  O   UNL     1      -0.633  -0.584   1.493  0.00  0.00    -0.253 OA
ATOM     30  N   UNL     1       1.395  -0.803   0.613  0.00  0.00    -0.313 N 
ATOM     31  H   UNL     1       0.783   1.392  -0.601  0.00  0.00    +0.151 HD
ATOM     32  H   UNL     1       1.585  -1.716   1.196  0.00  0.00    +0.146 HD
ATOM     33  H   UNL     1       2.165  -0.417  -0.070  0.00  0.00    +0.146 HD
ENDBRANCH  19  27
ENDBRANCH  18  19
ENDBRANCH   3  18
TORSDOF 7
