REMARK  Name = ZINC05583668
REMARK  2 active torsions:
REMARK  status: ('A' for Active; 'I' for Inactive)
REMARK    1  A    between atoms: C_5  and  C_7
REMARK    2  A    between atoms: N_9  and  N_10
REMARK                            x       y       z     vdW  Elec       q    Type
REMARK                         _______ _______ _______ _____ _____    ______ ____
ROOT
ATOM      1  N   UNL     1      -2.445  -2.832   0.009  0.00  0.00    -0.147 N 
ATOM      2  C   UNL     1      -3.138  -2.907   1.164  0.00  0.00    +0.270 C 
ATOM      3  O   UNL     1      -2.716  -2.358   2.163  0.00  0.00    -0.268 OA
ATOM      4  C   UNL     1      -4.404  -3.649   1.214  0.00  0.00    +0.047 A 
ATOM      5  C   UNL     1      -5.193  -3.781   2.347  0.00  0.00    +0.014 A 
ATOM      6  C   UNL     1      -6.387  -4.506   2.319  0.00  0.00    +0.005 A 
ATOM      7  C   UNL     1      -6.822  -5.113   1.175  0.00  0.00    -0.039 A 
ATOM      8  C   UNL     1      -6.039  -4.987   0.031  0.00  0.00    -0.010 A 
ATOM      9  C   UNL     1      -4.844  -4.271   0.024  0.00  0.00    +0.007 A 
ATOM     10  C   UNL     1      -4.099  -4.183  -1.173  0.00  0.00    +0.047 A 
ATOM     11  C   UNL     1      -4.598  -4.821  -2.299  0.00  0.00    +0.014 A 
ATOM     12  C   UNL     1      -5.799  -5.532  -2.256  0.00  0.00    +0.005 A 
ATOM     13  C   UNL     1      -6.529  -5.624  -1.105  0.00  0.00    -0.039 A 
ATOM     14  C   UNL     1      -7.826  -6.284  -0.706  0.00  0.00    +0.040 C 
ATOM     15  C   UNL     1      -8.018  -5.949   0.791  0.00  0.00    +0.040 C 
ATOM     16  C   UNL     1      -2.846  -3.417  -1.138  0.00  0.00    +0.270 C 
ATOM     17  O   UNL     1      -2.169  -3.312  -2.143  0.00  0.00    -0.268 OA
ENDROOT
BRANCH   1  20
ATOM     18  C   UNL     1      -1.265  -0.764   0.010  0.00  0.00    +0.262 C 
ATOM     19  O   UNL     1      -2.328  -0.173   0.022  0.00  0.00    -0.269 OA
ATOM     20  N   UNL     1      -1.244  -2.111   0.002  0.00  0.00    -0.220 N 
ATOM     21  H   UNL     1      -0.396  -2.583  -0.008  0.00  0.00    +0.174 HD
BRANCH  18  26
ATOM     22  C   UNL     1       2.403   0.036  -0.021  0.00  0.00    +0.001 A 
ATOM     23  C   UNL     1       2.378   1.420  -0.013  0.00  0.00    +0.001 A 
ATOM     24  C   UNL     1       1.172   2.096   0.002  0.00  0.00    +0.021 A 
ATOM     25  C   UNL     1      -0.017   1.393   0.010  0.00  0.00    +0.053 A 
ATOM     26  C   UNL     1       0.002  -0.004   0.002  0.00  0.00    +0.056 A 
ATOM     27  C   UNL     1       1.224  -0.679  -0.013  0.00  0.00    +0.014 A 
ATOM     28 CL   UNL     1      -1.530   2.243   0.021  0.00  0.00    -0.083 Cl
ENDBRANCH  18  26
ENDBRANCH   1  20
TORSDOF 2
