REMARK  Name = ZINC10072776
REMARK  10 active torsions:
REMARK  status: ('A' for Active; 'I' for Inactive)
REMARK    1  A    between atoms: C_1  and  C_2
REMARK    2  A    between atoms: N_11  and  C_15
REMARK    3  A    between atoms: C_15  and  C_16
REMARK    4  A    between atoms: C_16  and  O_18
REMARK    5  A    between atoms: O_18  and  C_19
REMARK    6  A    between atoms: C_19  and  C_20
REMARK    7  A    between atoms: C_20  and  C_22
REMARK    8  A    between atoms: C_24  and  C_33
REMARK    9  A    between atoms: C_24  and  C_34
REMARK   10  A    between atoms: N_31  and  C_32
REMARK                            x       y       z     vdW  Elec       q    Type
REMARK                         _______ _______ _______ _____ _____    ______ ____
ROOT
ATOM      1  C   UNL     1      -4.713   5.647   2.054  0.00  0.00    +0.326 C 
ATOM      2  O   UNL     1      -3.820   4.858   1.856  0.00  0.00    -0.249 OA
ENDROOT
BRANCH   1   3
ATOM      3  C   UNL     1      -5.364   5.723   3.412  0.00  0.00    +0.238 C 
BRANCH   3  13
ATOM      4  C   UNL     1      -4.935   4.415   7.651  0.00  0.00    +0.010 C 
ATOM      5  C   UNL     1      -3.522   3.925   7.329  0.00  0.00    +0.018 C 
ATOM      6  C   UNL     1      -3.264   2.601   8.053  0.00  0.00    +0.006 C 
ATOM      7  C   UNL     1      -1.859   2.101   7.714  0.00  0.00    +0.000 C 
ATOM      8  C   UNL     1      -1.744   1.878   6.205  0.00  0.00    +0.003 C 
ATOM      9  C   UNL     1      -1.995   3.200   5.475  0.00  0.00    +0.035 C 
ATOM     10  C   UNL     1      -3.386   3.718   5.825  0.00  0.00    +0.115 C 
ATOM     11  C   UNL     1      -3.671   5.006   5.087  0.00  0.00    +0.247 C 
ATOM     12  O   UNL     1      -3.064   6.052   5.176  0.00  0.00    -0.273 OA
ATOM     13  N   UNL     1      -4.741   4.745   4.307  0.00  0.00    -0.213 N 
ATOM     14  C   UNL     1      -5.159   3.482   4.450  0.00  0.00    +0.310 C 
ATOM     15  O   UNL     1      -6.104   3.011   3.849  0.00  0.00    -0.252 OA
ATOM     16  N   UNL     1      -4.417   2.792   5.338  0.00  0.00    -0.285 N 
ATOM     17  H   UNL     1      -4.537   1.866   5.601  0.00  0.00    +0.151 HD
ENDBRANCH   3  13
ENDBRANCH   1   3
BRANCH   1  18
ATOM     18  O   UNL     1      -5.126   6.457   1.066  0.00  0.00    -0.455 OA
BRANCH  18  19
ATOM     19  C   UNL     1      -4.454   6.329  -0.214  0.00  0.00    +0.311 C 
BRANCH  19  20
ATOM     20  C   UNL     1      -5.046   7.310  -1.193  0.00  0.00    +0.195 C 
ATOM     21  O   UNL     1      -5.948   8.046  -0.844  0.00  0.00    -0.289 OA
BRANCH  20  22
ATOM     22  C   UNL     1      -4.557   7.374  -2.505  0.00  0.00    +0.069 C 
ATOM     23  C   UNL     1      -5.192   8.136  -3.429  0.00  0.00    +0.024 C 
ATOM     24  C   UNL     1      -6.388   9.033  -3.190  0.00  0.00    +0.030 C 
ATOM     25  C   UNL     1      -6.674   9.637  -4.546  0.00  0.00    -0.015 A 
ATOM     26  C   UNL     1      -7.626  10.528  -4.988  0.00  0.00    +0.006 A 
ATOM     27  C   UNL     1      -7.653  10.906  -6.319  0.00  0.00    +0.000 A 
ATOM     28  C   UNL     1      -6.723  10.387  -7.201  0.00  0.00    +0.002 A 
ATOM     29  C   UNL     1      -5.767   9.495  -6.761  0.00  0.00    +0.024 A 
ATOM     30  C   UNL     1      -5.733   9.109  -5.421  0.00  0.00    +0.038 A 
ATOM     31  N   UNL     1      -4.880   8.236  -4.749  0.00  0.00    -0.305 N 
ATOM     32  C   UNL     1      -3.777   7.514  -5.388  0.00  0.00    +0.135 C 
ATOM     33  C   UNL     1      -7.584   8.212  -2.703  0.00  0.00    +0.022 C 
ATOM     34  C   UNL     1      -6.042  10.129  -2.181  0.00  0.00    +0.022 C 
ENDBRANCH  20  22
ENDBRANCH  19  20
ENDBRANCH  18  19
ENDBRANCH   1  18
TORSDOF 6
