REMARK  Name = ZINC21755422
REMARK  11 active torsions:
REMARK  status: ('A' for Active; 'I' for Inactive)
REMARK    1  A    between atoms: C_1  and  C_2
REMARK    2  A    between atoms: C_5  and  N_34
REMARK    3  A    between atoms: C_7  and  S_8
REMARK    4  A    between atoms: S_8  and  N_11
REMARK    5  A    between atoms: N_11  and  C_12
REMARK    6  A    between atoms: C_12  and  C_13
REMARK    7  A    between atoms: C_13  and  C_15
REMARK    8  A    between atoms: C_13  and  N_24
REMARK    9  A    between atoms: C_18  and  N_21
REMARK   10  A    between atoms: N_21  and  C_22
REMARK   11  A    between atoms: N_21  and  C_23
REMARK                            x       y       z     vdW  Elec       q    Type
REMARK                         _______ _______ _______ _____ _____    ______ ____
ROOT
ATOM      1  C   UNL     1      -0.310   0.541  -0.510  0.00  0.00    -0.021 C 
ENDROOT
BRANCH   1   2
ATOM      2  N   UNL     1      -1.242   1.133  -1.479  0.00  0.00    +0.388 N 
ATOM      3  C   UNL     1      -1.076   0.526  -2.809  0.00  0.00    -0.073 C 
ATOM      4  C   UNL     1      -2.286   0.898  -3.667  0.00  0.00    +0.017 C 
ATOM      5  C   UNL     1      -2.521   2.386  -3.608  0.00  0.00    -0.048 A 
ATOM      6  C   UNL     1      -3.328   2.967  -4.574  0.00  0.00    +0.004 A 
ATOM      7  C   UNL     1      -3.571   4.326  -4.554  0.00  0.00    +0.000 A 
ATOM      8  C   UNL     1      -3.008   5.111  -3.565  0.00  0.00    +0.000 A 
ATOM      9  C   UNL     1      -2.204   4.534  -2.604  0.00  0.00    +0.002 A 
ATOM     10  C   UNL     1      -1.956   3.169  -2.624  0.00  0.00    -0.061 A 
ATOM     11  C   UNL     1      -1.065   2.586  -1.558  0.00  0.00    -0.042 C 
ATOM     12  H   UNL     1      -2.264   0.929  -1.126  0.00  0.00    -0.080 HD
ENDBRANCH   1   2
BRANCH   1  13
ATOM     13  C   UNL     1       1.105   0.879  -0.903  0.00  0.00    -0.060 A 
ATOM     14  C   UNL     1       1.596   2.153  -0.682  0.00  0.00    +0.004 A 
ATOM     15  C   UNL     1       2.894   2.465  -1.036  0.00  0.00    +0.023 A 
ATOM     16  C   UNL     1       3.703   1.501  -1.625  0.00  0.00    +0.029 A 
ATOM     17  C   UNL     1       3.204   0.225  -1.851  0.00  0.00    +0.023 A 
ATOM     18  C   UNL     1       1.907  -0.082  -1.490  0.00  0.00    +0.004 A 
BRANCH  16  19
ATOM     19  N   UNL     1       5.014   1.815  -1.990  0.00  0.00    -0.336 N 
ATOM     20  C   UNL     1       5.865   0.798  -2.612  0.00  0.00    +0.129 C 
ATOM     21  C   UNL     1       5.538   3.162  -1.751  0.00  0.00    +0.129 C 
ENDBRANCH  16  19
ENDBRANCH   1  13
BRANCH   1  22
ATOM     22  C   UNL     1      -0.600   1.100   0.884  0.00  0.00    +0.095 C 
BRANCH  22  23
ATOM     23  N   UNL     1      -2.008   0.876   1.217  0.00  0.00    -0.191 NA
ATOM     24  H   UNL     1      -2.756   0.790   0.415  0.00  0.00    +0.148 HD
BRANCH  23  25
ATOM     25  S   UNL     1      -2.517   0.998   2.788  0.00  0.00    +0.059 S 
ATOM     26  O   UNL     1      -3.915   0.743   2.783  0.00  0.00    -0.153 OA
ATOM     27  O   UNL     1      -1.607   0.237   3.570  0.00  0.00    -0.153 OA
BRANCH  25  34
ATOM     28  C   UNL     1      -4.007   3.317   1.544  0.00  0.00    +0.046 C 
ATOM     29  C   UNL     1      -3.040   3.673   2.644  0.00  0.00    -0.024 A 
ATOM     30  C   UNL     1      -2.884   4.992   3.028  0.00  0.00    +0.007 A 
ATOM     31  C   UNL     1      -1.993   5.319   4.033  0.00  0.00    +0.033 A 
ATOM     32  C   UNL     1      -1.262   4.325   4.658  0.00  0.00    +0.128 A 
ATOM     33  C   UNL     1      -1.422   3.006   4.278  0.00  0.00    +0.061 A 
ATOM     34  C   UNL     1      -2.313   2.680   3.273  0.00  0.00    +0.110 A 
BRANCH  32  35
ATOM     35  N   UNL     1      -0.307   4.675   5.734  0.00  0.00    +0.056 N 
ATOM     36  O   UNL     1       0.337   3.800   6.284  0.00  0.00    -0.126 OA
ATOM     37  O   UNL     1      -0.166   5.838   6.069  0.00  0.00    -0.126 OA
ENDBRANCH  32  35
ENDBRANCH  25  34
ENDBRANCH  23  25
ENDBRANCH  22  23
ENDBRANCH   1  22
TORSDOF 8
