REMARK  Name = ZINC35098743
REMARK  10 active torsions:
REMARK  status: ('A' for Active; 'I' for Inactive)
REMARK    1  A    between atoms: C_1  and  C_2
REMARK    2  A    between atoms: C_2  and  C_3
REMARK    3  A    between atoms: C_3  and  C_5
REMARK    4  A    between atoms: C_3  and  C_6
REMARK    5  A    between atoms: C_6  and  C_8
REMARK    6  A    between atoms: C_6  and  N_27
REMARK    7  A    between atoms: C_14  and  C_17
REMARK    8  A    between atoms: N_20  and  C_21
REMARK    9  A    between atoms: N_27  and  S_28
REMARK   10  A    between atoms: S_28  and  C_31
REMARK                            x       y       z     vdW  Elec       q    Type
REMARK                         _______ _______ _______ _____ _____    ______ ____
ROOT
ATOM      1  C   UNL     1      -2.922  -1.337   1.565  0.00  0.00    +0.235 C 
ATOM      2  O   UNL     1      -3.612  -1.430   2.558  0.00  0.00    -0.274 OA
ATOM      3  N   UNL     1      -2.476  -2.449   0.948  0.00  0.00    -0.297 N 
ATOM      4  C   UNL     1      -1.536  -2.354  -0.178  0.00  0.00    +0.127 C 
ATOM      5  C   UNL     1      -2.136  -3.096  -1.380  0.00  0.00    +0.128 C 
ATOM      6  N   UNL     1      -2.579  -4.425  -0.938  0.00  0.00    -0.280 N 
ATOM      7  C   UNL     1      -3.518  -4.520   0.189  0.00  0.00    +0.092 C 
ATOM      8  C   UNL     1      -2.915  -3.779   1.394  0.00  0.00    +0.130 C 
ATOM      9  C   UNL     1      -4.853  -3.881  -0.200  0.00  0.00    +0.030 C 
ATOM     10  C   UNL     1      -2.133  -5.537  -1.554  0.00  0.00    +0.303 C 
ATOM     11  O   UNL     1      -2.577  -6.625  -1.242  0.00  0.00    -0.253 OA
ATOM     12  N   UNL     1      -1.194  -5.444  -2.517  0.00  0.00    -0.296 N 
ATOM     13  H   UNL     1      -0.787  -4.586  -2.715  0.00  0.00    +0.151 HD
ENDROOT
BRANCH  12  14
ATOM     14  C   UNL     1      -0.790  -6.637  -3.264  0.00  0.00    +0.074 C 
ATOM     15  C   UNL     1       0.295  -7.383  -2.485  0.00  0.00    +0.022 C 
ATOM     16  C   UNL     1       0.717  -8.630  -3.265  0.00  0.00    +0.002 C 
ATOM     17  C   UNL     1       1.266  -8.214  -4.632  0.00  0.00    +0.000 C 
ATOM     18  C   UNL     1       0.182  -7.468  -5.411  0.00  0.00    +0.002 C 
ATOM     19  C   UNL     1      -0.241  -6.221  -4.631  0.00  0.00    +0.022 C 
ENDBRANCH  12  14
BRANCH   1  20
ATOM     20  C   UNL     1      -2.564   0.022   1.020  0.00  0.00    +0.165 C 
BRANCH  20  21
ATOM     21  C   UNL     1      -3.418   0.318  -0.214  0.00  0.00    +0.013 C 
ATOM     22  C   UNL     1      -2.714   1.363  -1.082  0.00  0.00    +0.009 C 
BRANCH  21  24
ATOM     23  C   UNL     1      -5.542  -0.241   0.977  0.00  0.00    +0.004 C 
ATOM     24  C   UNL     1      -4.782   0.854   0.226  0.00  0.00    +0.002 C 
ENDBRANCH  21  24
ENDBRANCH  20  21
BRANCH  20  25
ATOM     25  N   UNL     1      -2.815   1.040   2.043  0.00  0.00    -0.178 NA
ATOM     26  H   UNL     1      -3.683   1.469   2.098  0.00  0.00    +0.149 HD
BRANCH  25  27
ATOM     27  S   UNL     1      -1.617   1.458   3.108  0.00  0.00    +0.059 S 
ATOM     28  O   UNL     1      -2.095   2.580   3.836  0.00  0.00    -0.153 OA
ATOM     29  O   UNL     1      -1.202   0.257   3.744  0.00  0.00    -0.153 OA
BRANCH  27  30
ATOM     30  C   UNL     1      -0.247   2.021   2.154  0.00  0.00    +0.105 A 
ATOM     31  C   UNL     1       0.786   1.155   1.850  0.00  0.00    +0.030 A 
ATOM     32  C   UNL     1       1.862   1.596   1.103  0.00  0.00    +0.022 A 
ATOM     33  C   UNL     1       1.904   2.906   0.658  0.00  0.00    +0.041 A 
ATOM     34  C   UNL     1       0.869   3.773   0.963  0.00  0.00    +0.022 A 
ATOM     35  C   UNL     1      -0.208   3.328   1.706  0.00  0.00    +0.030 A 
ATOM     36 CL   UNL     1       3.254   3.461  -0.280  0.00  0.00    -0.084 Cl
ENDBRANCH  27  30
ENDBRANCH  25  27
ENDBRANCH  20  25
ENDBRANCH   1  20
TORSDOF 7
