REMARK  Name = ZINC66057574
REMARK  6 active torsions:
REMARK  status: ('A' for Active; 'I' for Inactive)
REMARK    1  A    between atoms: C_1  and  C_2
REMARK    2  A    between atoms: C_4  and  C_28
REMARK    3  A    between atoms: C_5  and  C_9
REMARK    4  A    between atoms: C_7  and  C_8
REMARK    5  A    between atoms: C_9  and  C_11
REMARK    6  A    between atoms: C_11  and  N_12
REMARK                            x       y       z     vdW  Elec       q    Type
REMARK                         _______ _______ _______ _____ _____    ______ ____
ROOT
ATOM      1  N   UNL     1       0.961  -6.288   1.299  0.00  0.00    -0.217 N 
ATOM      2  C   UNL     1      -0.007  -7.226   1.242  0.00  0.00    +0.247 C 
ATOM      3  O   UNL     1      -1.204  -7.053   1.332  0.00  0.00    -0.273 OA
ATOM      4  C   UNL     1       0.714  -8.538   1.040  0.00  0.00    +0.117 C 
ATOM      5  C   UNL     1       0.444  -9.481   2.210  0.00  0.00    +0.040 C 
ATOM      6  C   UNL     1      -1.067  -9.621   2.382  0.00  0.00    +0.038 C 
ATOM      7  C   UNL     1      -1.723  -9.960   1.069  0.00  0.00    -0.044 A 
ATOM      8  C   UNL     1      -3.003 -10.499   1.108  0.00  0.00    +0.004 A 
ATOM      9  C   UNL     1      -3.661 -10.827  -0.059  0.00  0.00    +0.000 A 
ATOM     10  C   UNL     1      -3.044 -10.617  -1.278  0.00  0.00    +0.000 A 
ATOM     11  C   UNL     1      -1.773 -10.083  -1.319  0.00  0.00    +0.004 A 
ATOM     12  C   UNL     1      -1.107  -9.757  -0.144  0.00  0.00    -0.042 A 
ATOM     13  C   UNL     1       0.287  -9.196  -0.263  0.00  0.00    +0.070 C 
ATOM     14  N   UNL     1       2.133  -8.164   0.998  0.00  0.00    -0.285 N 
ATOM     15  C   UNL     1       2.178  -6.827   1.155  0.00  0.00    +0.310 C 
ATOM     16  O   UNL     1       3.209  -6.182   1.167  0.00  0.00    -0.252 OA
ATOM     17  H   UNL     1       2.888  -8.761   0.878  0.00  0.00    +0.151 HD
ENDROOT
BRANCH   1  18
ATOM     18  C   UNL     1       0.711  -4.857   1.490  0.00  0.00    +0.197 C 
BRANCH  18  19
ATOM     19  C   UNL     1       0.535  -4.195   0.147  0.00  0.00    +0.181 C 
ATOM     20  O   UNL     1       0.611  -4.854  -0.868  0.00  0.00    -0.290 OA
BRANCH  19  25
ATOM     21  C   UNL     1      -0.497   1.452  -0.159  0.00  0.00    +0.044 C 
ATOM     22  C   UNL     1      -0.227  -0.028  -0.079  0.00  0.00    -0.047 A 
ATOM     23  C   UNL     1      -0.264  -0.798  -1.228  0.00  0.00    +0.007 A 
ATOM     24  C   UNL     1      -0.018  -2.153  -1.163  0.00  0.00    -0.040 A 
ATOM     25  C   UNL     1       0.271  -2.749   0.069  0.00  0.00    +0.022 A 
ATOM     26  C   UNL     1       0.307  -1.965   1.226  0.00  0.00    +0.015 A 
ATOM     27  C   UNL     1       0.064  -0.610   1.143  0.00  0.00    -0.047 A 
ATOM     28  C   UNL     1       0.109   0.239   2.387  0.00  0.00    +0.044 C 
ATOM     29  C   UNL     1      -0.060  -2.990  -2.416  0.00  0.00    +0.044 C 
ENDBRANCH  19  25
ENDBRANCH  18  19
ENDBRANCH   1  18
TORSDOF 3
