REMARK  Name = ZINC39623086
REMARK  4 active torsions:
REMARK  status: ('A' for Active; 'I' for Inactive)
REMARK    1  A    between atoms: C_5  and  C_7
REMARK    2  A    between atoms: C_7  and  N_8
REMARK    3  A    between atoms: C_9  and  C_11
REMARK    4  A    between atoms: C_22  and  C_24
REMARK                            x       y       z     vdW  Elec       q    Type
REMARK                         _______ _______ _______ _____ _____    ______ ____
ROOT
ATOM      1  C   UNL     1       2.029  -4.470   2.758  0.00  0.00    +0.100 C 
ATOM      2  C   UNL     1       3.447  -4.161   3.289  0.00  0.00    +0.121 C 
ATOM      3  N   UNL     1       3.798  -5.334   4.123  0.00  0.00    -0.296 N 
ATOM      4  C   UNL     1       3.261  -6.495   3.372  0.00  0.00    +0.115 C 
ATOM      5  C   UNL     1       1.911  -6.002   2.814  0.00  0.00    -0.004 C 
ATOM      6  C   UNL     1       0.774  -6.412   3.745  0.00  0.00    -0.010 C 
ATOM      7  C   UNL     1       0.641  -7.937   3.740  0.00  0.00    -0.082 C 
ATOM      8  N   UNL     1       0.372  -8.402   2.374  0.00  0.00    +0.379 N 
ATOM      9  C   UNL     1       1.512  -8.086   1.504  0.00  0.00    -0.082 C 
ATOM     10  C   UNL     1       1.682  -6.566   1.415  0.00  0.00    -0.010 C 
ATOM     11  C   UNL     1       4.457  -5.345   5.299  0.00  0.00    +0.247 C 
ATOM     12  O   UNL     1       4.749  -6.402   5.823  0.00  0.00    -0.270 OA
ATOM     13  H   UNL     1       0.224  -9.400   2.383  0.00  0.00    -0.086 HD
ATOM     14  H   UNL     1      -0.455  -7.945   2.021  0.00  0.00    -0.086 HD
ENDROOT
BRANCH  11  15
ATOM     15  C   UNL     1       4.824  -4.071   5.951  0.00  0.00    +0.045 A 
ATOM     16  C   UNL     1       5.482  -3.073   5.223  0.00  0.00    +0.014 A 
ATOM     17  C   UNL     1       5.825  -1.884   5.828  0.00  0.00    +0.001 A 
ATOM     18  C   UNL     1       5.524  -1.662   7.163  0.00  0.00    +0.012 A 
ATOM     19  C   UNL     1       4.871  -2.640   7.904  0.00  0.00    +0.031 A 
ATOM     20  C   UNL     1       4.509  -3.854   7.299  0.00  0.00    +0.006 A 
ATOM     21  C   UNL     1       3.826  -4.704   8.306  0.00  0.00    -0.006 A 
ATOM     22  C   UNL     1       3.284  -5.980   8.227  0.00  0.00    +0.009 A 
ATOM     23  C   UNL     1       2.691  -6.552   9.342  0.00  0.00    +0.001 A 
ATOM     24  C   UNL     1       2.634  -5.860  10.536  0.00  0.00    +0.001 A 
ATOM     25  C   UNL     1       3.170  -4.586  10.631  0.00  0.00    +0.012 A 
ATOM     26  C   UNL     1       3.768  -4.002   9.521  0.00  0.00    +0.030 A 
ATOM     27  C   UNL     1       4.427  -2.689   9.318  0.00  0.00    +0.194 C 
ATOM     28  O   UNL     1       4.565  -1.814  10.148  0.00  0.00    -0.287 OA
ENDBRANCH  11  15
BRANCH   1  30
ATOM     29  N   UNL     1       0.657  -3.737   0.835  0.00  0.00    -0.311 N 
ATOM     30  C   UNL     1       1.882  -3.984   1.339  0.00  0.00    +0.218 C 
ATOM     31  O   UNL     1       2.866  -3.814   0.652  0.00  0.00    -0.275 OA
ATOM     32  H   UNL     1      -0.131  -3.873   1.385  0.00  0.00    +0.149 HD
BRANCH  29  33
ATOM     33  C   UNL     1       0.514  -3.265  -0.544  0.00  0.00    +0.141 C 
BRANCH  33  38
ATOM     34  C   UNL     1      -2.975  -3.850  -1.861  0.00  0.00    +0.000 A 
ATOM     35  C   UNL     1      -3.626  -2.706  -1.438  0.00  0.00    +0.001 A 
ATOM     36  C   UNL     1      -2.938  -1.742  -0.726  0.00  0.00    +0.020 A 
ATOM     37  C   UNL     1      -1.597  -1.923  -0.436  0.00  0.00    +0.046 A 
ATOM     38  C   UNL     1      -0.946  -3.068  -0.860  0.00  0.00    -0.012 A 
ATOM     39  C   UNL     1      -1.636  -4.031  -1.572  0.00  0.00    +0.006 A 
ATOM     40 CL   UNL     1      -0.731  -0.712   0.458  0.00  0.00    -0.083 Cl
ENDBRANCH  33  38
ENDBRANCH  29  33
ENDBRANCH   1  30
TORSDOF 4
