REMARK  Name = ZINC65039488
REMARK  8 active torsions:
REMARK  status: ('A' for Active; 'I' for Inactive)
REMARK    1  A    between atoms: C_1  and  C_2
REMARK    2  A    between atoms: C_2  and  C_3
REMARK    3  A    between atoms: C_3  and  C_4
REMARK    4  A    between atoms: C_4  and  C_5
REMARK    5  A    between atoms: C_4  and  C_6
REMARK    6  A    between atoms: N_8  and  C_9
REMARK    7  A    between atoms: N_8  and  C_10
REMARK    8  A    between atoms: N_13  and  C_16
REMARK                            x       y       z     vdW  Elec       q    Type
REMARK                         _______ _______ _______ _____ _____    ______ ____
ROOT
ATOM      1  C   UNL     1       2.250  -4.397  -3.886  0.00  0.00    +0.072 C 
ATOM      2  C   UNL     1       1.223  -5.197  -4.693  0.00  0.00    +0.004 C 
ATOM      3  C   UNL     1       1.922  -5.863  -5.880  0.00  0.00    -0.077 C 
ATOM      4  N   UNL     1       2.972  -6.764  -5.391  0.00  0.00    +0.382 N 
ATOM      5  C   UNL     1       3.998  -5.994  -4.678  0.00  0.00    -0.077 C 
ATOM      6  C   UNL     1       3.379  -5.333  -3.444  0.00  0.00    +0.004 C 
ATOM      7  H   UNL     1       2.567  -7.443  -4.765  0.00  0.00    -0.081 HD
ENDROOT
BRANCH   4   8
ATOM      8  C   UNL     1       3.588  -7.459  -6.530  0.00  0.00    -0.064 C 
ATOM      9  C   UNL     1       2.524  -8.280  -7.264  0.00  0.00    +0.013 C 
ATOM     10  C   UNL     1       3.189  -9.062  -8.400  0.00  0.00    +0.158 C 
ATOM     11  O   UNL     1       4.219  -9.895  -7.864  0.00  0.00    -0.380 OA
ATOM     12  C   UNL     1       5.266  -9.178  -7.207  0.00  0.00    +0.158 C 
ATOM     13  C   UNL     1       4.684  -8.401  -6.023  0.00  0.00    +0.013 C 
ENDBRANCH   4   8
BRANCH   1  16
ATOM     14  C   UNL     1       1.653  -2.489  -2.493  0.00  0.00    +0.218 C 
ATOM     15  O   UNL     1       1.173  -2.018  -1.483  0.00  0.00    -0.275 OA
ATOM     16  N   UNL     1       1.603  -3.819  -2.705  0.00  0.00    -0.301 N 
ATOM     17  C   UNL     1       0.901  -4.687  -1.756  0.00  0.00    +0.132 C 
BRANCH  14  18
ATOM     18  C   UNL     1       2.304  -1.587  -3.509  0.00  0.00    +0.072 C 
ATOM     19  C   UNL     1       1.305  -1.268  -4.623  0.00  0.00    +0.017 C 
BRANCH  18  20
ATOM     20  C   UNL     1       2.745  -0.288  -2.831  0.00  0.00    +0.012 C 
BRANCH  20  22
ATOM     21  C   UNL     1       3.956   1.873  -3.154  0.00  0.00    +0.004 C 
ATOM     22  C   UNL     1       3.516   0.574  -3.832  0.00  0.00    -0.003 C 
ENDBRANCH  20  22
ENDBRANCH  18  20
ENDBRANCH  14  18
ENDBRANCH   1  16
TORSDOF 5
