REMARK  Name = ZINC43746578
REMARK  11 active torsions:
REMARK  status: ('A' for Active; 'I' for Inactive)
REMARK    1  A    between atoms: C_1  and  C_2
REMARK    2  A    between atoms: C_2  and  C_3
REMARK    3  A    between atoms: C_3  and  C_5
REMARK    4  A    between atoms: C_3  and  C_6
REMARK    5  A    between atoms: C_6  and  C_8
REMARK    6  A    between atoms: C_6  and  N_16
REMARK    7  A    between atoms: N_10  and  C_11
REMARK    8  A    between atoms: C_11  and  C_13
REMARK    9  A    between atoms: C_11  and  C_14
REMARK   10  A    between atoms: C_14  and  C_15
REMARK   11  A    between atoms: C_17  and  C_19
REMARK                            x       y       z     vdW  Elec       q    Type
REMARK                         _______ _______ _______ _____ _____    ______ ____
ROOT
ATOM      1  C   UNL     1       4.534  -2.680   3.206  0.00  0.00    +0.167 C 
ATOM      2  C   UNL     1       3.863  -3.919   3.817  0.00  0.00    +0.069 C 
ATOM      3  C   UNL     1       4.907  -4.901   4.283  0.00  0.00    -0.015 A 
ATOM      4  C   UNL     1       4.718  -6.024   5.184  0.00  0.00    +0.003 A 
ATOM      5  C   UNL     1       3.598  -6.508   5.865  0.00  0.00    +0.010 A 
ATOM      6  C   UNL     1       3.783  -7.619   6.651  0.00  0.00    +0.001 A 
ATOM      7  C   UNL     1       5.016  -8.239   6.771  0.00  0.00    +0.002 A 
ATOM      8  C   UNL     1       6.141  -7.779   6.109  0.00  0.00    +0.026 A 
ATOM      9  C   UNL     1       5.983  -6.652   5.305  0.00  0.00    +0.047 A 
ATOM     10  N   UNL     1       6.861  -5.949   4.533  0.00  0.00    -0.356 N 
ATOM     11  H   UNL     1       7.802  -6.159   4.424  0.00  0.00    +0.166 HD
ATOM     12  C   UNL     1       6.214  -4.901   3.935  0.00  0.00    +0.046 A 
ATOM     13  C   UNL     1       6.824  -3.859   3.030  0.00  0.00    +0.155 C 
ATOM     14  N   UNL     1       5.686  -3.132   2.421  0.00  0.00    -0.273 N 
ATOM     15  C   UNL     1       5.908  -3.026   1.103  0.00  0.00    +0.248 C 
ATOM     16  O   UNL     1       5.295  -2.300   0.345  0.00  0.00    -0.270 OA
ATOM     17  C   UNL     1       7.003  -3.921   0.717  0.00  0.00    +0.042 A 
ATOM     18  C   UNL     1       7.595  -4.458   1.904  0.00  0.00    -0.009 A 
ATOM     19  C   UNL     1       8.652  -5.340   1.874  0.00  0.00    +0.006 A 
ATOM     20  C   UNL     1       9.151  -5.687   0.622  0.00  0.00    +0.000 A 
ATOM     21  C   UNL     1       8.618  -5.172  -0.543  0.00  0.00    +0.001 A 
ATOM     22  C   UNL     1       7.503  -4.262  -0.542  0.00  0.00    +0.013 A 
ENDROOT
BRANCH   1  24
ATOM     23  N   UNL     1       3.055  -0.767   2.686  0.00  0.00    -0.302 N 
ATOM     24  C   UNL     1       3.557  -1.960   2.312  0.00  0.00    +0.235 C 
ATOM     25  O   UNL     1       3.224  -2.455   1.256  0.00  0.00    -0.274 OA
ATOM     26  H   UNL     1       3.321  -0.371   3.530  0.00  0.00    +0.150 HD
BRANCH  23  27
ATOM     27  C   UNL     1       2.106  -0.067   1.817  0.00  0.00    +0.162 C 
BRANCH  27  28
ATOM     28  C   UNL     1       2.163   1.412   2.098  0.00  0.00    +0.234 C 
ATOM     29  O   UNL     1       2.753   1.821   3.076  0.00  0.00    -0.274 OA
ATOM     30  N   UNL     1       1.560   2.281   1.263  0.00  0.00    -0.311 N 
ATOM     31  H   UNL     1       1.026   1.952   0.523  0.00  0.00    +0.149 HD
BRANCH  30  32
ATOM     32  C   UNL     1       1.710   3.723   1.472  0.00  0.00    +0.070 C 
ATOM     33  C   UNL     1       2.968   4.215   0.754  0.00  0.00    +0.028 C 
BRANCH  32  34
ATOM     34  C   UNL     1       0.486   4.450   0.912  0.00  0.00    +0.018 C 
ATOM     35  C   UNL     1      -0.770   3.975   1.646  0.00  0.00    +0.005 C 
ENDBRANCH  32  34
ENDBRANCH  30  32
ENDBRANCH  27  28
BRANCH  27  36
ATOM     36  C   UNL     1       0.691  -0.583   2.087  0.00  0.00    +0.015 C 
ATOM     37  C   UNL     1       0.380  -0.462   3.580  0.00  0.00    +0.010 C 
BRANCH  36  39
ATOM     38  C   UNL     1       0.754  -2.154   0.145  0.00  0.00    +0.004 C 
ATOM     39  C   UNL     1       0.593  -2.050   1.663  0.00  0.00    +0.002 C 
ENDBRANCH  36  39
ENDBRANCH  27  36
ENDBRANCH  23  27
ENDBRANCH   1  24
TORSDOF 7
