REMARK  Name = ZINC39345080
REMARK  9 active torsions:
REMARK  status: ('A' for Active; 'I' for Inactive)
REMARK    1  A    between atoms: C_1  and  C_2
REMARK    2  A    between atoms: C_5  and  O_26
REMARK    3  A    between atoms: C_6  and  C_8
REMARK    4  A    between atoms: C_8  and  C_10
REMARK    5  A    between atoms: C_8  and  C_18
REMARK    6  A    between atoms: C_13  and  O_17
REMARK    7  A    between atoms: C_14  and  O_16
REMARK    8  A    between atoms: C_19  and  C_25
REMARK    9  A    between atoms: C_22  and  O_24
REMARK                            x       y       z     vdW  Elec       q    Type
REMARK                         _______ _______ _______ _____ _____    ______ ____
ROOT
ATOM      1  C   UNL     1      -0.014  -0.328  -2.519  0.00  0.00    +0.088 C 
ENDROOT
BRANCH   1   7
ATOM      2  C   UNL     1       2.578  -0.876  -0.857  0.00  0.00    +0.065 C 
ATOM      3  C   UNL     1       1.162  -1.109  -0.396  0.00  0.00    +0.041 A 
ATOM      4  N   UNL     1       0.787  -1.587   0.809  0.00  0.00    -0.278 N 
ATOM      5  N   UNL     1      -0.612  -1.652   0.833  0.00  0.00    -0.136 NA
ATOM      6  C   UNL     1      -1.062  -1.226  -0.323  0.00  0.00    +0.236 A 
ATOM      7  C   UNL     1       0.041  -0.873  -1.115  0.00  0.00    +0.047 A 
ATOM      8  H   UNL     1       1.382  -1.841   1.532  0.00  0.00    +0.189 HD
BRANCH   6  10
ATOM      9  H   UNL     1      -2.801  -0.320  -0.410  0.00  0.00    +0.294 HD
ATOM     10  O   UNL     1      -2.369  -1.139  -0.688  0.00  0.00    -0.491 OA
ENDBRANCH   6  10
ENDBRANCH   1   7
BRANCH   1  11
ATOM     11  C   UNL     1      -1.304  -0.754  -3.173  0.00  0.00    -0.032 A 
ATOM     12  C   UNL     1      -1.676  -2.086  -3.161  0.00  0.00    +0.008 A 
ATOM     13  C   UNL     1      -2.858  -2.482  -3.759  0.00  0.00    +0.049 A 
ATOM     14  C   UNL     1      -3.672  -1.543  -4.372  0.00  0.00    +0.158 A 
ATOM     15  C   UNL     1      -3.298  -0.203  -4.384  0.00  0.00    +0.159 A 
ATOM     16  C   UNL     1      -2.114   0.188  -3.778  0.00  0.00    +0.053 A 
BRANCH  15  17
ATOM     17  O   UNL     1      -4.094   0.722  -4.984  0.00  0.00    -0.503 OA
ATOM     18  H   UNL     1      -4.752   1.116  -4.395  0.00  0.00    +0.292 HD
ENDBRANCH  15  17
BRANCH  14  19
ATOM     19  O   UNL     1      -4.835  -1.931  -4.961  0.00  0.00    -0.503 OA
ATOM     20  H   UNL     1      -5.600  -1.917  -4.370  0.00  0.00    +0.292 HD
ENDBRANCH  14  19
ENDBRANCH   1  11
BRANCH   1  21
ATOM     21  C   UNL     1       1.151  -0.863  -3.312  0.00  0.00    +0.017 C 
ATOM     22  C   UNL     1       2.128  -0.174  -3.904  0.00  0.00    +0.065 C 
ATOM     23  N   UNL     1       2.997  -1.005  -4.521  0.00  0.00    -0.156 NA
ATOM     24  N   UNL     1       2.720  -2.203  -4.418  0.00  0.00    -0.151 NA
ATOM     25  C   UNL     1       1.489  -2.312  -3.616  0.00  0.00    +0.284 C 
ATOM     26  C   UNL     1       2.248   1.328  -3.886  0.00  0.00    +0.067 C 
BRANCH  25  27
ATOM     27  O   UNL     1       0.447  -2.925  -4.376  0.00  0.00    -0.366 OA
ATOM     28  H   UNL     1       0.614  -3.852  -4.597  0.00  0.00    +0.212 HD
ENDBRANCH  25  27
ENDBRANCH   1  21
TORSDOF 7
