REMARK  Name = ZINC67361722
REMARK  8 active torsions:
REMARK  status: ('A' for Active; 'I' for Inactive)
REMARK    1  A    between atoms: C_4  and  C_7
REMARK    2  A    between atoms: C_7  and  C_8
REMARK    3  A    between atoms: C_8  and  C_10
REMARK    4  A    between atoms: C_8  and  N_28
REMARK    5  A    between atoms: N_12  and  C_13
REMARK    6  A    between atoms: C_13  and  C_14
REMARK    7  A    between atoms: N_19  and  C_21
REMARK    8  A    between atoms: C_21  and  C_22
REMARK                            x       y       z     vdW  Elec       q    Type
REMARK                         _______ _______ _______ _____ _____    ______ ____
ROOT
ATOM      1  C   UNL     1       5.422  -1.804   1.383  0.00  0.00    +0.234 C 
ATOM      2  O   UNL     1       6.506  -1.282   1.528  0.00  0.00    -0.274 OA
ATOM      3  N   UNL     1       5.334  -3.138   1.209  0.00  0.00    -0.314 N 
ATOM      4  H   UNL     1       4.467  -3.557   1.094  0.00  0.00    +0.149 HD
ENDROOT
BRANCH   1   5
ATOM      5  C   UNL     1       4.171  -0.963   1.399  0.00  0.00    +0.165 C 
BRANCH   5   6
ATOM      6  N   UNL     1       4.451   0.315   2.057  0.00  0.00    -0.288 N 
ATOM      7  C   UNL     1       5.392   1.140   1.556  0.00  0.00    +0.298 C 
ATOM      8  O   UNL     1       6.009   0.822   0.557  0.00  0.00    -0.253 OA
ATOM      9  N   UNL     1       5.649   2.316   2.162  0.00  0.00    -0.313 N 
ATOM     10  H   UNL     1       3.959   0.568   2.854  0.00  0.00    +0.151 HD
ATOM     11  H   UNL     1       5.157   2.569   2.959  0.00  0.00    +0.146 HD
ATOM     12  H   UNL     1       6.327   2.909   1.801  0.00  0.00    +0.146 HD
ENDBRANCH   5   6
BRANCH   5  13
ATOM     13  C   UNL     1       3.711  -0.707  -0.038  0.00  0.00    +0.067 C 
BRANCH  13  17
ATOM     14  C   UNL     1      -0.017   1.378   0.010  0.00  0.00    +0.000 A 
ATOM     15  C   UNL     1       1.171   2.086   0.002  0.00  0.00    +0.000 A 
ATOM     16  C   UNL     1       2.377   1.411  -0.013  0.00  0.00    +0.004 A 
ATOM     17  C   UNL     1       2.396   0.029  -0.020  0.00  0.00    -0.045 A 
ATOM     18  C   UNL     1       1.208  -0.679  -0.012  0.00  0.00    +0.004 A 
ATOM     19  C   UNL     1       0.002  -0.004   0.002  0.00  0.00    +0.000 A 
ENDBRANCH  13  17
ENDBRANCH   5  13
ENDBRANCH   1   5
BRANCH   3  20
ATOM     20  C   UNL     1       6.550  -3.956   1.194  0.00  0.00    +0.106 C 
BRANCH  20  21
ATOM     21  C   UNL     1       6.174  -5.424   0.982  0.00  0.00    -0.011 C 
ATOM     22  C   UNL     1       5.367  -5.924   2.184  0.00  0.00    +0.001 C 
ATOM     23  C   UNL     1       5.064  -7.413   1.998  0.00  0.00    -0.018 C 
ATOM     24  C   UNL     1       6.378  -8.178   1.824  0.00  0.00    -0.078 C 
ATOM     25  N   UNL     1       7.089  -7.672   0.644  0.00  0.00    +0.383 N 
ATOM     26  C   UNL     1       7.447  -6.262   0.844  0.00  0.00    -0.073 C 
ATOM     27  H   UNL     1       6.495  -7.755  -0.167  0.00  0.00    -0.081 HD
BRANCH  25  28
ATOM     28  C   UNL     1       8.311  -8.460   0.435  0.00  0.00    -0.043 C 
BRANCH  28  29
ATOM     29  C   UNL     1       7.940  -9.882   0.098  0.00  0.00    -0.064 A 
ATOM     30  C   UNL     1       7.782 -10.812   1.108  0.00  0.00    +0.002 A 
ATOM     31  C   UNL     1       7.442 -12.116   0.799  0.00  0.00    +0.000 A 
ATOM     32  C   UNL     1       7.259 -12.489  -0.520  0.00  0.00    +0.000 A 
ATOM     33  C   UNL     1       7.416 -11.557  -1.529  0.00  0.00    +0.000 A 
ATOM     34  C   UNL     1       7.752 -10.253  -1.220  0.00  0.00    +0.002 A 
ENDBRANCH  28  29
ENDBRANCH  25  28
ENDBRANCH  20  21
ENDBRANCH   3  20
TORSDOF 8
