REMARK  Name = ZINC25394331
REMARK  16 active torsions:
REMARK  status: ('A' for Active; 'I' for Inactive)
REMARK    1  A    between atoms: C_1  and  C_2
REMARK    2  A    between atoms: C_2  and  O_3
REMARK    3  A    between atoms: O_3  and  C_4
REMARK    4  A    between atoms: C_4  and  C_6
REMARK    5  A    between atoms: C_7  and  C_36
REMARK    6  A    between atoms: C_8  and  C_35
REMARK    7  A    between atoms: C_10  and  N_11
REMARK    8  A    between atoms: C_12  and  C_14
REMARK    9  A    between atoms: C_14  and  O_15
REMARK   10  A    between atoms: O_15  and  C_16
REMARK   11  A    between atoms: C_16  and  C_18
REMARK   12  A    between atoms: C_18  and  C_20
REMARK   13  A    between atoms: C_18  and  N_24
REMARK   14  A    between atoms: C_20  and  C_21
REMARK   15  A    between atoms: C_21  and  S_22
REMARK   16  A    between atoms: S_22  and  C_23
REMARK                            x       y       z     vdW  Elec       q    Type
REMARK                         _______ _______ _______ _____ _____    ______ ____
ROOT
ATOM      1  O   UNL     1      -2.420   0.986   0.019  0.00  0.00    -0.454 OA
ENDROOT
BRANCH   1   2
ATOM      2  C   UNL     1      -3.667   1.482   0.028  0.00  0.00    +0.329 C 
ATOM      3  O   UNL     1      -3.842   2.678   0.035  0.00  0.00    -0.249 OA
BRANCH   2   4
ATOM      4  C   UNL     1      -4.850   0.548   0.028  0.00  0.00    +0.194 C 
BRANCH   4   5
ATOM      5  N   UNL     1      -6.089   1.329   0.038  0.00  0.00    -0.220 N 
ATOM      6  C   UNL     1      -6.436   2.194   1.008  0.00  0.00    +0.255 C 
ATOM      7  O   UNL     1      -5.780   2.449   1.998  0.00  0.00    -0.270 OA
ATOM      8  C   UNL     1      -7.746   2.787   0.665  0.00  0.00    +0.049 A 
ATOM      9  C   UNL     1      -8.577   3.715   1.271  0.00  0.00    +0.014 A 
ATOM     10  C   UNL     1      -9.778   4.058   0.670  0.00  0.00    +0.001 A 
ATOM     11  C   UNL     1     -10.152   3.480  -0.528  0.00  0.00    +0.001 A 
ATOM     12  C   UNL     1      -9.331   2.550  -1.146  0.00  0.00    +0.014 A 
ATOM     13  C   UNL     1      -8.127   2.197  -0.557  0.00  0.00    +0.049 A 
ATOM     14  C   UNL     1      -7.034   1.271  -0.918  0.00  0.00    +0.255 C 
ATOM     15  O   UNL     1      -6.994   0.574  -1.912  0.00  0.00    -0.270 OA
ENDBRANCH   4   5
BRANCH   4  16
ATOM     16  C   UNL     1      -4.797  -0.341   1.272  0.00  0.00    +0.045 C 
BRANCH  16  17
ATOM     17  C   UNL     1      -5.926  -1.372   1.211  0.00  0.00    +0.071 C 
BRANCH  17  18
ATOM     18  S   UNL     1      -5.863  -2.426   2.686  0.00  0.00    -0.164 S 
ATOM     19  C   UNL     1      -7.247  -3.577   2.462  0.00  0.00    +0.084 C 
ENDBRANCH  17  18
ENDBRANCH  16  17
ENDBRANCH   4  16
ENDBRANCH   2   4
ENDBRANCH   1   2
BRANCH   1  20
ATOM     20  C   UNL     1      -1.330   1.944   0.019  0.00  0.00    +0.328 C 
BRANCH  20  22
ATOM     21  N   UNL     1       1.143   1.898   0.001  0.00  0.00    -0.277 N 
ATOM     22  C   UNL     1      -0.014   1.209   0.009  0.00  0.00    +0.255 C 
ATOM     23  O   UNL     1       0.002  -0.004   0.002  0.00  0.00    -0.272 OA
ATOM     24  H   UNL     1       1.129   2.998   0.007  0.00  0.00    +0.155 HD
BRANCH  21  29
ATOM     25  C   UNL     1       3.639   1.751  -0.023  0.00  0.00    +0.091 A 
ATOM     26  C   UNL     1       4.730   0.805  -0.038  0.00  0.00    -0.025 A 
ATOM     27  C   UNL     1       4.410  -0.501  -0.042  0.00  0.00    -0.008 A 
ATOM     28  S   UNL     1       2.630  -0.488  -0.018  0.00  0.00    -0.078 S 
ATOM     29  C   UNL     1       2.353   1.222  -0.014  0.00  0.00    +0.086 A 
ATOM     30  C   UNL     1       5.336  -1.690  -0.057  0.00  0.00    +0.052 C 
ATOM     31  C   UNL     1       6.166   1.262  -0.050  0.00  0.00    +0.045 C 
BRANCH  25  32
ATOM     32  C   UNL     1       3.876   3.196  -0.019  0.00  0.00    +0.342 C 
ATOM     33  O   UNL     1       3.984   3.792   1.036  0.00  0.00    -0.245 OA
BRANCH  32  34
ATOM     34  O   UNL     1       3.973   3.867  -1.185  0.00  0.00    -0.461 OA
BRANCH  34  36
ATOM     35  C   UNL     1       4.288   5.882  -2.516  0.00  0.00    +0.048 C 
ATOM     36  C   UNL     1       4.208   5.298  -1.104  0.00  0.00    +0.229 C 
ENDBRANCH  34  36
ENDBRANCH  32  34
ENDBRANCH  25  32
ENDBRANCH  21  29
ENDBRANCH  20  22
ENDBRANCH   1  20
TORSDOF 12
