REMARK  Name = ZINC33959097
REMARK  7 active torsions:
REMARK  status: ('A' for Active; 'I' for Inactive)
REMARK    1  A    between atoms: C_5  and  C_7
REMARK    2  A    between atoms: N_9  and  C_10
REMARK    3  A    between atoms: C_10  and  C_11
REMARK    4  A    between atoms: C_11  and  C_12
REMARK    5  A    between atoms: C_12  and  C_13
REMARK    6  A    between atoms: N_15  and  N_16
REMARK    7  A    between atoms: C_17  and  C_18
REMARK                            x       y       z     vdW  Elec       q    Type
REMARK                         _______ _______ _______ _____ _____    ______ ____
ROOT
ATOM      1  C   UNL     1      -1.310  -4.857  -0.011  0.00  0.00    +0.028 C 
ENDROOT
BRANCH   1   2
ATOM      2  C   UNL     1       0.122  -4.321  -0.023  0.00  0.00    +0.105 C 
BRANCH   2   5
ATOM      3  C   UNL     1       1.250  -2.160  -0.022  0.00  0.00    +0.245 C 
ATOM      4  O   UNL     1       2.313  -2.748  -0.036  0.00  0.00    -0.270 OA
ATOM      5  N   UNL     1       0.095  -2.856  -0.014  0.00  0.00    -0.311 N 
ATOM      6  H   UNL     1      -0.754  -2.387  -0.003  0.00  0.00    +0.149 HD
BRANCH   3  11
ATOM      7  C   UNL     1      -0.017   1.375   0.010  0.00  0.00    +0.001 A 
ATOM      8  C   UNL     1       1.170   2.087   0.002  0.00  0.00    +0.001 A 
ATOM      9  C   UNL     1       2.383   1.422  -0.013  0.00  0.00    +0.016 A 
ATOM     10  C   UNL     1       2.417   0.041  -0.021  0.00  0.00    +0.030 A 
ATOM     11  C   UNL     1       1.222  -0.683  -0.013  0.00  0.00    +0.051 A 
ATOM     12  C   UNL     1       0.002  -0.004   0.002  0.00  0.00    +0.014 A 
ATOM     13 BR   UNL     1       4.075  -0.867  -0.043  0.00  0.00    -0.050 Br
ENDBRANCH   3  11
ENDBRANCH   2   5
ENDBRANCH   1   2
BRANCH   1  14
ATOM     14  C   UNL     1      -1.282  -6.387  -0.020  0.00  0.00    +0.099 C 
BRANCH  14  15
ATOM     15  C   UNL     1      -2.693  -6.916  -0.009  0.00  0.00    +0.232 C 
ATOM     16  O   UNL     1      -3.629  -6.145   0.005  0.00  0.00    -0.274 OA
ATOM     17  N   UNL     1      -2.914  -8.245  -0.014  0.00  0.00    -0.207 N 
ATOM     18  H   UNL     1      -2.166  -8.862  -0.025  0.00  0.00    +0.177 HD
BRANCH  17  19
ATOM     19  N   UNL     1      -4.226  -8.737  -0.004  0.00  0.00    -0.185 NA
ATOM     20  C   UNL     1      -4.440 -10.020  -0.009  0.00  0.00    +0.176 C 
BRANCH  20  21
ATOM     21  C   UNL     1      -5.813 -10.534   0.002  0.00  0.00    +0.149 A 
ATOM     22  C   UNL     1      -6.176 -11.850   0.004  0.00  0.00    +0.052 A 
ATOM     23  C   UNL     1      -7.582 -11.882   0.017  0.00  0.00    +0.056 A 
ATOM     24  C   UNL     1      -8.008 -10.601   0.022  0.00  0.00    +0.165 A 
ATOM     25  O   UNL     1      -6.937  -9.790   0.018  0.00  0.00    -0.448 OA
ATOM     26  I   UNL     1     -10.008  -9.980   0.040  0.00  0.00    -0.001 I 
ENDBRANCH  20  21
ENDBRANCH  17  19
ENDBRANCH  14  15
ENDBRANCH   1  14
TORSDOF 7
