REMARK  Name = ZINC61522780
REMARK  2 active torsions:
REMARK  status: ('A' for Active; 'I' for Inactive)
REMARK    1  A    between atoms: C_1  and  C_2
REMARK    2  A    between atoms: C_5  and  N_9
REMARK                            x       y       z     vdW  Elec       q    Type
REMARK                         _______ _______ _______ _____ _____    ______ ____
ROOT
ATOM      1  N   UNL     1       0.059  -4.172  -0.025  0.00  0.00    -0.281 N 
ATOM      2  C   UNL     1      -0.042  -4.856  -1.221  0.00  0.00    +0.225 A 
ATOM      3  N   UNL     1      -0.129  -6.182  -1.223  0.00  0.00    -0.178 NA
ATOM      4  C   UNL     1      -0.226  -6.836  -2.373  0.00  0.00    +0.241 A 
ATOM      5  N   UNL     1      -0.235  -6.164  -3.520  0.00  0.00    -0.181 NA
ATOM      6  C   UNL     1      -0.148  -4.844  -3.516  0.00  0.00    +0.229 A 
ATOM      7  N   UNL     1      -0.057  -4.188  -2.371  0.00  0.00    -0.184 NA
ATOM      8 CL   UNL     1      -0.160  -3.970  -5.016  0.00  0.00    -0.041 Cl
ATOM      9  N   UNL     1      -0.317  -8.225  -2.379  0.00  0.00    -0.274 N 
ATOM     10  C   UNL     1      -0.417  -9.032  -3.485  0.00  0.00    +0.115 A 
ATOM     11  C   UNL     1      -0.481 -10.300  -3.038  0.00  0.00    +0.130 A 
ATOM     12  N   UNL     1      -0.424 -10.275  -1.697  0.00  0.00    -0.244 NA
ATOM     13  C   UNL     1      -0.320  -9.041  -1.290  0.00  0.00    +0.206 A 
ATOM     14  H   UNL     1       0.157  -4.661   0.807  0.00  0.00    +0.155 HD
ENDROOT
BRANCH   1  19
ATOM     15  C   UNL     1      -0.095   1.501   0.018  0.00  0.00    +0.044 C 
ATOM     16  C   UNL     1      -0.054  -0.005   0.008  0.00  0.00    -0.048 A 
ATOM     17  C   UNL     1      -0.643  -0.704  -1.029  0.00  0.00    +0.005 A 
ATOM     18  C   UNL     1      -0.607  -2.085  -1.043  0.00  0.00    +0.026 A 
ATOM     19  C   UNL     1       0.022  -2.772  -0.014  0.00  0.00    +0.069 A 
ATOM     20  C   UNL     1       0.614  -2.067   1.028  0.00  0.00    +0.145 A 
ATOM     21  C   UNL     1       0.579  -0.685   1.033  0.00  0.00    +0.043 A 
ATOM     22  F   UNL     1       1.227  -2.732   2.032  0.00  0.00    -0.204 F 
ENDBRANCH   1  19
TORSDOF 1
