REMARK  Name = ZINC38805413
REMARK  2 active torsions:
REMARK  status: ('A' for Active; 'I' for Inactive)
REMARK    1  A    between atoms: C_1  and  C_2
REMARK    2  A    between atoms: C_2  and  C_3
REMARK                            x       y       z     vdW  Elec       q    Type
REMARK                         _______ _______ _______ _____ _____    ______ ____
ROOT
ATOM      1  C   UNL     1       0.744  -0.604  -1.194  0.00  0.00    +0.064 C 
ATOM      2  C   UNL     1       0.447  -2.090  -1.229  0.00  0.00    -0.007 C 
ATOM      3  C   UNL     1       1.509  -2.941  -1.169  0.00  0.00    -0.007 A 
ATOM      4  C   UNL     1       1.312  -4.391  -1.198  0.00  0.00    +0.009 A 
ATOM      5  C   UNL     1       2.400  -5.200  -1.137  0.00  0.00    +0.001 A 
ATOM      6  C   UNL     1       3.692  -4.678  -1.047  0.00  0.00    +0.002 A 
ATOM      7  C   UNL     1       3.942  -3.344  -1.016  0.00  0.00    +0.024 A 
ATOM      8  C   UNL     1       2.883  -2.417  -1.075  0.00  0.00    +0.038 A 
ATOM      9  N   UNL     1       3.140  -1.111  -1.045  0.00  0.00    -0.311 N 
ATOM     10  C   UNL     1       2.195  -0.188  -1.096  0.00  0.00    +0.060 C 
ATOM     11  S   UNL     1       2.612   1.472  -1.051  0.00  0.00    -0.039 S 
ATOM     12  H   UNL     1       4.065  -0.824  -0.983  0.00  0.00    +0.152 HD
ENDROOT
BRANCH   1  14
ATOM     13  C   UNL     1      -1.496  -0.281  -0.137  0.00  0.00    +0.005 C 
ATOM     14  C   UNL     1       0.002  -0.004   0.002  0.00  0.00    +0.011 C 
ENDBRANCH   1  14
TORSDOF 1
