REMARK  Name = ZINC13500512
REMARK  15 active torsions:
REMARK  status: ('A' for Active; 'I' for Inactive)
REMARK    1  A    between atoms: C_1  and  C_2
REMARK    2  A    between atoms: C_2  and  O_3
REMARK    3  A    between atoms: O_3  and  C_4
REMARK    4  A    between atoms: C_11  and  C_16
REMARK    5  A    between atoms: C_16  and  N_17
REMARK    6  A    between atoms: N_17  and  C_18
REMARK    7  A    between atoms: N_17  and  C_26
REMARK    8  A    between atoms: C_18  and  C_19
REMARK    9  A    between atoms: C_19  and  C_20
REMARK   10  A    between atoms: C_26  and  C_28
REMARK   11  A    between atoms: C_26  and  C_39
REMARK   12  A    between atoms: N_32  and  C_33
REMARK   13  A    between atoms: C_33  and  C_34
REMARK   14  A    between atoms: C_39  and  C_40
REMARK   15  A    between atoms: C_39  and  C_41
REMARK                            x       y       z     vdW  Elec       q    Type
REMARK                         _______ _______ _______ _____ _____    ______ ____
ROOT
ATOM      1  N   UNL     1      -1.405  -0.639  -0.210  0.00  0.00    -0.288 NA
ENDROOT
BRANCH   1   2
ATOM      2  C   UNL     1      -1.787   0.172   0.954  0.00  0.00    +0.125 C 
BRANCH   2  10
ATOM      3  C   UNL     1       2.719  -0.050   5.205  0.00  0.00    +0.121 A 
ATOM      4  C   UNL     1       2.184  -1.109   5.935  0.00  0.00    +0.047 A 
ATOM      5  C   UNL     1       0.999  -1.698   5.553  0.00  0.00    +0.030 A 
ATOM      6  C   UNL     1       0.324  -1.234   4.428  0.00  0.00    +0.049 A 
ATOM      7  C   UNL     1       0.861  -0.164   3.687  0.00  0.00    +0.002 A 
ATOM      8  C   UNL     1       2.066   0.425   4.086  0.00  0.00    +0.055 A 
ATOM      9  C   UNL     1       0.144   0.310   2.502  0.00  0.00    +0.020 A 
ATOM     10  C   UNL     1      -1.022  -0.295   2.165  0.00  0.00    +0.031 A 
ATOM     11  C   UNL     1      -1.518  -1.364   2.941  0.00  0.00    +0.254 A 
ATOM     12  O   UNL     1      -2.566  -1.897   2.618  0.00  0.00    -0.268 OA
ATOM     13  N   UNL     1      -0.865  -1.810   4.028  0.00  0.00    -0.322 N 
ATOM     14  H   UNL     1      -1.291  -2.647   4.602  0.00  0.00    +0.169 HD
BRANCH   3  15
ATOM     15  O   UNL     1       3.890   0.518   5.598  0.00  0.00    -0.492 OA
BRANCH  15  17
ATOM     16  C   UNL     1       5.810   0.741   7.048  0.00  0.00    +0.048 C 
ATOM     17  C   UNL     1       4.514  -0.021   6.765  0.00  0.00    +0.225 C 
ENDBRANCH  15  17
ENDBRANCH   3  15
ENDBRANCH   2  10
ENDBRANCH   1   2
BRANCH   1  18
ATOM     18  C   UNL     1       0.049  -0.610  -0.416  0.00  0.00    +0.090 C 
BRANCH  18  19
ATOM     19  C   UNL     1       0.478   0.797  -0.835  0.00  0.00    +0.050 C 
BRANCH  19  20
ATOM     20  C   UNL     1       1.971   0.831  -1.032  0.00  0.00    -0.046 A 
ATOM     21  C   UNL     1       2.806   1.058   0.047  0.00  0.00    +0.003 A 
ATOM     22  C   UNL     1       4.176   1.083  -0.133  0.00  0.00    +0.000 A 
ATOM     23  C   UNL     1       4.712   0.891  -1.393  0.00  0.00    +0.000 A 
ATOM     24  C   UNL     1       3.877   0.670  -2.472  0.00  0.00    +0.000 A 
ATOM     25  C   UNL     1       2.507   0.639  -2.292  0.00  0.00    +0.003 A 
ENDBRANCH  19  20
ENDBRANCH  18  19
ENDBRANCH   1  18
BRANCH   1  26
ATOM     26  C   UNL     1      -1.890  -2.018  -0.072  0.00  0.00    +0.129 C 
BRANCH  26  27
ATOM     27  C   UNL     1      -1.353  -2.855  -1.205  0.00  0.00    +0.169 A 
ATOM     28  N   UNL     1      -1.492  -2.619  -2.487  0.00  0.00    -0.112 NA
ATOM     29  N   UNL     1      -0.891  -3.558  -3.132  0.00  0.00    -0.023 NA
ATOM     30  N   UNL     1      -0.380  -4.392  -2.295  0.00  0.00    -0.043 NA
ATOM     31  N   UNL     1      -0.643  -3.993  -1.097  0.00  0.00    -0.220 N 
BRANCH  31  32
ATOM     32  C   UNL     1      -0.244  -4.655   0.148  0.00  0.00    +0.221 C 
BRANCH  32  33
ATOM     33  C   UNL     1      -1.271  -5.696   0.514  0.00  0.00    +0.126 A 
ATOM     34  C   UNL     1      -1.272  -6.978   0.106  0.00  0.00    +0.046 A 
ATOM     35  C   UNL     1      -2.406  -7.591   0.685  0.00  0.00    +0.041 A 
ATOM     36  C   UNL     1      -3.035  -6.646   1.407  0.00  0.00    +0.195 A 
ATOM     37  O   UNL     1      -2.342  -5.500   1.300  0.00  0.00    -0.466 OA
ENDBRANCH  32  33
ENDBRANCH  31  32
ENDBRANCH  26  27
BRANCH  26  38
ATOM     38  C   UNL     1      -3.420  -2.027  -0.112  0.00  0.00    +0.008 C 
ATOM     39  C   UNL     1      -3.898  -1.488  -1.462  0.00  0.00    +0.009 C 
ATOM     40  C   UNL     1      -3.926  -3.459   0.073  0.00  0.00    +0.009 C 
ENDBRANCH  26  38
ENDBRANCH   1  26
TORSDOF 12
