REMARK  Name = ZINC36494982
REMARK  11 active torsions:
REMARK  status: ('A' for Active; 'I' for Inactive)
REMARK    1  A    between atoms: C_1  and  O_2
REMARK    2  A    between atoms: O_2  and  C_3
REMARK    3  A    between atoms: C_3  and  C_5
REMARK    4  A    between atoms: C_3  and  C_11
REMARK    5  A    between atoms: N_13  and  C_14
REMARK    6  A    between atoms: N_13  and  C_20
REMARK    7  A    between atoms: C_14  and  C_15
REMARK    8  A    between atoms: C_20  and  C_22
REMARK    9  A    between atoms: C_20  and  C_29
REMARK   10  A    between atoms: C_27  and  O_28
REMARK   11  A    between atoms: N_31  and  C_32
REMARK                            x       y       z     vdW  Elec       q    Type
REMARK                         _______ _______ _______ _____ _____    ______ ____
ROOT
ATOM      1  C   UNL     1      -0.240  -1.786  -4.462  0.00  0.00    +0.196 C 
ENDROOT
BRANCH   1   2
ATOM      2  C   UNL     1      -0.130  -3.257  -4.155  0.00  0.00    +0.023 A 
ATOM      3  C   UNL     1       0.743  -4.050  -4.875  0.00  0.00    +0.009 A 
ATOM      4  C   UNL     1       0.843  -5.400  -4.594  0.00  0.00    +0.001 A 
ATOM      5  C   UNL     1       0.071  -5.960  -3.593  0.00  0.00    +0.004 A 
ATOM      6  C   UNL     1      -0.803  -5.171  -2.871  0.00  0.00    +0.046 A 
ATOM      7  C   UNL     1      -0.902  -3.815  -3.147  0.00  0.00    +0.122 A 
BRANCH   7   8
ATOM      8  O   UNL     1      -1.757  -3.036  -2.434  0.00  0.00    -0.506 OA
ATOM      9  H   UNL     1      -2.665  -3.041  -2.768  0.00  0.00    +0.292 HD
ENDBRANCH   7   8
ENDBRANCH   1   2
BRANCH   1  10
ATOM     10  C   UNL     1       0.417  -1.498  -5.787  0.00  0.00    +0.238 C 
ATOM     11  O   UNL     1       1.432  -0.837  -5.831  0.00  0.00    -0.273 OA
ATOM     12  N   UNL     1      -0.125  -1.977  -6.925  0.00  0.00    -0.311 N 
ATOM     13  H   UNL     1      -0.975  -2.444  -6.899  0.00  0.00    +0.149 HD
BRANCH  12  14
ATOM     14  C   UNL     1       0.570  -1.792  -8.201  0.00  0.00    +0.073 C 
ATOM     15  C   UNL     1       0.215  -0.422  -8.782  0.00  0.00    +0.022 C 
ATOM     16  C   UNL     1       0.941  -0.229 -10.115  0.00  0.00    +0.002 C 
ATOM     17  C   UNL     1       0.511  -1.324 -11.093  0.00  0.00    +0.000 C 
ATOM     18  C   UNL     1       0.866  -2.695 -10.512  0.00  0.00    +0.002 C 
ATOM     19  C   UNL     1       0.140  -2.888  -9.179  0.00  0.00    +0.022 C 
ENDBRANCH  12  14
ENDBRANCH   1  10
BRANCH   1  22
ATOM     20  C   UNL     1       1.707  -1.292  -3.082  0.00  0.00    +0.250 C 
ATOM     21  O   UNL     1       2.343  -2.089  -3.739  0.00  0.00    -0.272 OA
ATOM     22  N   UNL     1       0.429  -1.016  -3.409  0.00  0.00    -0.276 N 
BRANCH  20  23
ATOM     23  C   UNL     1       2.346  -0.610  -1.900  0.00  0.00    +0.233 C 
BRANCH  23  24
ATOM     24  C   UNL     1       2.733   0.796  -2.280  0.00  0.00    -0.010 A 
ATOM     25  C   UNL     1       3.789   1.012  -3.146  0.00  0.00    +0.006 A 
ATOM     26  C   UNL     1       4.144   2.302  -3.495  0.00  0.00    +0.000 A 
ATOM     27  C   UNL     1       3.443   3.375  -2.979  0.00  0.00    +0.000 A 
ATOM     28  C   UNL     1       2.387   3.160  -2.114  0.00  0.00    +0.000 A 
ATOM     29  C   UNL     1       2.029   1.870  -1.768  0.00  0.00    +0.006 A 
ENDBRANCH  23  24
BRANCH  23  31
ATOM     30  C   UNL     1       3.263  -2.353  -0.534  0.00  0.00    +0.195 C 
ATOM     31  O   UNL     1       3.513  -1.334  -1.505  0.00  0.00    -0.366 OA
ENDBRANCH  23  31
ENDBRANCH  20  23
BRANCH  22  32
ATOM     32  C   UNL     1      -0.291   0.052  -2.712  0.00  0.00    +0.183 C 
BRANCH  32  33
ATOM     33  C   UNL     1      -0.439   1.239  -3.628  0.00  0.00    +0.122 A 
ATOM     34  C   UNL     1      -1.513   1.518  -4.389  0.00  0.00    +0.046 A 
ATOM     35  C   UNL     1      -1.224   2.715  -5.083  0.00  0.00    +0.041 A 
ATOM     36  C   UNL     1       0.009   3.096  -4.706  0.00  0.00    +0.195 A 
ATOM     37  O   UNL     1       0.478   2.202  -3.820  0.00  0.00    -0.466 OA
ENDBRANCH  32  33
ENDBRANCH  22  32
ENDBRANCH   1  22
TORSDOF 10
