REMARK  Name = ZINC09429704
REMARK  6 active torsions:
REMARK  status: ('A' for Active; 'I' for Inactive)
REMARK    1  A    between atoms: C_1  and  O_2
REMARK    2  A    between atoms: O_2  and  C_3
REMARK    3  A    between atoms: C_3  and  C_4
REMARK    4  A    between atoms: C_4  and  N_5
REMARK    5  A    between atoms: C_22  and  C_23
REMARK    6  A    between atoms: C_22  and  N_64
REMARK                            x       y       z     vdW  Elec       q    Type
REMARK                         _______ _______ _______ _____ _____    ______ ____
ROOT
ATOM      1  N   UNL     1      -0.698   1.558   1.213  0.00  0.00    -0.223 N 
ATOM      2  C   UNL     1      -1.667   0.802   1.750  0.00  0.00    +0.240 C 
ATOM      3  O   UNL     1      -1.949  -0.253   1.224  0.00  0.00    -0.274 OA
ATOM      4  C   UNL     1      -2.412   1.225   2.983  0.00  0.00    +0.144 C 
ATOM      5  C   UNL     1      -3.907   1.325   2.670  0.00  0.00    +0.064 C 
ATOM      6  C   UNL     1      -4.695   1.411   3.952  0.00  0.00    -0.025 A 
ATOM      7  C   UNL     1      -6.016   1.825   3.882  0.00  0.00    +0.005 A 
ATOM      8  C   UNL     1      -6.788   1.903   5.023  0.00  0.00    +0.000 A 
ATOM      9  C   UNL     1      -6.242   1.566   6.249  0.00  0.00    +0.002 A 
ATOM     10  C   UNL     1      -4.928   1.158   6.328  0.00  0.00    +0.023 A 
ATOM     11  C   UNL     1      -4.141   1.081   5.178  0.00  0.00    +0.033 A 
ATOM     12  N   UNL     1      -2.819   0.672   5.321  0.00  0.00    -0.329 N 
ATOM     13  C   UNL     1      -2.231   0.168   4.078  0.00  0.00    +0.081 C 
ATOM     14  C   UNL     1      -0.740  -0.102   4.293  0.00  0.00    -0.054 C 
ATOM     15  C   UNL     1      -1.171  -0.573   6.630  0.00  0.00    -0.059 C 
ATOM     16  C   UNL     1      -2.662  -0.298   6.412  0.00  0.00    +0.087 C 
ATOM     17  C   UNL     1      -1.911   2.552   3.478  0.00  0.00    +0.238 C 
ATOM     18  O   UNL     1      -2.408   3.035   4.473  0.00  0.00    -0.274 OA
ATOM     19  N   UNL     1      -0.930   3.217   2.852  0.00  0.00    -0.239 N 
ATOM     20  C   UNL     1      -0.335   2.732   1.751  0.00  0.00    +0.315 C 
ATOM     21  O   UNL     1       0.551   3.376   1.225  0.00  0.00    -0.252 OA
ATOM     22  H   UNL     1      -0.640   4.072   3.206  0.00  0.00    +0.159 HD
ATOM     23  N   UNL     1      -0.592  -1.099   5.376  0.00  0.00    +0.385 N 
ATOM     24  H   UNL     1      -1.091  -1.956   5.111  0.00  0.00    -0.081 HD
ENDROOT
BRANCH   1  25
ATOM     25  C   UNL     1      -0.013   1.086   0.008  0.00  0.00    +0.146 C 
BRANCH  25  26
ATOM     26  C   UNL     1      -0.753   1.593  -1.232  0.00  0.00    +0.179 C 
BRANCH  26  28
ATOM     27  C   UNL     1      -1.335   3.596  -2.411  0.00  0.00    +0.194 C 
ATOM     28  O   UNL     1      -0.672   3.018  -1.285  0.00  0.00    -0.381 OA
ENDBRANCH  26  28
ENDBRANCH  25  26
ENDBRANCH   1  25
BRANCH  23  29
ATOM     29  C   UNL     1       0.838  -1.419   5.575  0.00  0.00    -0.043 C 
BRANCH  29  30
ATOM     30  C   UNL     1       0.946  -2.588   6.520  0.00  0.00    -0.060 A 
ATOM     31  C   UNL     1       0.938  -3.878   6.025  0.00  0.00    +0.005 A 
ATOM     32  C   UNL     1       1.038  -4.954   6.888  0.00  0.00    +0.050 A 
ATOM     33  C   UNL     1       1.147  -4.740   8.252  0.00  0.00    +0.166 A 
ATOM     34  C   UNL     1       1.155  -3.440   8.751  0.00  0.00    +0.166 A 
ATOM     35  C   UNL     1       1.060  -2.367   7.880  0.00  0.00    +0.051 A 
ATOM     36  O   UNL     1       1.270  -3.495  10.110  0.00  0.00    -0.453 OA
ATOM     37  C   UNL     1       1.742  -4.824  10.403  0.00  0.00    +0.466 C 
ATOM     38  O   UNL     1       1.257  -5.610   9.299  0.00  0.00    -0.453 OA
ENDBRANCH  29  30
ENDBRANCH  23  29
TORSDOF 5
