REMARK  Name = ZINC06194935
REMARK  7 active torsions:
REMARK  status: ('A' for Active; 'I' for Inactive)
REMARK    1  A    between atoms: C_1  and  C_2
REMARK    2  A    between atoms: C_6  and  C_15
REMARK    3  A    between atoms: C_13  and  C_14
REMARK    4  A    between atoms: C_15  and  C_17
REMARK    5  A    between atoms: C_15  and  N_69
REMARK    6  A    between atoms: N_21  and  C_22
REMARK    7  A    between atoms: N_29  and  C_32
REMARK                            x       y       z     vdW  Elec       q    Type
REMARK                         _______ _______ _______ _____ _____    ______ ____
ROOT
ATOM      1  C   UNL     1      -4.986   3.843   0.044  0.00  0.00    +0.039 C 
ENDROOT
BRANCH   1   7
ATOM      2  C   UNL     1       2.471   3.924  -0.002  0.00  0.00    +0.044 C 
ATOM      3  C   UNL     1       1.165   3.172   0.007  0.00  0.00    -0.047 A 
ATOM      4  C   UNL     1      -0.014   3.863   0.021  0.00  0.00    +0.013 A 
ATOM      5  C   UNL     1      -1.226   3.165   0.030  0.00  0.00    -0.001 A 
ATOM      6  C   UNL     1      -2.507   3.874   0.045  0.00  0.00    +0.017 A 
ATOM      7  C   UNL     1      -3.650   3.145   0.035  0.00  0.00    +0.011 A 
ATOM      8  C   UNL     1      -3.594   1.735   0.028  0.00  0.00    +0.251 A 
ATOM      9  O   UNL     1      -4.634   1.099   0.030  0.00  0.00    -0.268 OA
ATOM     10  N   UNL     1      -2.423   1.075   0.019  0.00  0.00    -0.322 N 
ATOM     11  H   UNL     1      -2.420   0.105   0.014  0.00  0.00    +0.169 HD
ATOM     12  C   UNL     1      -1.225   1.757   0.017  0.00  0.00    +0.049 A 
ATOM     13  C   UNL     1      -0.013   1.076   0.008  0.00  0.00    +0.030 A 
ATOM     14  C   UNL     1       1.170   1.784   0.001  0.00  0.00    -0.046 A 
ATOM     15  C   UNL     1       2.482   1.043  -0.015  0.00  0.00    +0.044 C 
ENDBRANCH   1   7
BRANCH   1  21
ATOM     16  C   UNL     1      -5.083   3.571  -2.360  0.00  0.00    -0.058 C 
ATOM     17  C   UNL     1      -5.920   2.997  -3.505  0.00  0.00    +0.086 C 
ATOM     18  N   UNL     1      -7.233   3.657  -3.528  0.00  0.00    -0.331 N 
ATOM     19  C   UNL     1      -7.943   3.457  -2.257  0.00  0.00    +0.086 C 
ATOM     20  C   UNL     1      -7.105   4.032  -1.112  0.00  0.00    -0.058 C 
ATOM     21  N   UNL     1      -5.797   3.344  -1.086  0.00  0.00    +0.391 N 
ATOM     22  H   UNL     1      -5.953   2.336  -0.966  0.00  0.00    -0.080 HD
BRANCH  18  23
ATOM     23  C   UNL     1      -8.001   3.208  -4.607  0.00  0.00    +0.065 A 
ATOM     24  C   UNL     1      -9.250   3.764  -4.851  0.00  0.00    +0.026 A 
ATOM     25  C   UNL     1     -10.005   3.321  -5.920  0.00  0.00    +0.002 A 
ATOM     26  C   UNL     1      -9.523   2.319  -6.742  0.00  0.00    +0.003 A 
ATOM     27  C   UNL     1      -8.281   1.759  -6.500  0.00  0.00    +0.040 A 
ATOM     28  C   UNL     1      -7.519   2.200  -5.434  0.00  0.00    +0.144 A 
ATOM     29  F   UNL     1      -6.306   1.652  -5.197  0.00  0.00    -0.204 F 
ENDBRANCH  18  23
ENDBRANCH   1  21
BRANCH   1  30
ATOM     30  C   UNL     1      -5.704   3.538   1.334  0.00  0.00    +0.143 A 
ATOM     31  N   UNL     1      -6.294   2.412   1.653  0.00  0.00    -0.115 NA
ATOM     32  N   UNL     1      -6.790   2.543   2.835  0.00  0.00    -0.023 NA
ATOM     33  N   UNL     1      -6.531   3.724   3.278  0.00  0.00    -0.044 NA
ATOM     34  N   UNL     1      -5.858   4.366   2.384  0.00  0.00    -0.227 N 
BRANCH  34  35
ATOM     35  C   UNL     1      -5.358   5.739   2.490  0.00  0.00    +0.111 C 
ATOM     36  C   UNL     1      -4.433   5.871   3.717  0.00  0.00    +0.027 C 
ATOM     37  C   UNL     1      -4.747   7.282   4.277  0.00  0.00    +0.002 C 
ATOM     38  C   UNL     1      -6.277   7.400   4.071  0.00  0.00    +0.002 C 
ATOM     39  C   UNL     1      -6.530   6.710   2.714  0.00  0.00    +0.027 C 
ENDBRANCH  34  35
ENDBRANCH   1  30
TORSDOF 5
