REMARK  Name = ZINC09363766
REMARK  16 active torsions:
REMARK  status: ('A' for Active; 'I' for Inactive)
REMARK    1  A    between atoms: C_1  and  C_2
REMARK    2  A    between atoms: C_2  and  N_68
REMARK    3  A    between atoms: C_3  and  C_4
REMARK    4  A    between atoms: C_3  and  N_68
REMARK    5  A    between atoms: C_5  and  C_6
REMARK    6  A    between atoms: C_5  and  N_68
REMARK    7  A    between atoms: C_6  and  O_7
REMARK    8  A    between atoms: O_7  and  C_8
REMARK    9  A    between atoms: C_8  and  C_10
REMARK   10  A    between atoms: C_13  and  N_16
REMARK   11  A    between atoms: C_17  and  C_19
REMARK   12  A    between atoms: C_19  and  C_20
REMARK   13  A    between atoms: C_20  and  N_21
REMARK   14  A    between atoms: C_25  and  C_26
REMARK   15  A    between atoms: C_29  and  O_32
REMARK   16  A    between atoms: O_32  and  C_33
REMARK                            x       y       z     vdW  Elec       q    Type
REMARK                         _______ _______ _______ _____ _____    ______ ____
ROOT
ATOM      1  N   UNL     1       4.835   1.013  -4.134  0.00  0.00    -0.285 N 
ATOM      2  C   UNL     1       4.130   0.431  -3.144  0.00  0.00    +0.219 C 
ATOM      3  O   UNL     1       4.678  -0.331  -2.376  0.00  0.00    -0.275 OA
ATOM      4  H   UNL     1       4.414   1.674  -4.706  0.00  0.00    +0.155 HD
ENDROOT
BRANCH   1   8
ATOM      5  C   UNL     1       8.824  -0.025  -4.739  0.00  0.00    +0.059 A 
ATOM      6  C   UNL     1       8.005   0.276  -5.831  0.00  0.00    +0.017 A 
ATOM      7  C   UNL     1       6.687   0.619  -5.627  0.00  0.00    +0.024 A 
ATOM      8  C   UNL     1       6.170   0.666  -4.336  0.00  0.00    +0.033 A 
ATOM      9  C   UNL     1       6.984   0.373  -3.246  0.00  0.00    +0.024 A 
ATOM     10  C   UNL     1       8.301   0.024  -3.443  0.00  0.00    +0.017 A 
BRANCH   5  11
ATOM     11  C   UNL     1      10.236  -0.392  -4.953  0.00  0.00    +0.339 C 
ATOM     12  O   UNL     1      10.689  -0.433  -6.079  0.00  0.00    -0.245 OA
BRANCH  11  13
ATOM     13  O   UNL     1      11.024  -0.681  -3.899  0.00  0.00    -0.463 OA
BRANCH  13  14
ATOM     14  C   UNL     1      12.403  -1.034  -4.184  0.00  0.00    +0.214 C 
BRANCH  14  15
ATOM     15  C   UNL     1      13.103  -1.446  -2.887  0.00  0.00    -0.037 C 
BRANCH  15  16
ATOM     16  N   UNL     1      12.427  -2.643  -2.344  0.00  0.00    +0.382 N 
ATOM     17  H   UNL     1      11.412  -2.525  -2.440  0.00  0.00    -0.082 HD
BRANCH  16  19
ATOM     18  C   UNL     1      11.969  -5.024  -2.670  0.00  0.00    -0.017 C 
ATOM     19  C   UNL     1      12.844  -3.844  -3.099  0.00  0.00    -0.082 C 
ENDBRANCH  16  19
BRANCH  16  20
ATOM     20  C   UNL     1      12.759  -2.805  -0.913  0.00  0.00    -0.082 C 
ATOM     21  C   UNL     1      11.932  -1.806  -0.102  0.00  0.00    -0.017 C 
ENDBRANCH  16  20
ENDBRANCH  15  16
ENDBRANCH  14  15
ENDBRANCH  13  14
ENDBRANCH  11  13
ENDBRANCH   5  11
ENDBRANCH   1   8
BRANCH   2  22
ATOM     22  C   UNL     1       2.660   0.725  -2.992  0.00  0.00    +0.115 C 
BRANCH  22  23
ATOM     23  C   UNL     1       2.103  -0.058  -1.801  0.00  0.00    +0.127 C 
BRANCH  23  24
ATOM     24  N   UNL     1       0.674   0.229  -1.654  0.00  0.00    -0.228 N 
ATOM     25  C   UNL     1       0.293   1.240  -0.890  0.00  0.00    +0.260 C 
ATOM     26  O   UNL     1       1.100   1.939  -0.307  0.00  0.00    -0.269 OA
ATOM     27  C   UNL     1      -1.160   1.476  -0.783  0.00  0.00    +0.080 C 
ATOM     28  C   UNL     1      -1.833   2.425  -0.083  0.00  0.00    +0.028 C 
ATOM     29  S   UNL     1      -1.790   0.174  -1.833  0.00  0.00    -0.026 S 
ATOM     30  C   UNL     1      -0.223  -0.544  -2.299  0.00  0.00    +0.286 C 
ATOM     31  O   UNL     1      -0.015  -1.497  -3.026  0.00  0.00    -0.262 OA
BRANCH  28  32
ATOM     32  C   UNL     1      -1.112   3.292   0.857  0.00  0.00    -0.024 A 
ATOM     33  C   UNL     1      -0.056   2.778   1.620  0.00  0.00    +0.011 A 
ATOM     34  C   UNL     1       0.620   3.597   2.496  0.00  0.00    +0.046 A 
ATOM     35  C   UNL     1       0.248   4.930   2.633  0.00  0.00    +0.120 A 
ATOM     36  C   UNL     1      -0.803   5.444   1.882  0.00  0.00    +0.046 A 
ATOM     37  C   UNL     1      -1.482   4.636   0.999  0.00  0.00    +0.011 A 
BRANCH  35  38
ATOM     38  O   UNL     1       0.914   5.732   3.502  0.00  0.00    -0.495 OA
ATOM     39  C   UNL     1       1.984   5.139   4.242  0.00  0.00    +0.277 C 
ENDBRANCH  35  38
ENDBRANCH  28  32
ENDBRANCH  23  24
ENDBRANCH  22  23
ENDBRANCH   2  22
TORSDOF 13
