REMARK  Name = ZINC22450445
REMARK  3 active torsions:
REMARK  status: ('A' for Active; 'I' for Inactive)
REMARK    1  A    between atoms: C_1  and  O_2
REMARK    2  A    between atoms: O_2  and  C_3
REMARK    3  A    between atoms: C_7  and  C_9
REMARK                            x       y       z     vdW  Elec       q    Type
REMARK                         _______ _______ _______ _____ _____    ______ ____
ROOT
ATOM      1  C   UNL     1      -0.076   5.330   0.029  0.00  0.00    +0.080 A 
ATOM      2  C   UNL     1      -1.287   6.006   0.044  0.00  0.00    +0.098 A 
ATOM      3  C   UNL     1      -1.274   7.409   0.052  0.00  0.00    +0.253 A 
ATOM      4  O   UNL     1      -2.319   8.039   0.064  0.00  0.00    -0.268 OA
ATOM      5  N   UNL     1      -0.086   8.049   0.044  0.00  0.00    -0.295 N 
ATOM      6  H   UNL     1      -0.054   9.149   0.050  0.00  0.00    +0.172 HD
ATOM      7  C   UNL     1       1.074   7.338   0.029  0.00  0.00    +0.199 A 
ATOM      8  N   UNL     1       1.071   6.021   0.028  0.00  0.00    -0.216 NA
ATOM      9  N   UNL     1       2.270   8.005   0.022  0.00  0.00    -0.296 N 
ATOM     10  C   UNL     1       3.398   7.069   0.148  0.00  0.00    +0.113 C 
ATOM     11  C   UNL     1       4.684   7.804  -0.230  0.00  0.00    +0.054 C 
ATOM     12  C   UNL     1       4.775   9.104   0.528  0.00  0.00    -0.041 A 
ATOM     13  C   UNL     1       6.004   9.742   0.601  0.00  0.00    +0.004 A 
ATOM     14  C   UNL     1       6.129  10.938   1.278  0.00  0.00    +0.000 A 
ATOM     15  C   UNL     1       5.024  11.503   1.886  0.00  0.00    +0.000 A 
ATOM     16  C   UNL     1       3.801  10.868   1.816  0.00  0.00    +0.005 A 
ATOM     17  C   UNL     1       3.673   9.665   1.137  0.00  0.00    -0.027 A 
ATOM     18  C   UNL     1       2.319   9.007   1.092  0.00  0.00    +0.143 C 
ENDROOT
BRANCH   1  23
ATOM     19  C   UNL     1       1.182   1.784   0.000  0.00  0.00    +0.121 A 
ATOM     20  C   UNL     1      -0.013   1.076   0.008  0.00  0.00    +0.045 A 
ATOM     21  C   UNL     1      -1.220   1.748   0.017  0.00  0.00    +0.004 A 
ATOM     22  C   UNL     1      -1.246   3.128   0.030  0.00  0.00    +0.010 A 
ATOM     23  C   UNL     1      -0.051   3.848   0.022  0.00  0.00    +0.004 A 
ATOM     24  C   UNL     1       1.166   3.169   0.007  0.00  0.00    +0.055 A 
BRANCH  19  26
ATOM     25  C   UNL     1       2.308  -0.309  -0.021  0.00  0.00    +0.277 C 
ATOM     26  O   UNL     1       2.366   1.118  -0.014  0.00  0.00    -0.495 OA
ENDBRANCH  19  26
ENDBRANCH   1  23
TORSDOF 2
