REMARK  Name = ZINC04172263
REMARK  4 active torsions:
REMARK  status: ('A' for Active; 'I' for Inactive)
REMARK    1  A    between atoms: C_7  and  C_17
REMARK    2  A    between atoms: C_10  and  N_11
REMARK    3  A    between atoms: C_20  and  N_26
REMARK    4  A    between atoms: C_21  and  N_23
REMARK                            x       y       z     vdW  Elec       q    Type
REMARK                         _______ _______ _______ _____ _____    ______ ____
ROOT
ATOM      1  C   UNL     1       0.054   1.264   0.896  0.00  0.00    +0.001 A 
ATOM      2  C   UNL     1       1.238   1.997   0.883  0.00  0.00    +0.001 A 
ATOM      3  C   UNL     1       2.428   1.405   0.576  0.00  0.00    +0.012 A 
ATOM      4  C   UNL     1       2.458   0.041   0.270  0.00  0.00    +0.024 A 
ATOM      5  C   UNL     1       1.252  -0.706   0.283  0.00  0.00    +0.013 A 
ATOM      6  C   UNL     1       0.050  -0.069   0.601  0.00  0.00    +0.011 A 
ATOM      7  C   UNL     1       1.328  -2.085  -0.033  0.00  0.00    +0.099 A 
ATOM      8  N   UNL     1       2.507  -2.611  -0.323  0.00  0.00    -0.172 NA
ATOM      9  N   UNL     1       3.595  -1.935  -0.334  0.00  0.00    -0.263 N 
ATOM     10  C   UNL     1       3.651  -0.643  -0.057  0.00  0.00    +0.123 A 
ATOM     11  H   UNL     1       4.419  -2.394  -0.557  0.00  0.00    +0.190 HD
ENDROOT
BRANCH  10  12
ATOM     12  N   UNL     1       4.862   0.029  -0.087  0.00  0.00    -0.311 N 
ATOM     13  C   UNL     1       5.706   0.126   1.115  0.00  0.00    +0.134 C 
ATOM     14  C   UNL     1       7.128  -0.307   0.743  0.00  0.00    +0.178 C 
ATOM     15  O   UNL     1       7.563   0.436  -0.399  0.00  0.00    -0.377 OA
ATOM     16  C   UNL     1       6.783   0.210  -1.576  0.00  0.00    +0.178 C 
ATOM     17  C   UNL     1       5.345   0.664  -1.324  0.00  0.00    +0.134 C 
ENDBRANCH  10  12
BRANCH   7  18
ATOM     18  C   UNL     1       0.109  -2.924  -0.038  0.00  0.00    +0.005 A 
ATOM     19  C   UNL     1      -1.061  -2.454  -0.638  0.00  0.00    +0.012 A 
ATOM     20  C   UNL     1      -2.194  -3.237  -0.641  0.00  0.00    +0.026 A 
ATOM     21  C   UNL     1      -2.174  -4.495  -0.048  0.00  0.00    +0.060 A 
ATOM     22  C   UNL     1      -1.010  -4.966   0.550  0.00  0.00    +0.148 A 
ATOM     23  C   UNL     1       0.128  -4.189   0.551  0.00  0.00    +0.044 A 
BRANCH  21  24
ATOM     24  N   UNL     1      -3.324  -5.285  -0.052  0.00  0.00    -0.324 N 
ATOM     25  C   UNL     1      -4.307  -5.198   1.039  0.00  0.00    +0.133 C 
ATOM     26  C   UNL     1      -5.698  -5.010   0.423  0.00  0.00    +0.178 C 
ATOM     27  O   UNL     1      -5.922  -6.029  -0.554  0.00  0.00    -0.377 OA
ATOM     28  C   UNL     1      -5.015  -5.991  -1.658  0.00  0.00    +0.178 C 
ATOM     29  C   UNL     1      -3.591  -6.226  -1.151  0.00  0.00    +0.133 C 
ENDBRANCH  21  24
BRANCH  22  30
ATOM     30  N   UNL     1      -0.993  -6.304   1.181  0.00  0.00    +0.058 N 
ATOM     31  O   UNL     1       0.019  -6.714   1.701  0.00  0.00    -0.126 OA
ATOM     32  O   UNL     1      -1.990  -6.988   1.176  0.00  0.00    -0.126 OA
ENDBRANCH  22  30
ENDBRANCH   7  18
TORSDOF 4
