REMARK  Name = ZINC04452883
REMARK  12 active torsions:
REMARK  status: ('A' for Active; 'I' for Inactive)
REMARK    1  A    between atoms: C_1  and  C_2
REMARK    2  A    between atoms: C_2  and  O_3
REMARK    3  A    between atoms: O_3  and  C_4
REMARK    4  A    between atoms: C_6  and  C_14
REMARK    5  A    between atoms: C_9  and  O_10
REMARK    6  A    between atoms: O_10  and  C_11
REMARK    7  A    between atoms: C_11  and  C_12
REMARK    8  A    between atoms: C_11  and  C_13
REMARK    9  A    between atoms: C_22  and  C_30
REMARK   10  A    between atoms: C_24  and  C_25
REMARK   11  A    between atoms: C_24  and  C_27
REMARK   12  A    between atoms: C_32  and  N_58
REMARK                            x       y       z     vdW  Elec       q    Type
REMARK                         _______ _______ _______ _____ _____    ______ ____
ROOT
ATOM      1  C   UNL     1       2.331  -1.277   4.451  0.00  0.00    +0.064 C 
ATOM      2  C   UNL     1       3.425  -0.597   5.277  0.00  0.00    +0.010 C 
ATOM      3  C   UNL     1       3.859   0.716   4.666  0.00  0.00    -0.070 C 
ATOM      4  C   UNL     1       6.189   0.105   4.766  0.00  0.00    -0.051 C 
ATOM      5  C   UNL     1       5.814  -1.270   5.261  0.00  0.00    -0.044 C 
ATOM      6  C   UNL     1       4.556  -1.571   5.448  0.00  0.00    -0.051 C 
ATOM      7  C   UNL     1       4.199  -2.964   5.817  0.00  0.00    +0.163 C 
ATOM      8  C   UNL     1       2.910  -3.374   5.697  0.00  0.00    +0.065 C 
ATOM      9  C   UNL     1       1.800  -2.482   5.227  0.00  0.00    +0.188 C 
ATOM     10  N   UNL     1       2.610  -4.667   6.020  0.00  0.00    -0.304 NA
ATOM     11  C   UNL     1       5.457   1.848   3.246  0.00  0.00    -0.096 C 
ATOM     12  H   UNL     1       3.309  -5.266   6.327  0.00  0.00    +0.186 HD
ATOM     13  N   UNL     1       5.094   0.561   3.881  0.00  0.00    +0.381 N 
ATOM     14  H   UNL     1       4.940  -0.141   3.148  0.00  0.00    -0.082 HD
ENDROOT
BRANCH   1  17
ATOM     15  C   UNL     1      -0.283   1.394   5.004  0.00  0.00    +0.162 A 
ATOM     16  C   UNL     1       0.753   0.502   5.230  0.00  0.00    +0.053 A 
ATOM     17  C   UNL     1       1.209  -0.303   4.202  0.00  0.00    -0.037 A 
ATOM     18  C   UNL     1       0.640  -0.212   2.945  0.00  0.00    +0.008 A 
ATOM     19  C   UNL     1      -0.389   0.680   2.711  0.00  0.00    +0.050 A 
ATOM     20  C   UNL     1      -0.855   1.485   3.738  0.00  0.00    +0.162 A 
BRANCH  15  21
ATOM     21  O   UNL     1      -0.736   2.182   6.015  0.00  0.00    -0.489 OA
BRANCH  21  23
ATOM     22  C   UNL     1      -0.742   2.996   8.290  0.00  0.00    +0.048 C 
ATOM     23  C   UNL     1      -0.102   2.034   7.287  0.00  0.00    +0.226 C 
ENDBRANCH  21  23
ENDBRANCH  15  21
BRANCH  20  24
ATOM     24  O   UNL     1      -1.867   2.364   3.510  0.00  0.00    -0.486 OA
BRANCH  24  25
ATOM     25  C   UNL     1      -2.331   2.483   2.163  0.00  0.00    +0.167 C 
ATOM     26  C   UNL     1      -3.372   1.397   1.885  0.00  0.00    +0.051 C 
ATOM     27  C   UNL     1      -2.966   3.861   1.963  0.00  0.00    +0.051 C 
ENDBRANCH  24  25
ENDBRANCH  20  24
ENDBRANCH   1  17
BRANCH   9  28
ATOM     28  C   UNL     1       1.042  -2.005   6.395  0.00  0.00    +0.091 C 
ATOM     29  N   UNL     1       0.457  -1.637   7.296  0.00  0.00    -0.195 NA
ENDBRANCH   9  28
BRANCH   9  30
ATOM     30  C   UNL     1       0.900  -3.256   4.356  0.00  0.00    +0.091 C 
ATOM     31  N   UNL     1       0.206  -3.852   3.683  0.00  0.00    -0.195 NA
ENDBRANCH   9  30
BRANCH   7  32
ATOM     32  C   UNL     1       5.203  -3.866   6.296  0.00  0.00    +0.076 C 
ATOM     33  N   UNL     1       6.000  -4.581   6.675  0.00  0.00    -0.196 NA
ENDBRANCH   7  32
TORSDOF 8
