REMARK  Name = ZINC09545556
REMARK  11 active torsions:
REMARK  status: ('A' for Active; 'I' for Inactive)
REMARK    1  A    between atoms: C_1  and  C_2
REMARK    2  A    between atoms: C_2  and  O_3
REMARK    3  A    between atoms: O_3  and  C_4
REMARK    4  A    between atoms: C_4  and  C_6
REMARK    5  A    between atoms: C_6  and  C_7
REMARK    6  A    between atoms: C_7  and  N_8
REMARK    7  A    between atoms: C_12  and  S_28
REMARK    8  A    between atoms: N_17  and  C_18
REMARK    9  A    between atoms: C_18  and  C_20
REMARK   10  A    between atoms: C_23  and  C_26
REMARK   11  A    between atoms: S_28  and  N_31
REMARK                            x       y       z     vdW  Elec       q    Type
REMARK                         _______ _______ _______ _____ _____    ______ ____
ROOT
ATOM      1  N   UNL     1      -0.020   1.094   2.454  0.00  0.00    -0.321 N 
ATOM      2  C   UNL     1      -0.368  -0.119   3.017  0.00  0.00    +0.058 A 
ATOM      3  C   UNL     1      -1.362  -1.020   2.601  0.00  0.00    +0.029 A 
ATOM      4  C   UNL     1      -1.577  -2.193   3.284  0.00  0.00    +0.030 A 
ATOM      5  C   UNL     1      -0.824  -2.524   4.399  0.00  0.00    +0.106 A 
ATOM      6  C   UNL     1       0.169  -1.660   4.824  0.00  0.00    +0.045 A 
ATOM      7  C   UNL     1       0.381  -0.483   4.146  0.00  0.00    +0.041 A 
ATOM      8  S   UNL     1       1.498   0.881   4.350  0.00  0.00    -0.052 S 
ATOM      9  C   UNL     1       0.975   1.841   3.003  0.00  0.00    +0.167 A 
ATOM     10  N   UNL     1       1.436   3.021   2.604  0.00  0.00    -0.152 NA
ENDROOT
BRANCH   5  11
ATOM     11  S   UNL     1      -1.119  -4.034   5.257  0.00  0.00    +0.056 S 
ATOM     12  O   UNL     1      -0.646  -3.846   6.584  0.00  0.00    -0.153 OA
ATOM     13  O   UNL     1      -2.460  -4.408   4.972  0.00  0.00    -0.153 OA
BRANCH  11  14
ATOM     14  N   UNL     1      -0.150  -5.187   4.568  0.00  0.00    -0.204 NA
ATOM     15  H   UNL     1       0.433  -4.952   3.829  0.00  0.00    +0.144 HD
ATOM     16  H   UNL     1      -0.165  -6.097   4.902  0.00  0.00    +0.144 HD
ENDBRANCH  11  14
ENDBRANCH   5  11
BRANCH  10  17
ATOM     17  C   UNL     1       2.430   3.612   3.274  0.00  0.00    +0.269 C 
ATOM     18  O   UNL     1       2.914   3.068   4.251  0.00  0.00    -0.268 OA
BRANCH  17  19
ATOM     19  C   UNL     1       2.945   4.928   2.828  0.00  0.00    +0.039 A 
ATOM     20  C   UNL     1       2.394   5.548   1.706  0.00  0.00    +0.014 A 
ATOM     21  C   UNL     1       2.868   6.774   1.295  0.00  0.00    +0.019 A 
ATOM     22  C   UNL     1       3.907   7.392   1.994  0.00  0.00    +0.052 A 
ATOM     23  C   UNL     1       4.461   6.768   3.115  0.00  0.00    +0.019 A 
ATOM     24  C   UNL     1       3.983   5.544   3.528  0.00  0.00    +0.014 A 
BRANCH  22  25
ATOM     25  C   UNL     1       4.404   8.664   1.564  0.00  0.00    +0.099 C 
ATOM     26  N   UNL     1       4.798   9.673   1.223  0.00  0.00    -0.191 NA
ENDBRANCH  22  25
ENDBRANCH  17  19
ENDBRANCH  10  17
BRANCH   1  27
ATOM     27  C   UNL     1      -0.729   1.579   1.267  0.00  0.00    +0.135 C 
BRANCH  27  28
ATOM     28  C   UNL     1      -0.013   1.086   0.008  0.00  0.00    +0.142 C 
BRANCH  28  29
ATOM     29  C   UNL     1      -0.742   1.585  -1.213  0.00  0.00    +0.309 C 
ATOM     30  O   UNL     1      -1.732   2.266  -1.089  0.00  0.00    -0.251 OA
BRANCH  29  31
ATOM     31  O   UNL     1      -0.290   1.274  -2.438  0.00  0.00    -0.465 OA
BRANCH  31  33
ATOM     32  C   UNL     1      -0.382   1.333  -4.871  0.00  0.00    +0.048 C 
ATOM     33  C   UNL     1      -1.042   1.789  -3.568  0.00  0.00    +0.229 C 
ENDBRANCH  31  33
ENDBRANCH  29  31
ENDBRANCH  28  29
ENDBRANCH  27  28
ENDBRANCH   1  27
TORSDOF 10
