REMARK  Name = ZINC01737926
REMARK  7 active torsions:
REMARK  status: ('A' for Active; 'I' for Inactive)
REMARK    1  A    between atoms: C_1  and  N_2
REMARK    2  A    between atoms: N_2  and  C_3
REMARK    3  A    between atoms: N_2  and  C_4
REMARK    4  A    between atoms: C_7  and  C_10
REMARK    5  A    between atoms: N_14  and  N_18
REMARK    6  A    between atoms: C_19  and  C_21
REMARK    7  A    between atoms: C_25  and  N_27
REMARK                            x       y       z     vdW  Elec       q    Type
REMARK                         _______ _______ _______ _____ _____    ______ ____
ROOT
ATOM      1  C   UNL     1       1.174   3.549   0.009  0.00  0.00    +0.028 C 
ATOM      2  C   UNL     1       2.339   4.239   0.104  0.00  0.00    +0.079 C 
ATOM      3  C   UNL     1       2.565   5.692   0.230  0.00  0.00    +0.275 C 
ATOM      4  O   UNL     1       1.639   6.482   0.264  0.00  0.00    -0.267 OA
ATOM      5  N   UNL     1       3.823   6.093   0.305  0.00  0.00    -0.169 N 
ATOM      6  C   UNL     1       4.845   5.215   0.268  0.00  0.00    +0.138 C 
ATOM      7  S   UNL     1       6.525   5.534   0.350  0.00  0.00    -0.026 S 
ATOM      8  S   UNL     1       4.022   3.637   0.120  0.00  0.00    -0.059 S 
ENDROOT
BRANCH   1  12
ATOM      9  C   UNL     1       1.231  -0.592  -0.878  0.00  0.00    +0.029 A 
ATOM     10  C   UNL     1       0.038   0.022  -0.505  0.00  0.00    +0.023 A 
ATOM     11  C   UNL     1       0.015   1.362  -0.217  0.00  0.00    +0.010 A 
ATOM     12  C   UNL     1       1.194   2.114  -0.298  0.00  0.00    -0.024 A 
ATOM     13  C   UNL     1       2.392   1.492  -0.673  0.00  0.00    +0.010 A 
ATOM     14  C   UNL     1       2.405   0.152  -0.960  0.00  0.00    +0.023 A 
BRANCH   9  16
ATOM     15  C   UNL     1       0.015  -2.737  -1.085  0.00  0.00    +0.129 C 
ATOM     16  N   UNL     1       1.249  -1.953  -1.170  0.00  0.00    -0.336 N 
ATOM     17  C   UNL     1       2.503  -2.601  -1.563  0.00  0.00    +0.129 C 
ENDBRANCH   9  16
ENDBRANCH   1  12
BRANCH   5  18
ATOM     18  N   UNL     1       4.100   7.461   0.425  0.00  0.00    -0.222 N 
ATOM     19  C   UNL     1       4.491   7.968   1.611  0.00  0.00    +0.261 C 
ATOM     20  O   UNL     1       4.604   7.237   2.576  0.00  0.00    -0.269 OA
ATOM     21  H   UNL     1       4.010   8.044  -0.345  0.00  0.00    +0.174 HD
BRANCH  19  22
ATOM     22  C   UNL     1       4.784   9.411   1.738  0.00  0.00    +0.040 A 
ATOM     23  C   UNL     1       4.655  10.253   0.632  0.00  0.00    +0.013 A 
ATOM     24  C   UNL     1       4.929  11.599   0.757  0.00  0.00    +0.003 A 
ATOM     25  C   UNL     1       5.331  12.115   1.976  0.00  0.00    +0.033 A 
ATOM     26  C   UNL     1       5.460  11.287   3.077  0.00  0.00    +0.127 A 
ATOM     27  C   UNL     1       5.184   9.940   2.966  0.00  0.00    +0.045 A 
BRANCH  26  28
ATOM     28  N   UNL     1       5.890  11.849   4.377  0.00  0.00    +0.056 N 
ATOM     29  O   UNL     1       6.130  13.039   4.477  0.00  0.00    -0.126 OA
ATOM     30  O   UNL     1       6.004  11.121   5.347  0.00  0.00    -0.126 OA
ENDBRANCH  26  28
ENDBRANCH  19  22
ENDBRANCH   5  18
TORSDOF 5
