REMARK  Name = ZINC02688368
REMARK  5 active torsions:
REMARK  status: ('A' for Active; 'I' for Inactive)
REMARK    1  A    between atoms: C_1  and  C_2
REMARK    2  A    between atoms: C_2  and  N_3
REMARK    3  A    between atoms: N_14  and  N_18
REMARK    4  A    between atoms: C_19  and  C_21
REMARK    5  A    between atoms: C_26  and  O_27
REMARK                            x       y       z     vdW  Elec       q    Type
REMARK                         _______ _______ _______ _____ _____    ______ ____
ROOT
ATOM      1  N   UNL     1       0.682  -0.510  -1.194  0.00  0.00    -0.267 N 
ATOM      2  C   UNL     1       0.061  -0.703  -2.423  0.00  0.00    +0.044 A 
ATOM      3  C   UNL     1      -1.263  -0.560  -2.822  0.00  0.00    +0.024 A 
ATOM      4  C   UNL     1      -1.625  -0.821  -4.128  0.00  0.00    +0.002 A 
ATOM      5  C   UNL     1      -0.680  -1.226  -5.056  0.00  0.00    +0.001 A 
ATOM      6  C   UNL     1       0.639  -1.374  -4.680  0.00  0.00    +0.010 A 
ATOM      7  C   UNL     1       1.016  -1.114  -3.365  0.00  0.00    +0.010 A 
ATOM      8  C   UNL     1       2.308  -1.174  -2.651  0.00  0.00    +0.065 C 
ATOM      9  C   UNL     1       3.539  -1.530  -3.168  0.00  0.00    +0.091 C 
ATOM     10  C   UNL     1       3.881  -2.084  -4.506  0.00  0.00    +0.276 C 
ATOM     11  O   UNL     1       3.032  -2.296  -5.350  0.00  0.00    -0.267 OA
ATOM     12  N   UNL     1       5.162  -2.333  -4.727  0.00  0.00    -0.169 N 
ATOM     13  C   UNL     1       6.100  -2.095  -3.789  0.00  0.00    +0.138 C 
ATOM     14  S   UNL     1       7.789  -2.350  -3.890  0.00  0.00    -0.026 S 
ATOM     15  S   UNL     1       5.159  -1.444  -2.418  0.00  0.00    -0.059 S 
ATOM     16  C   UNL     1       2.000  -0.765  -1.266  0.00  0.00    +0.253 C 
ATOM     17  O   UNL     1       2.796  -0.678  -0.350  0.00  0.00    -0.270 OA
ENDROOT
BRANCH  12  18
ATOM     18  N   UNL     1       5.552  -2.856  -5.967  0.00  0.00    -0.222 N 
ATOM     19  C   UNL     1       6.162  -2.064  -6.871  0.00  0.00    +0.264 C 
ATOM     20  O   UNL     1       6.373  -0.895  -6.611  0.00  0.00    -0.269 OA
ATOM     21  H   UNL     1       5.384  -3.789  -6.174  0.00  0.00    +0.174 HD
BRANCH  19  22
ATOM     22  C   UNL     1       6.573  -2.615  -8.176  0.00  0.00    +0.079 A 
ATOM     23  C   UNL     1       6.327  -3.957  -8.481  0.00  0.00    +0.017 A 
ATOM     24  C   UNL     1       6.714  -4.465  -9.702  0.00  0.00    +0.001 A 
ATOM     25  C   UNL     1       7.347  -3.653 -10.629  0.00  0.00    +0.004 A 
ATOM     26  C   UNL     1       7.596  -2.326 -10.340  0.00  0.00    +0.046 A 
ATOM     27  C   UNL     1       7.208  -1.796  -9.119  0.00  0.00    +0.129 A 
BRANCH  27  28
ATOM     28  O   UNL     1       7.447  -0.491  -8.836  0.00  0.00    -0.506 OA
ATOM     29  H   UNL     1       8.302  -0.330  -8.414  0.00  0.00    +0.292 HD
ENDBRANCH  27  28
ENDBRANCH  19  22
ENDBRANCH  12  18
BRANCH   1  31
ATOM     30  C   UNL     1      -0.004   1.450   0.098  0.00  0.00    +0.025 C 
ATOM     31  C   UNL     1      -0.011  -0.079   0.022  0.00  0.00    +0.110 C 
ENDBRANCH   1  31
TORSDOF 4
