REMARK  Name = ZINC35686053
REMARK  8 active torsions:
REMARK  status: ('A' for Active; 'I' for Inactive)
REMARK    1  A    between atoms: C_1  and  C_2
REMARK    2  A    between atoms: C_5  and  S_11
REMARK    3  A    between atoms: C_7  and  N_8
REMARK    4  A    between atoms: S_11  and  O_14
REMARK    5  A    between atoms: O_14  and  C_15
REMARK    6  A    between atoms: C_15  and  C_16
REMARK    7  A    between atoms: C_16  and  N_17
REMARK    8  A    between atoms: C_28  and  N_30
REMARK                            x       y       z     vdW  Elec       q    Type
REMARK                         _______ _______ _______ _____ _____    ______ ____
ROOT
ATOM      1  N   UNL     1       4.776  -3.543  -0.719  0.00  0.00    -0.232 N 
ATOM      2  C   UNL     1       4.591  -3.852  -2.017  0.00  0.00    +0.254 C 
ATOM      3  O   UNL     1       4.139  -4.939  -2.321  0.00  0.00    -0.270 OA
ATOM      4  C   UNL     1       4.934  -2.883  -3.068  0.00  0.00    +0.046 A 
ATOM      5  C   UNL     1       4.762  -3.161  -4.416  0.00  0.00    +0.014 A 
ATOM      6  C   UNL     1       5.101  -2.212  -5.373  0.00  0.00    +0.001 A 
ATOM      7  C   UNL     1       5.609  -0.993  -5.024  0.00  0.00    +0.008 A 
ATOM      8  C   UNL     1       5.799  -0.672  -3.669  0.00  0.00    -0.014 A 
ATOM      9  C   UNL     1       5.458  -1.627  -2.688  0.00  0.00    +0.006 A 
ATOM     10  C   UNL     1       5.639  -1.335  -1.317  0.00  0.00    +0.048 A 
ATOM     11  C   UNL     1       6.154  -0.099  -0.953  0.00  0.00    +0.046 A 
ATOM     12  C   UNL     1       6.485   0.833  -1.930  0.00  0.00    +0.128 A 
ATOM     13  C   UNL     1       6.318   0.568  -3.258  0.00  0.00    +0.041 A 
ATOM     14  C   UNL     1       5.268  -2.353  -0.323  0.00  0.00    +0.254 C 
ATOM     15  O   UNL     1       5.410  -2.122   0.862  0.00  0.00    -0.270 OA
ENDROOT
BRANCH  12  16
ATOM     16  N   UNL     1       7.032   2.146  -1.518  0.00  0.00    +0.056 N 
ATOM     17  O   UNL     1       7.186   2.396  -0.345  0.00  0.00    -0.126 OA
ATOM     18  O   UNL     1       7.325   2.968  -2.355  0.00  0.00    -0.126 OA
ENDBRANCH  12  16
BRANCH   1  19
ATOM     19  C   UNL     1       4.422  -4.534   0.300  0.00  0.00    +0.147 C 
BRANCH  19  20
ATOM     20  C   UNL     1       2.960  -4.344   0.710  0.00  0.00    +0.213 C 
BRANCH  20  21
ATOM     21  O   UNL     1       2.112  -4.628  -0.404  0.00  0.00    -0.233 OA
BRANCH  21  22
ATOM     22  S   UNL     1       0.627  -4.470  -0.108  0.00  0.00    +0.112 S 
ATOM     23  O   UNL     1       0.420  -4.968   1.207  0.00  0.00    -0.142 OA
ATOM     24  O   UNL     1      -0.069  -4.983  -1.235  0.00  0.00    -0.142 OA
BRANCH  22  29
ATOM     25  C   UNL     1      -0.537   1.447   0.088  0.00  0.00    +0.046 C 
ATOM     26  C   UNL     1      -0.246  -0.031   0.039  0.00  0.00    -0.020 A 
ATOM     27  C   UNL     1      -0.347  -0.716  -1.157  0.00  0.00    +0.007 A 
ATOM     28  C   UNL     1      -0.080  -2.071  -1.202  0.00  0.00    +0.030 A 
ATOM     29  C   UNL     1       0.288  -2.742  -0.051  0.00  0.00    +0.119 A 
ATOM     30  C   UNL     1       0.390  -2.057   1.145  0.00  0.00    +0.062 A 
ATOM     31  C   UNL     1       0.127  -0.700   1.190  0.00  0.00    +0.131 A 
BRANCH  31  32
ATOM     32  N   UNL     1       0.241   0.035   2.470  0.00  0.00    +0.057 N 
ATOM     33  O   UNL     1       0.674   1.163   2.482  0.00  0.00    -0.126 OA
ATOM     34  O   UNL     1      -0.099  -0.494   3.502  0.00  0.00    -0.126 OA
ENDBRANCH  31  32
ENDBRANCH  22  29
ENDBRANCH  21  22
ENDBRANCH  20  21
ENDBRANCH  19  20
ENDBRANCH   1  19
TORSDOF 7
