REMARK  Name = ZINC00968686
REMARK  7 active torsions:
REMARK  status: ('A' for Active; 'I' for Inactive)
REMARK    1  A    between atoms: C_1  and  C_2
REMARK    2  A    between atoms: C_4  and  C_35
REMARK    3  A    between atoms: N_8  and  S_9
REMARK    4  A    between atoms: S_9  and  C_12
REMARK    5  A    between atoms: C_15  and  N_18
REMARK    6  A    between atoms: N_18  and  S_19
REMARK    7  A    between atoms: S_19  and  C_22
REMARK                            x       y       z     vdW  Elec       q    Type
REMARK                         _______ _______ _______ _____ _____    ______ ____
ROOT
ATOM      1  C   UNL     1       4.724   3.437   3.744  0.00  0.00    +0.109 A 
ATOM      2  C   UNL     1       4.030   4.611   3.971  0.00  0.00    +0.030 A 
ATOM      3  C   UNL     1       2.871   4.877   3.269  0.00  0.00    +0.026 A 
ATOM      4  C   UNL     1       2.403   3.963   2.333  0.00  0.00    +0.048 A 
ATOM      5  C   UNL     1       3.100   2.783   2.110  0.00  0.00    +0.026 A 
ATOM      6  C   UNL     1       4.261   2.526   2.812  0.00  0.00    +0.030 A 
ENDROOT
BRANCH   1   7
ATOM      7  S   UNL     1       6.203   3.102   4.641  0.00  0.00    +0.075 S 
ATOM      8  O   UNL     1       6.959   2.192   3.854  0.00  0.00    -0.150 OA
ATOM      9  O   UNL     1       6.718   4.359   5.058  0.00  0.00    -0.150 OA
BRANCH   7  17
ATOM     10  C   UNL     1       3.680  -1.063   3.303  0.00  0.00    +0.066 C 
ATOM     11  C   UNL     1       4.200  -0.592   4.637  0.00  0.00    +0.044 A 
ATOM     12  C   UNL     1       4.113  -1.410   5.752  0.00  0.00    +0.046 A 
ATOM     13  C   UNL     1       4.603  -0.938   6.960  0.00  0.00    +0.044 A 
ATOM     14  N   UNL     1       5.136   0.271   7.012  0.00  0.00    -0.219 NA
ATOM     15  C   UNL     1       5.203   1.029   5.927  0.00  0.00    +0.235 A 
ATOM     16  N   UNL     1       4.739   0.610   4.759  0.00  0.00    -0.219 NA
ATOM     17  N   UNL     1       5.767   2.290   6.017  0.00  0.00    -0.184 N 
ATOM     18  C   UNL     1       4.530  -1.793   8.199  0.00  0.00    +0.066 C 
ATOM     19  H   UNL     1       5.907   2.697   6.886  0.00  0.00    +0.177 HD
ENDBRANCH   7  17
ENDBRANCH   1   7
BRANCH   4  20
ATOM     20  N   UNL     1       1.231   4.229   1.621  0.00  0.00    -0.216 N 
ATOM     21  H   UNL     1       0.368   4.137   2.055  0.00  0.00    +0.174 HD
BRANCH  20  22
ATOM     22  S   UNL     1       1.313   4.701   0.036  0.00  0.00    +0.072 S 
ATOM     23  O   UNL     1      -0.019   4.968  -0.378  0.00  0.00    -0.150 OA
ATOM     24  O   UNL     1       2.142   3.755  -0.626  0.00  0.00    -0.150 OA
BRANCH  22  25
ATOM     25  C   UNL     1       2.172   6.239  -0.006  0.00  0.00    +0.109 A 
ATOM     26  C   UNL     1       3.533   6.263  -0.252  0.00  0.00    +0.029 A 
ATOM     27  C   UNL     1       4.212   7.464  -0.286  0.00  0.00    +0.011 A 
ATOM     28  C   UNL     1       3.524   8.660  -0.071  0.00  0.00    -0.014 A 
ATOM     29  C   UNL     1       2.155   8.624   0.176  0.00  0.00    -0.033 A 
ATOM     30  C   UNL     1       1.484   7.420   0.208  0.00  0.00    +0.033 A 
ATOM     31  C   UNL     1       1.690  10.048   0.366  0.00  0.00    +0.071 C 
ATOM     32  C   UNL     1       2.917  10.911   0.207  0.00  0.00    -0.035 A 
ATOM     33  C   UNL     1       3.994  10.067  -0.052  0.00  0.00    -0.014 A 
ATOM     34  C   UNL     1       5.263  10.616  -0.243  0.00  0.00    +0.009 A 
ATOM     35  C   UNL     1       5.441  11.982  -0.174  0.00  0.00    +0.001 A 
ATOM     36  C   UNL     1       4.365  12.813   0.084  0.00  0.00    +0.000 A 
ATOM     37  C   UNL     1       3.104  12.276   0.274  0.00  0.00    +0.004 A 
ENDBRANCH  22  25
ENDBRANCH  20  22
ENDBRANCH   4  20
TORSDOF 5
