REMARK  Name = ZINC16438603
REMARK  12 active torsions:
REMARK  status: ('A' for Active; 'I' for Inactive)
REMARK    1  A    between atoms: C_1  and  C_2
REMARK    2  A    between atoms: C_7  and  N_8
REMARK    3  A    between atoms: C_9  and  N_20
REMARK    4  A    between atoms: C_10  and  C_14
REMARK    5  A    between atoms: C_11  and  C_13
REMARK    6  A    between atoms: C_21  and  C_23
REMARK    7  A    between atoms: C_23  and  N_24
REMARK    8  A    between atoms: N_24  and  C_25
REMARK    9  A    between atoms: C_25  and  C_26
REMARK   10  A    between atoms: C_26  and  C_27
REMARK   11  A    between atoms: C_26  and  C_28
REMARK   12  A    between atoms: C_29  and  C_31
REMARK                            x       y       z     vdW  Elec       q    Type
REMARK                         _______ _______ _______ _____ _____    ______ ____
ROOT
ATOM      1  N   UNL     1       5.899  -2.598  -0.039  0.00  0.00    -0.268 N 
ATOM      2  C   UNL     1       5.468  -1.379   0.343  0.00  0.00    +0.236 C 
ATOM      3  O   UNL     1       4.487  -1.277   1.049  0.00  0.00    -0.274 OA
ATOM      4  H   UNL     1       6.621  -2.678  -0.681  0.00  0.00    +0.156 HD
ENDROOT
BRANCH   1   6
ATOM      5  N   UNL     1       3.981  -4.041   0.482  0.00  0.00    -0.217 N 
ATOM      6  C   UNL     1       5.308  -3.742   0.488  0.00  0.00    +0.137 A 
ATOM      7  C   UNL     1       5.958  -4.786   1.120  0.00  0.00    +0.045 A 
ATOM      8  C   UNL     1       4.979  -5.730   1.487  0.00  0.00    +0.070 A 
ATOM      9  N   UNL     1       3.812  -5.282   1.106  0.00  0.00    -0.169 NA
ATOM     10  C   UNL     1       5.234  -7.034   2.197  0.00  0.00    +0.068 C 
BRANCH   5  17
ATOM     11  C   UNL     1       1.810  -3.301   2.168  0.00  0.00    +0.046 C 
ATOM     12  C   UNL     1       1.885  -2.865   0.728  0.00  0.00    -0.025 A 
ATOM     13  C   UNL     1       0.881  -2.082   0.190  0.00  0.00    +0.005 A 
ATOM     14  C   UNL     1       0.949  -1.680  -1.131  0.00  0.00    +0.000 A 
ATOM     15  C   UNL     1       2.020  -2.060  -1.919  0.00  0.00    +0.002 A 
ATOM     16  C   UNL     1       3.026  -2.843  -1.387  0.00  0.00    +0.028 A 
ATOM     17  C   UNL     1       2.961  -3.248  -0.060  0.00  0.00    +0.070 A 
ENDBRANCH   5  17
BRANCH   7  18
ATOM     18  C   UNL     1       7.417  -4.895   1.362  0.00  0.00    -0.013 A 
ATOM     19  C   UNL     1       8.056  -3.991   2.209  0.00  0.00    +0.008 A 
ATOM     20  C   UNL     1       9.413  -4.100   2.434  0.00  0.00    +0.001 A 
ATOM     21  C   UNL     1      10.141  -5.098   1.812  0.00  0.00    +0.000 A 
ATOM     22  C   UNL     1       9.514  -5.996   0.967  0.00  0.00    +0.001 A 
ATOM     23  C   UNL     1       8.156  -5.899   0.739  0.00  0.00    +0.008 A 
ENDBRANCH   7  18
ENDBRANCH   1   6
BRANCH   2  24
ATOM     24  C   UNL     1       6.206  -0.145  -0.107  0.00  0.00    +0.204 C 
BRANCH  24  25
ATOM     25  N   UNL     1       5.545   1.044   0.437  0.00  0.00    -0.288 N 
ATOM     26  C   UNL     1       4.858   1.867  -0.380  0.00  0.00    +0.247 C 
ATOM     27  O   UNL     1       4.366   2.888   0.059  0.00  0.00    -0.270 OA
BRANCH  26  28
ATOM     28  C   UNL     1       4.703   1.527  -1.810  0.00  0.00    +0.038 A 
ATOM     29  C   UNL     1       4.702   0.179  -2.211  0.00  0.00    +0.013 A 
ATOM     30  C   UNL     1       4.555  -0.158  -3.518  0.00  0.00    +0.009 A 
ATOM     31  C   UNL     1       4.413   0.847  -4.492  0.00  0.00    -0.018 A 
ATOM     32  C   UNL     1       4.267   0.522  -5.851  0.00  0.00    +0.008 A 
ATOM     33  C   UNL     1       4.131   1.516  -6.772  0.00  0.00    +0.001 A 
ATOM     34  C   UNL     1       4.136   2.856  -6.388  0.00  0.00    +0.001 A 
ATOM     35  C   UNL     1       4.276   3.209  -5.081  0.00  0.00    +0.008 A 
ATOM     36  C   UNL     1       4.418   2.210  -4.101  0.00  0.00    -0.017 A 
ATOM     37  C   UNL     1       4.565   2.539  -2.745  0.00  0.00    +0.021 A 
ENDBRANCH  26  28
BRANCH  25  38
ATOM     38  C   UNL     1       5.630   1.339   1.870  0.00  0.00    +0.111 C 
BRANCH  38  39
ATOM     39  C   UNL     1       6.935   2.084   2.160  0.00  0.00    +0.000 C 
ATOM     40  C   UNL     1       6.902   3.453   1.477  0.00  0.00    +0.009 C 
ATOM     41  C   UNL     1       7.090   2.271   3.670  0.00  0.00    +0.009 C 
ENDBRANCH  38  39
ENDBRANCH  25  38
ENDBRANCH  24  25
ENDBRANCH   2  24
TORSDOF 8
