REMARK  Name = ZINC40070608
REMARK  13 active torsions:
REMARK  status: ('A' for Active; 'I' for Inactive)
REMARK    1  A    between atoms: C_1  and  C_2
REMARK    2  A    between atoms: C_3  and  C_37
REMARK    3  A    between atoms: C_4  and  C_36
REMARK    4  A    between atoms: C_7  and  C_8
REMARK    5  A    between atoms: C_8  and  C_10
REMARK    6  A    between atoms: C_10  and  C_12
REMARK    7  A    between atoms: C_10  and  S_13
REMARK    8  A    between atoms: S_13  and  C_14
REMARK    9  A    between atoms: C_18  and  C_27
REMARK   10  A    between atoms: N_19  and  C_20
REMARK   11  A    between atoms: C_27  and  C_29
REMARK   12  A    between atoms: C_27  and  N_30
REMARK   13  A    between atoms: C_37  and  C_39
REMARK                            x       y       z     vdW  Elec       q    Type
REMARK                         _______ _______ _______ _____ _____    ______ ____
ROOT
ATOM      1  C   UNL     1      -0.860  -2.280   5.966  0.00  0.00    +0.241 C 
ATOM      2  N   UNL     1       0.394  -2.983   6.288  0.00  0.00    -0.237 N 
ATOM      3  N   UNL     1       0.309  -4.234   5.665  0.00  0.00    -0.172 NA
ATOM      4  C   UNL     1      -0.797  -4.372   5.031  0.00  0.00    +0.139 C 
ATOM      5  N   UNL     1      -1.603  -3.245   5.138  0.00  0.00    -0.257 N 
ATOM      6  H   UNL     1       1.130  -2.646   6.823  0.00  0.00    +0.171 HD
ENDROOT
BRANCH   5   7
ATOM      7  C   UNL     1      -2.869  -3.062   4.572  0.00  0.00    +0.038 A 
ATOM      8  C   UNL     1      -3.949  -3.807   5.027  0.00  0.00    +0.026 A 
ATOM      9  C   UNL     1      -5.198  -3.624   4.467  0.00  0.00    +0.040 A 
ATOM     10  C   UNL     1      -5.374  -2.699   3.452  0.00  0.00    +0.124 A 
ATOM     11  C   UNL     1      -4.299  -1.954   2.997  0.00  0.00    +0.040 A 
ATOM     12  C   UNL     1      -3.049  -2.129   3.558  0.00  0.00    +0.026 A 
ATOM     13  F   UNL     1      -6.597  -2.522   2.905  0.00  0.00    -0.205 F 
ENDBRANCH   5   7
BRANCH   4  14
ATOM     14  C   UNL     1      -1.178  -5.610   4.261  0.00  0.00    +0.119 C 
ATOM     15  C   UNL     1      -1.523  -5.228   2.820  0.00  0.00    +0.032 C 
BRANCH  14  16
ATOM     16  N   UNL     1      -0.052  -6.553   4.261  0.00  0.00    -0.293 NA
ATOM     17  C   UNL     1       1.129  -5.963   3.619  0.00  0.00    +0.085 C 
ATOM     18  C   UNL     1       2.320  -6.912   3.766  0.00  0.00    +0.015 C 
ATOM     19  C   UNL     1       1.979  -8.256   3.115  0.00  0.00    +0.002 C 
ATOM     20  C   UNL     1       0.718  -8.826   3.769  0.00  0.00    +0.015 C 
ATOM     21  C   UNL     1      -0.426  -7.821   3.622  0.00  0.00    +0.085 C 
ENDBRANCH  14  16
ENDBRANCH   4  14
BRANCH   1  22
ATOM     22  S   UNL     1      -0.519  -0.765   5.028  0.00  0.00    -0.107 S 
BRANCH  22  23
ATOM     23  C   UNL     1       0.414  -1.344   3.584  0.00  0.00    +0.119 C 
ATOM     24  C   UNL     1       1.754  -1.923   4.041  0.00  0.00    +0.027 C 
BRANCH  23  25
ATOM     25  C   UNL     1       0.659  -0.188   2.648  0.00  0.00    +0.192 C 
ATOM     26  O   UNL     1       0.674   0.947   3.077  0.00  0.00    -0.289 OA
BRANCH  25  33
ATOM     27  C   UNL     1       1.183   2.022   0.527  0.00  0.00    +0.047 C 
ATOM     28  C   UNL     1       1.106   0.532   0.309  0.00  0.00    -0.012 A 
ATOM     29  C   UNL     1       1.267  -0.149  -0.919  0.00  0.00    +0.041 A 
ATOM     30  C   UNL     1       1.118  -1.503  -0.657  0.00  0.00    +0.024 A 
ATOM     31  N   UNL     1       0.878  -1.662   0.652  0.00  0.00    -0.355 N 
ATOM     32  H   UNL     1       0.736  -2.512   1.097  0.00  0.00    +0.166 HD
ATOM     33  C   UNL     1       0.872  -0.427   1.269  0.00  0.00    +0.087 A 
ATOM     34  C   UNL     1       1.209  -2.610  -1.675  0.00  0.00    +0.064 C 
BRANCH  29  35
ATOM     35  C   UNL     1       1.540   0.461  -2.225  0.00  0.00    +0.162 C 
ATOM     36  O   UNL     1       0.622   0.844  -2.919  0.00  0.00    -0.292 OA
ATOM     37  C   UNL     1       2.961   0.613  -2.703  0.00  0.00    +0.091 C 
ENDBRANCH  29  35
ENDBRANCH  25  33
ENDBRANCH  23  25
ENDBRANCH  22  23
ENDBRANCH   1  22
TORSDOF 8
