REMARK  Name = ZINC43129191
REMARK  4 active torsions:
REMARK  status: ('A' for Active; 'I' for Inactive)
REMARK    1  A    between atoms: C_1  and  C_2
REMARK    2  A    between atoms: C_2  and  C_4
REMARK    3  A    between atoms: C_2  and  N_12
REMARK    4  A    between atoms: N_12  and  C_13
REMARK                            x       y       z     vdW  Elec       q    Type
REMARK                         _______ _______ _______ _____ _____    ______ ____
ROOT
ATOM      1  N   UNL     1       0.706  -0.537   1.100  0.00  0.00    -0.282 N 
ATOM      2  C   UNL     1       0.123  -0.401   2.437  0.00  0.00    +0.134 C 
ATOM      3  C   UNL     1       1.888  -1.165   0.941  0.00  0.00    +0.308 C 
ATOM      4  O   UNL     1       2.372  -1.277  -0.169  0.00  0.00    -0.252 OA
ATOM      5  N   UNL     1       2.534  -1.667   2.011  0.00  0.00    -0.247 N 
ATOM      6  C   UNL     1       3.754  -2.314   1.847  0.00  0.00    +0.189 A 
ATOM      7  N   UNL     1       4.438  -2.531   0.741  0.00  0.00    -0.126 NA
ATOM      8  N   UNL     1       5.545  -3.140   0.749  0.00  0.00    -0.148 NA
ATOM      9  C   UNL     1       6.031  -3.572   1.895  0.00  0.00    +0.183 A 
ATOM     10  S   UNL     1       4.748  -3.021   3.011  0.00  0.00    -0.039 S 
ATOM     11  H   UNL     1       2.148  -1.577   2.897  0.00  0.00    +0.158 HD
ENDROOT
BRANCH   1  13
ATOM     12  C   UNL     1      -0.052   1.534   0.043  0.00  0.00    +0.033 C 
ATOM     13  C   UNL     1       0.004   0.009  -0.064  0.00  0.00    +0.106 C 
BRANCH  13  14
ATOM     14  C   UNL     1      -1.398  -0.543  -0.110  0.00  0.00    -0.009 A 
ATOM     15  C   UNL     1      -2.464   0.245   0.282  0.00  0.00    +0.008 A 
ATOM     16  C   UNL     1      -3.750  -0.261   0.240  0.00  0.00    +0.020 A 
ATOM     17  C   UNL     1      -3.970  -1.556  -0.194  0.00  0.00    +0.042 A 
ATOM     18  C   UNL     1      -2.904  -2.345  -0.586  0.00  0.00    +0.040 A 
ATOM     19  C   UNL     1      -1.618  -1.836  -0.549  0.00  0.00    +0.047 A 
ATOM     20 CL   UNL     1      -0.280  -2.824  -1.047  0.00  0.00    -0.083 Cl
ATOM     21 CL   UNL     1      -5.585  -2.191  -0.245  0.00  0.00    -0.083 Cl
ENDBRANCH  13  14
ENDBRANCH   1  13
TORSDOF 2
