REMARK  Name = ZINC21222171
REMARK  10 active torsions:
REMARK  status: ('A' for Active; 'I' for Inactive)
REMARK    1  A    between atoms: C_1  and  C_2
REMARK    2  A    between atoms: C_2  and  C_3
REMARK    3  A    between atoms: C_3  and  O_4
REMARK    4  A    between atoms: O_4  and  C_5
REMARK    5  A    between atoms: C_8  and  C_11
REMARK    6  A    between atoms: C_16  and  C_21
REMARK    7  A    between atoms: C_23  and  O_29
REMARK    8  A    between atoms: C_26  and  O_27
REMARK    9  A    between atoms: O_27  and  C_28
REMARK   10  A    between atoms: O_29  and  C_30
REMARK                            x       y       z     vdW  Elec       q    Type
REMARK                         _______ _______ _______ _____ _____    ______ ____
ROOT
ATOM      1  C   UNL     1      -2.051   3.386   2.451  0.00  0.00    +0.136 C 
ATOM      2  C   UNL     1      -1.319   2.735   1.300  0.00  0.00    +0.036 C 
ATOM      3  C   UNL     1      -0.711   1.540   1.329  0.00  0.00    +0.017 C 
ATOM      4  C   UNL     1       0.025   1.021   0.103  0.00  0.00    +0.060 C 
ATOM      5  C   UNL     1      -0.673   1.510  -1.165  0.00  0.00    +0.036 C 
ATOM      6  C   UNL     1      -0.653   3.044  -1.145  0.00  0.00    +0.088 C 
ATOM      7  C   UNL     1      -1.307   3.514   0.119  0.00  0.00    +0.163 C 
ATOM      8  O   UNL     1      -1.847   4.602   0.130  0.00  0.00    -0.292 OA
ATOM      9  N   UNL     1      -0.675   0.704   2.400  0.00  0.00    -0.316 N 
ATOM     10  C   UNL     1      -0.369   1.092   3.700  0.00  0.00    +0.052 A 
ATOM     11  C   UNL     1       0.731   0.600   4.380  0.00  0.00    +0.025 A 
ATOM     12  C   UNL     1       0.933   0.969   5.700  0.00  0.00    +0.002 A 
ATOM     13  C   UNL     1       0.045   1.821   6.329  0.00  0.00    +0.002 A 
ATOM     14  C   UNL     1      -1.043   2.332   5.642  0.00  0.00    +0.025 A 
ATOM     15  C   UNL     1      -1.239   1.979   4.316  0.00  0.00    +0.049 A 
ATOM     16  N   UNL     1      -2.294   2.507   3.575  0.00  0.00    -0.331 N 
ATOM     17  H   UNL     1      -0.900  -0.365   2.271  0.00  0.00    +0.152 HD
ATOM     18  H   UNL     1      -3.324   2.245   3.856  0.00  0.00    +0.147 HD
ENDROOT
BRANCH   1  22
ATOM     19  C   UNL     1       0.252   6.717   3.815  0.00  0.00    +0.121 A 
ATOM     20  C   UNL     1      -1.013   6.918   3.283  0.00  0.00    +0.046 A 
ATOM     21  C   UNL     1      -1.755   5.840   2.842  0.00  0.00    +0.009 A 
ATOM     22  C   UNL     1      -1.239   4.561   2.932  0.00  0.00    -0.023 A 
ATOM     23  C   UNL     1       0.020   4.356   3.467  0.00  0.00    +0.009 A 
ATOM     24  C   UNL     1       0.768   5.432   3.904  0.00  0.00    +0.046 A 
BRANCH  19  25
ATOM     25  O   UNL     1       0.985   7.776   4.249  0.00  0.00    -0.492 OA
BRANCH  25  26
ATOM     26  C   UNL     1       2.279   7.494   4.785  0.00  0.00    +0.229 C 
BRANCH  26  28
ATOM     27  C   UNL     1       4.333   8.498   5.792  0.00  0.00    +0.007 C 
ATOM     28  C   UNL     1       2.948   8.800   5.217  0.00  0.00    +0.038 C 
ENDBRANCH  26  28
ENDBRANCH  25  26
ENDBRANCH  19  25
ENDBRANCH   1  22
BRANCH   5  29
ATOM     29  C   UNL     1       0.062   1.005  -2.380  0.00  0.00    +0.002 A 
ATOM     30  C   UNL     1       1.383   1.353  -2.582  0.00  0.00    +0.053 A 
ATOM     31  C   UNL     1       2.061   0.884  -3.697  0.00  0.00    +0.121 A 
ATOM     32  C   UNL     1       1.408   0.074  -4.616  0.00  0.00    +0.049 A 
ATOM     33  C   UNL     1       0.086  -0.269  -4.416  0.00  0.00    +0.049 A 
ATOM     34  C   UNL     1      -0.590   0.195  -3.297  0.00  0.00    +0.124 A 
BRANCH  34  35
ATOM     35  O   UNL     1      -1.893  -0.143  -3.101  0.00  0.00    -0.495 OA
ATOM     36  C   UNL     1      -2.501  -0.980  -4.086  0.00  0.00    +0.277 C 
ENDBRANCH  34  35
BRANCH  31  37
ATOM     37  O   UNL     1       3.363   1.222  -3.894  0.00  0.00    -0.495 OA
ATOM     38  C   UNL     1       3.997   0.709  -5.067  0.00  0.00    +0.277 C 
ENDBRANCH  31  37
ENDBRANCH   5  29
TORSDOF 7
