REMARK  Name = ZINC63329011
REMARK  9 active torsions:
REMARK  status: ('A' for Active; 'I' for Inactive)
REMARK    1  A    between atoms: C_1  and  C_2
REMARK    2  A    between atoms: C_2  and  C_3
REMARK    3  A    between atoms: C_3  and  C_5
REMARK    4  A    between atoms: C_3  and  C_6
REMARK    5  A    between atoms: C_6  and  C_8
REMARK    6  A    between atoms: C_6  and  N_17
REMARK    7  A    between atoms: N_10  and  C_11
REMARK    8  A    between atoms: C_11  and  C_12
REMARK    9  A    between atoms: C_26  and  C_28
REMARK                            x       y       z     vdW  Elec       q    Type
REMARK                         _______ _______ _______ _____ _____    ______ ____
ROOT
ATOM      1  N   UNL     1       2.501   1.317   1.245  0.00  0.00    -0.288 N 
ATOM      2  C   UNL     1       2.411   2.026   0.102  0.00  0.00    +0.303 C 
ATOM      3  O   UNL     1       2.101   1.471  -0.935  0.00  0.00    -0.253 OA
ATOM      4  N   UNL     1       2.666   3.349   0.108  0.00  0.00    -0.283 N 
ATOM      5  C   UNL     1       3.158   4.011   1.325  0.00  0.00    +0.128 C 
ATOM      6  C   UNL     1       4.465   4.741   0.992  0.00  0.00    +0.127 C 
ATOM      7  N   UNL     1       4.256   5.548  -0.218  0.00  0.00    -0.297 N 
ATOM      8  C   UNL     1       3.764   4.887  -1.435  0.00  0.00    +0.127 C 
ATOM      9  C   UNL     1       2.463   4.156  -1.103  0.00  0.00    +0.128 C 
ATOM     10  C   UNL     1       4.511   6.872  -0.212  0.00  0.00    +0.242 C 
ATOM     11  O   UNL     1       4.916   7.407   0.799  0.00  0.00    -0.273 OA
ATOM     12  H   UNL     1       2.675   1.770   2.084  0.00  0.00    +0.151 HD
ENDROOT
BRANCH  10  13
ATOM     13  C   UNL     1       4.292   7.687  -1.460  0.00  0.00    +0.190 C 
ATOM     14  C   UNL     1       5.204   7.203  -2.565  0.00  0.00    +0.016 C 
ATOM     15  C   UNL     1       5.991   8.254  -2.889  0.00  0.00    -0.004 A 
ATOM     16  C   UNL     1       7.066   8.424  -3.874  0.00  0.00    +0.010 A 
ATOM     17  C   UNL     1       7.685   9.623  -3.968  0.00  0.00    +0.001 A 
ATOM     18  C   UNL     1       7.327  10.704  -3.151  0.00  0.00    +0.002 A 
ATOM     19  C   UNL     1       6.349  10.624  -2.223  0.00  0.00    +0.026 A 
ATOM     20  C   UNL     1       5.631   9.411  -2.038  0.00  0.00    +0.043 A 
ATOM     21  N   UNL     1       4.657   9.088  -1.220  0.00  0.00    -0.370 N 
ATOM     22  H   UNL     1       4.248   9.675  -0.566  0.00  0.00    +0.161 HD
ENDBRANCH  10  13
BRANCH   1  23
ATOM     23  C   UNL     1       2.333  -0.138   1.219  0.00  0.00    +0.163 C 
BRANCH  23  24
ATOM     24  C   UNL     1       3.266  -0.769   2.221  0.00  0.00    +0.234 C 
ATOM     25  O   UNL     1       3.986  -0.070   2.903  0.00  0.00    -0.274 OA
ATOM     26  N   UNL     1       3.300  -2.109   2.360  0.00  0.00    -0.307 N 
ATOM     27  H   UNL     1       2.778  -2.671   1.766  0.00  0.00    +0.149 HD
BRANCH  26  28
ATOM     28  C   UNL     1       4.124  -2.716   3.408  0.00  0.00    +0.178 C 
BRANCH  28  29
ATOM     29  C   UNL     1       3.986  -4.216   3.349  0.00  0.00    +0.122 A 
ATOM     30  C   UNL     1       4.760  -5.049   2.631  0.00  0.00    +0.046 A 
ATOM     31  C   UNL     1       4.282  -6.359   2.868  0.00  0.00    +0.041 A 
ATOM     32  C   UNL     1       3.245  -6.247   3.717  0.00  0.00    +0.195 A 
ATOM     33  O   UNL     1       3.074  -4.947   4.009  0.00  0.00    -0.466 OA
ENDBRANCH  28  29
ENDBRANCH  26  28
ENDBRANCH  23  24
BRANCH  23  34
ATOM     34  C   UNL     1       0.888  -0.492   1.574  0.00  0.00    +0.015 C 
ATOM     35  C   UNL     1      -0.043  -0.013   0.459  0.00  0.00    +0.010 C 
BRANCH  34  37
ATOM     36  C   UNL     1       1.315  -0.414   4.035  0.00  0.00    +0.004 C 
ATOM     37  C   UNL     1       0.504   0.192   2.888  0.00  0.00    +0.002 C 
ENDBRANCH  34  37
ENDBRANCH  23  34
ENDBRANCH   1  23
TORSDOF 7
