REMARK  Name = ZINC39693359
REMARK  10 active torsions:
REMARK  status: ('A' for Active; 'I' for Inactive)
REMARK    1  A    between atoms: C_1  and  C_2
REMARK    2  A    between atoms: C_2  and  C_3
REMARK    3  A    between atoms: C_2  and  C_4
REMARK    4  A    between atoms: C_2  and  O_5
REMARK    5  A    between atoms: O_5  and  C_6
REMARK    6  A    between atoms: N_8  and  C_9
REMARK    7  A    between atoms: C_9  and  C_10
REMARK    8  A    between atoms: C_10  and  N_11
REMARK    9  A    between atoms: C_12  and  C_14
REMARK   10  A    between atoms: C_25  and  C_27
REMARK                            x       y       z     vdW  Elec       q    Type
REMARK                         _______ _______ _______ _____ _____    ______ ____
ROOT
ATOM      1  C   UNL     1       8.689   0.108  -5.215  0.00  0.00    +0.100 C 
ATOM      2  C   UNL     1       9.271  -0.582  -3.961  0.00  0.00    +0.121 C 
ATOM      3  N   UNL     1       9.787  -1.881  -4.454  0.00  0.00    -0.296 N 
ATOM      4  C   UNL     1      10.393  -1.561  -5.769  0.00  0.00    +0.115 C 
ATOM      5  C   UNL     1       9.431  -0.534  -6.399  0.00  0.00    -0.004 C 
ATOM      6  C   UNL     1       8.441  -1.238  -7.323  0.00  0.00    -0.010 C 
ATOM      7  C   UNL     1       9.195  -1.820  -8.522  0.00  0.00    -0.082 C 
ATOM      8  N   UNL     1       9.884  -0.741  -9.240  0.00  0.00    +0.379 N 
ATOM      9  C   UNL     1      10.899  -0.130  -8.373  0.00  0.00    -0.082 C 
ATOM     10  C   UNL     1      10.217   0.523  -7.168  0.00  0.00    -0.010 C 
ATOM     11  C   UNL     1       9.721  -3.081  -3.845  0.00  0.00    +0.247 C 
ATOM     12  O   UNL     1       9.079  -3.208  -2.821  0.00  0.00    -0.270 OA
ATOM     13  H   UNL     1      10.329  -1.117 -10.063  0.00  0.00    -0.086 HD
ATOM     14  H   UNL     1       9.213  -0.040  -9.515  0.00  0.00    -0.086 HD
ENDROOT
BRANCH  11  15
ATOM     15  C   UNL     1      10.430  -4.242  -4.422  0.00  0.00    +0.038 A 
ATOM     16  C   UNL     1      11.492  -4.046  -5.307  0.00  0.00    +0.014 A 
ATOM     17  C   UNL     1      12.150  -5.133  -5.843  0.00  0.00    +0.022 A 
ATOM     18  C   UNL     1      11.759  -6.419  -5.504  0.00  0.00    +0.059 A 
ATOM     19  C   UNL     1      10.706  -6.620  -4.626  0.00  0.00    +0.060 A 
ATOM     20  C   UNL     1      10.044  -5.540  -4.079  0.00  0.00    +0.034 A 
ATOM     21 CL   UNL     1      10.224  -8.235  -4.207  0.00  0.00    -0.082 Cl
ATOM     22 CL   UNL     1      12.592  -7.782  -6.184  0.00  0.00    -0.082 Cl
ENDBRANCH  11  15
BRANCH   1  24
ATOM     23  N   UNL     1       6.422   0.695  -6.012  0.00  0.00    -0.314 N 
ATOM     24  C   UNL     1       7.209  -0.152  -5.319  0.00  0.00    +0.218 C 
ATOM     25  O   UNL     1       6.725  -1.124  -4.779  0.00  0.00    -0.275 OA
ATOM     26  H   UNL     1       6.809   1.472  -6.444  0.00  0.00    +0.149 HD
BRANCH  23  27
ATOM     27  C   UNL     1       4.983   0.442  -6.113  0.00  0.00    +0.123 C 
BRANCH  27  28
ATOM     28  C   UNL     1       4.328   1.544  -6.947  0.00  0.00    +0.126 C 
BRANCH  28  31
ATOM     29  C   UNL     1       2.103   2.138  -7.742  0.00  0.00    +0.401 C 
ATOM     30  O   UNL     1       2.588   3.112  -8.283  0.00  0.00    -0.226 OA
ATOM     31  N   UNL     1       2.889   1.291  -7.048  0.00  0.00    -0.280 N 
ATOM     32  H   UNL     1       2.502   0.513  -6.617  0.00  0.00    +0.152 HD
BRANCH  29  33
ATOM     33  O   UNL     1       0.780   1.905  -7.834  0.00  0.00    -0.445 OA
BRANCH  33  35
ATOM     34  C   UNL     1       0.518   2.890 -10.026  0.00  0.00    +0.055 C 
ATOM     35  C   UNL     1       0.007   2.844  -8.585  0.00  0.00    +0.107 C 
ATOM     36  C   UNL     1       0.137   4.232  -7.953  0.00  0.00    +0.055 C 
ATOM     37  C   UNL     1      -1.462   2.416  -8.578  0.00  0.00    +0.055 C 
ENDBRANCH  33  35
ENDBRANCH  29  33
ENDBRANCH  28  31
ENDBRANCH  27  28
ENDBRANCH  23  27
ENDBRANCH   1  24
TORSDOF 7
