REMARK  Name = ZINC16042781
REMARK  13 active torsions:
REMARK  status: ('A' for Active; 'I' for Inactive)
REMARK    1  A    between atoms: C_1  and  C_2
REMARK    2  A    between atoms: C_2  and  C_3
REMARK    3  A    between atoms: C_3  and  C_4
REMARK    4  A    between atoms: C_4  and  N_77
REMARK    5  A    between atoms: C_5  and  C_6
REMARK    6  A    between atoms: C_5  and  N_77
REMARK    7  A    between atoms: C_6  and  C_7
REMARK    8  A    between atoms: C_7  and  C_8
REMARK    9  A    between atoms: C_9  and  C_10
REMARK   10  A    between atoms: C_9  and  N_77
REMARK   11  A    between atoms: C_10  and  C_11
REMARK   12  A    between atoms: C_11  and  N_12
REMARK   13  A    between atoms: C_32  and  C_34
REMARK                            x       y       z     vdW  Elec       q    Type
REMARK                         _______ _______ _______ _____ _____    ______ ____
ROOT
ATOM      1  N   UNL     1       5.183   3.716   1.904  0.00  0.00    -0.291 N 
ATOM      2  C   UNL     1       4.662   2.389   2.185  0.00  0.00    +0.203 C 
ATOM      3  C   UNL     1       3.731   1.913   1.118  0.00  0.00    +0.234 C 
ATOM      4  O   UNL     1       3.216   0.824   1.260  0.00  0.00    -0.274 OA
ATOM      5  N   UNL     1       3.427   2.606   0.018  0.00  0.00    -0.276 N 
ATOM      6  C   UNL     1       4.041   3.892  -0.312  0.00  0.00    +0.167 C 
ATOM      7  C   UNL     1       4.915   4.381   0.798  0.00  0.00    +0.237 C 
ATOM      8  O   UNL     1       5.416   5.479   0.683  0.00  0.00    -0.274 OA
ATOM      9  C   UNL     1       4.872   3.740  -1.594  0.00  0.00    +0.069 C 
ATOM     10  C   UNL     1       4.061   2.977  -2.610  0.00  0.00    -0.015 A 
ATOM     11  C   UNL     1       4.267   2.890  -4.041  0.00  0.00    +0.003 A 
ATOM     12  C   UNL     1       5.219   3.451  -4.897  0.00  0.00    +0.010 A 
ATOM     13  C   UNL     1       5.108   3.149  -6.232  0.00  0.00    +0.001 A 
ATOM     14  C   UNL     1       4.104   2.328  -6.720  0.00  0.00    +0.002 A 
ATOM     15  C   UNL     1       3.150   1.759  -5.895  0.00  0.00    +0.026 A 
ATOM     16  C   UNL     1       3.237   2.048  -4.535  0.00  0.00    +0.047 A 
ATOM     17  N   UNL     1       2.479   1.664  -3.466  0.00  0.00    -0.356 N 
ATOM     18  H   UNL     1       1.705   1.082  -3.512  0.00  0.00    +0.166 HD
ATOM     19  C   UNL     1       2.977   2.225  -2.320  0.00  0.00    +0.046 A 
ATOM     20  C   UNL     1       2.426   2.057  -0.922  0.00  0.00    +0.154 C 
ENDROOT
BRANCH  20  21
ATOM     21  C   UNL     1       1.130   2.814  -0.788  0.00  0.00    -0.021 A 
ATOM     22  C   UNL     1       1.075   3.959  -0.016  0.00  0.00    +0.006 A 
ATOM     23  C   UNL     1      -0.116   4.649   0.112  0.00  0.00    +0.000 A 
ATOM     24  C   UNL     1      -1.249   4.201  -0.542  0.00  0.00    +0.000 A 
ATOM     25  C   UNL     1      -1.193   3.056  -1.314  0.00  0.00    +0.000 A 
ATOM     26  C   UNL     1      -0.004   2.362  -1.437  0.00  0.00    +0.006 A 
ENDBRANCH  20  21
BRANCH   1  27
ATOM     27  C   UNL     1       6.057   4.340   2.900  0.00  0.00    +0.106 C 
BRANCH  27  28
ATOM     28  C   UNL     1       7.512   3.970   2.604  0.00  0.00    +0.000 C 
BRANCH  28  29
ATOM     29  C   UNL     1       8.426   4.620   3.644  0.00  0.00    -0.077 C 
BRANCH  29  30
ATOM     30  N   UNL     1       9.824   4.236   3.358  0.00  0.00    +0.380 N 
ATOM     31  H   UNL     1       9.878   3.215   3.270  0.00  0.00    -0.082 HD
BRANCH  30  32
ATOM     32  C   UNL     1      10.267   4.852   2.089  0.00  0.00    -0.079 C 
BRANCH  32  33
ATOM     33  C   UNL     1      10.079   6.370   2.135  0.00  0.00    -0.019 C 
BRANCH  33  35
ATOM     34  C   UNL     1      10.355   8.499   0.856  0.00  0.00    +0.004 C 
ATOM     35  C   UNL     1      10.542   6.981   0.810  0.00  0.00    -0.005 C 
ENDBRANCH  33  35
ENDBRANCH  32  33
ENDBRANCH  30  32
BRANCH  30  36
ATOM     36  C   UNL     1      10.704   4.670   4.463  0.00  0.00    -0.079 C 
BRANCH  36  37
ATOM     37  C   UNL     1      12.050   3.955   4.330  0.00  0.00    -0.019 C 
BRANCH  37  38
ATOM     38  C   UNL     1      12.906   4.245   5.564  0.00  0.00    -0.005 C 
ATOM     39  C   UNL     1      14.252   3.530   5.431  0.00  0.00    +0.004 C 
ENDBRANCH  37  38
ENDBRANCH  36  37
ENDBRANCH  30  36
ENDBRANCH  29  30
ENDBRANCH  28  29
ENDBRANCH  27  28
ENDBRANCH   1  27
TORSDOF 11
