REMARK  Name = ZINC16043625
REMARK  4 active torsions:
REMARK  status: ('A' for Active; 'I' for Inactive)
REMARK    1  A    between atoms: N_9  and  C_14
REMARK    2  A    between atoms: C_14  and  C_15
REMARK    3  A    between atoms: C_18  and  C_30
REMARK    4  A    between atoms: C_21  and  C_23
REMARK                            x       y       z     vdW  Elec       q    Type
REMARK                         _______ _______ _______ _____ _____    ______ ____
ROOT
ATOM      1  C   UNL     1      -2.892   3.021  -1.236  0.00  0.00    +0.254 C 
ATOM      2  O   UNL     1      -2.903   3.028  -2.449  0.00  0.00    -0.272 OA
ATOM      3  N   UNL     1      -1.917   2.367  -0.574  0.00  0.00    -0.181 N 
ATOM      4  C   UNL     1      -0.811   1.622  -1.197  0.00  0.00    +0.173 C 
ATOM      5  C   UNL     1      -0.013   1.086   0.008  0.00  0.00    +0.090 C 
ATOM      6  C   UNL     1      -0.773   1.599   1.210  0.00  0.00    +0.069 C 
ATOM      7  N   UNL     1      -1.793   2.283   0.811  0.00  0.00    -0.181 NA
ENDROOT
BRANCH   6   8
ATOM      8  C   UNL     1      -0.406   1.354   2.617  0.00  0.00    -0.002 A 
ATOM      9  C   UNL     1       0.722   0.589   2.925  0.00  0.00    +0.011 A 
ATOM     10  C   UNL     1       1.063   0.368   4.243  0.00  0.00    +0.020 A 
ATOM     11  C   UNL     1       0.284   0.894   5.260  0.00  0.00    +0.041 A 
ATOM     12  C   UNL     1      -0.838   1.649   4.962  0.00  0.00    +0.020 A 
ATOM     13  C   UNL     1      -1.187   1.882   3.648  0.00  0.00    +0.011 A 
ATOM     14 CL   UNL     1       0.716   0.605   6.917  0.00  0.00    -0.084 Cl
ENDBRANCH   6   8
BRANCH   4  15
ATOM     15  C   UNL     1      -1.337   0.485  -2.033  0.00  0.00    +0.128 A 
ATOM     16  C   UNL     1      -0.793   0.032  -3.177  0.00  0.00    +0.046 A 
ATOM     17  C   UNL     1      -1.604  -1.037  -3.622  0.00  0.00    +0.041 A 
ATOM     18  C   UNL     1      -2.596  -1.173  -2.724  0.00  0.00    +0.195 A 
ATOM     19  O   UNL     1      -2.426  -0.252  -1.761  0.00  0.00    -0.466 OA
ENDBRANCH   4  15
BRANCH   1  20
ATOM     20  C   UNL     1      -3.968   3.745  -0.469  0.00  0.00    +0.226 C 
BRANCH  20  29
ATOM     21  C   UNL     1      -5.858   8.235  -4.234  0.00  0.00    +0.001 A 
ATOM     22  C   UNL     1      -7.178   7.856  -4.401  0.00  0.00    +0.002 A 
ATOM     23  C   UNL     1      -7.670   6.741  -3.741  0.00  0.00    +0.029 A 
ATOM     24  C   UNL     1      -6.841   6.013  -2.922  0.00  0.00    +0.119 A 
ATOM     25  C   UNL     1      -5.503   6.378  -2.750  0.00  0.00    +0.065 A 
ATOM     26  C   UNL     1      -5.019   7.508  -3.416  0.00  0.00    +0.015 A 
ATOM     27  C   UNL     1      -4.608   5.580  -1.897  0.00  0.00    +0.264 C 
ATOM     28  O   UNL     1      -3.523   6.054  -1.620  0.00  0.00    -0.269 OA
ATOM     29  N   UNL     1      -4.901   4.372  -1.409  0.00  0.00    -0.205 N 
ATOM     30  N   UNL     1      -6.073   3.682  -1.760  0.00  0.00    -0.105 NA
ATOM     31  S   UNL     1      -7.438   4.592  -2.057  0.00  0.00    +0.074 S 
ATOM     32  O   UNL     1      -8.241   3.856  -2.969  0.00  0.00    -0.152 OA
ATOM     33  O   UNL     1      -7.920   5.042  -0.797  0.00  0.00    -0.152 OA
ATOM     34  H   UNL     1      -6.088   2.714  -1.828  0.00  0.00    +0.172 HD
ENDBRANCH  20  29
ENDBRANCH   1  20
TORSDOF 4
