REMARK  Name = ZINC12112511
REMARK  9 active torsions:
REMARK  status: ('A' for Active; 'I' for Inactive)
REMARK    1  A    between atoms: C_1  and  C_2
REMARK    2  A    between atoms: C_5  and  C_8
REMARK    3  A    between atoms: C_11  and  S_23
REMARK    4  A    between atoms: C_12  and  S_14
REMARK    5  A    between atoms: S_14  and  C_17
REMARK    6  A    between atoms: S_23  and  C_24
REMARK    7  A    between atoms: C_24  and  C_25
REMARK    8  A    between atoms: N_27  and  C_28
REMARK    9  A    between atoms: C_28  and  C_29
REMARK                            x       y       z     vdW  Elec       q    Type
REMARK                         _______ _______ _______ _____ _____    ______ ____
ROOT
ATOM      1  C   UNL     1       3.238   5.274  -3.636  0.00  0.00    +0.141 A 
ATOM      2  N   UNL     1       3.951   4.105  -3.695  0.00  0.00    -0.332 N 
ATOM      3  H   UNL     1       4.440   3.745  -4.489  0.00  0.00    +0.168 HD
ATOM      4  C   UNL     1       3.865   3.523  -2.457  0.00  0.00    +0.120 A 
ATOM      5  C   UNL     1       3.102   4.342  -1.688  0.00  0.00    +0.214 A 
ATOM      6  N   UNL     1       2.739   5.396  -2.427  0.00  0.00    -0.208 NA
ENDROOT
BRANCH   1  11
ATOM      7  C   UNL     1       2.548   9.015  -7.954  0.00  0.00    +0.044 C 
ATOM      8  C   UNL     1       2.729   8.035  -6.823  0.00  0.00    -0.050 A 
ATOM      9  C   UNL     1       2.146   8.287  -5.594  0.00  0.00    +0.004 A 
ATOM     10  C   UNL     1       2.307   7.395  -4.554  0.00  0.00    +0.012 A 
ATOM     11  C   UNL     1       3.061   6.235  -4.745  0.00  0.00    +0.017 A 
ATOM     12  C   UNL     1       3.651   5.990  -5.986  0.00  0.00    +0.012 A 
ATOM     13  C   UNL     1       3.477   6.888  -7.019  0.00  0.00    +0.004 A 
ENDBRANCH   1  11
BRANCH   5  14
ATOM     14  S   UNL     1       2.670   4.067  -0.002  0.00  0.00    +0.045 S 
ATOM     15  O   UNL     1       2.387   5.342   0.558  0.00  0.00    -0.163 OA
ATOM     16  O   UNL     1       3.661   3.202   0.535  0.00  0.00    -0.163 OA
BRANCH  14  17
ATOM     17  C   UNL     1       1.156   3.165   0.008  0.00  0.00    +0.095 A 
ATOM     18  C   UNL     1       1.175   1.783   0.000  0.00  0.00    +0.027 A 
ATOM     19  C   UNL     1      -0.013   1.076   0.008  0.00  0.00    +0.002 A 
ATOM     20  C   UNL     1      -1.219   1.751   0.017  0.00  0.00    +0.000 A 
ATOM     21  C   UNL     1      -1.238   3.133   0.030  0.00  0.00    +0.002 A 
ATOM     22  C   UNL     1      -0.050   3.840   0.023  0.00  0.00    +0.027 A 
ENDBRANCH  14  17
ENDBRANCH   5  14
BRANCH   4  23
ATOM     23  S   UNL     1       4.600   2.001  -1.960  0.00  0.00    -0.095 S 
BRANCH  23  24
ATOM     24  C   UNL     1       5.469   1.427  -3.445  0.00  0.00    +0.171 C 
BRANCH  24  25
ATOM     25  C   UNL     1       6.151   0.115  -3.153  0.00  0.00    +0.224 C 
ATOM     26  O   UNL     1       6.059  -0.384  -2.052  0.00  0.00    -0.275 OA
ATOM     27  N   UNL     1       6.862  -0.503  -4.116  0.00  0.00    -0.310 N 
ATOM     28  H   UNL     1       6.935  -0.104  -4.997  0.00  0.00    +0.149 HD
BRANCH  27  29
ATOM     29  C   UNL     1       7.525  -1.779  -3.833  0.00  0.00    +0.141 C 
BRANCH  29  30
ATOM     30  C   UNL     1       8.247  -2.255  -5.066  0.00  0.00    -0.012 A 
ATOM     31  C   UNL     1       7.678  -3.226  -5.869  0.00  0.00    +0.006 A 
ATOM     32  C   UNL     1       8.338  -3.660  -7.003  0.00  0.00    +0.000 A 
ATOM     33  C   UNL     1       9.573  -3.130  -7.330  0.00  0.00    +0.001 A 
ATOM     34  C   UNL     1      10.145  -2.163  -6.526  0.00  0.00    +0.020 A 
ATOM     35  C   UNL     1       9.483  -1.725  -5.393  0.00  0.00    +0.046 A 
ATOM     36 CL   UNL     1      10.202  -0.511  -4.381  0.00  0.00    -0.083 Cl
ENDBRANCH  29  30
ENDBRANCH  27  29
ENDBRANCH  24  25
ENDBRANCH  23  24
ENDBRANCH   4  23
TORSDOF 8
