REMARK  Name = ZINC12136205
REMARK  8 active torsions:
REMARK  status: ('A' for Active; 'I' for Inactive)
REMARK    1  A    between atoms: C_1  and  C_2
REMARK    2  A    between atoms: C_9  and  C_13
REMARK    3  A    between atoms: C_13  and  S_14
REMARK    4  A    between atoms: S_14  and  C_15
REMARK    5  A    between atoms: C_18  and  C_27
REMARK    6  A    between atoms: N_19  and  C_20
REMARK    7  A    between atoms: C_20  and  C_21
REMARK    8  A    between atoms: C_27  and  N_61
REMARK                            x       y       z     vdW  Elec       q    Type
REMARK                         _______ _______ _______ _____ _____    ______ ____
ROOT
ATOM      1  C   UNL     1       1.557   2.143   9.161  0.00  0.00    +0.192 A 
ATOM      2  N   UNL     1       1.796   3.395   9.479  0.00  0.00    -0.123 NA
ATOM      3  N   UNL     1       2.490   3.446  10.559  0.00  0.00    -0.135 NA
ATOM      4  C   UNL     1       2.733   2.241  10.992  0.00  0.00    +0.118 A 
ATOM      5  N   UNL     1       2.143   1.368  10.120  0.00  0.00    -0.303 N 
ENDROOT
BRANCH   1   6
ATOM      6  S   UNL     1       0.646   1.573   7.764  0.00  0.00    -0.080 S 
BRANCH   6   7
ATOM      7  C   UNL     1       0.206   3.157   7.008  0.00  0.00    +0.133 C 
BRANCH   7  16
ATOM      8  C   UNL     1      -0.013   1.086   0.008  0.00  0.00    +0.044 C 
ATOM      9  C   UNL     1      -0.718   1.572   1.248  0.00  0.00    -0.046 A 
ATOM     10  C   UNL     1      -2.102   1.794   1.231  0.00  0.00    +0.021 A 
ATOM     11  C   UNL     1      -2.735   2.225   2.345  0.00  0.00    +0.096 A 
ATOM     12  N   UNL     1      -2.040   2.459   3.493  0.00  0.00    -0.268 N 
ATOM     13  C   UNL     1      -0.689   2.257   3.539  0.00  0.00    +0.141 A 
ATOM     14  C   UNL     1      -0.014   1.804   2.391  0.00  0.00    +0.050 A 
ATOM     15  N   UNL     1      -0.002   2.485   4.658  0.00  0.00    -0.233 NA
ATOM     16  C   UNL     1      -0.601   2.910   5.759  0.00  0.00    +0.059 A 
ATOM     17  C   UNL     1      -1.965   3.130   5.764  0.00  0.00    +0.094 A 
ATOM     18  C   UNL     1      -2.693   2.895   4.592  0.00  0.00    +0.259 A 
ATOM     19  O   UNL     1      -3.899   3.079   4.564  0.00  0.00    -0.267 OA
ENDBRANCH   7  16
ENDBRANCH   6   7
ENDBRANCH   1   6
BRANCH   5  20
ATOM     20  C   UNL     1       2.143  -0.095  10.197  0.00  0.00    +0.160 C 
BRANCH  20  21
ATOM     21  C   UNL     1       3.340  -0.637   9.459  0.00  0.00    -0.028 A 
ATOM     22  C   UNL     1       3.243  -0.944   8.115  0.00  0.00    +0.005 A 
ATOM     23  C   UNL     1       4.342  -1.437   7.437  0.00  0.00    +0.000 A 
ATOM     24  C   UNL     1       5.536  -1.633   8.106  0.00  0.00    +0.000 A 
ATOM     25  C   UNL     1       5.631  -1.331   9.452  0.00  0.00    +0.000 A 
ATOM     26  C   UNL     1       4.533  -0.833  10.128  0.00  0.00    +0.005 A 
ENDBRANCH  20  21
ENDBRANCH   5  20
BRANCH   4  27
ATOM     27  C   UNL     1       3.515   1.877  12.227  0.00  0.00    -0.001 C 
BRANCH  27  33
ATOM     28  C   UNL     1       2.032   3.106  13.693  0.00  0.00    -0.078 C 
ATOM     29  C   UNL     1       0.982   2.955  14.796  0.00  0.00    -0.019 C 
ATOM     30  C   UNL     1       1.638   2.350  16.040  0.00  0.00    -0.004 C 
ATOM     31  C   UNL     1       2.268   1.004  15.671  0.00  0.00    -0.019 C 
ATOM     32  C   UNL     1       3.281   1.211  14.543  0.00  0.00    -0.078 C 
ATOM     33  N   UNL     1       2.582   1.773  13.368  0.00  0.00    +0.384 N 
ATOM     34  H   UNL     1       1.809   1.148  13.110  0.00  0.00    -0.081 HD
ENDBRANCH  27  33
ENDBRANCH   4  27
TORSDOF 7
