REMARK  Name = ZINC05025037
REMARK  4 active torsions:
REMARK  status: ('A' for Active; 'I' for Inactive)
REMARK    1  A    between atoms: C_4  and  C_7
REMARK    2  A    between atoms: C_7  and  C_9
REMARK    3  A    between atoms: N_22  and  C_25
REMARK    4  A    between atoms: C_28  and  N_31
REMARK                            x       y       z     vdW  Elec       q    Type
REMARK                         _______ _______ _______ _____ _____    ______ ____
ROOT
ATOM      1  C   UNL     1       3.719   1.893  -0.045  0.00  0.00    +0.017 C 
ATOM      2  C   UNL     1       4.018   2.483  -1.437  0.00  0.00    +0.080 C 
ATOM      3  C   UNL     1       5.550   2.322  -1.621  0.00  0.00    +0.073 C 
ATOM      4  C   UNL     1       6.041   1.638  -0.331  0.00  0.00    -0.055 C 
ATOM      5  C   UNL     1       4.676  -0.262  -0.594  0.00  0.00    -0.077 C 
ATOM      6  C   UNL     1       6.113  -0.755  -0.863  0.00  0.00    -0.020 C 
ATOM      7  C   UNL     1       7.003   0.494  -0.704  0.00  0.00    -0.016 C 
ATOM      8  C   UNL     1       5.663   1.351  -2.775  0.00  0.00    +0.228 C 
ATOM      9  O   UNL     1       6.702   0.951  -3.254  0.00  0.00    -0.275 OA
ATOM     10  N   UNL     1       4.437   1.002  -3.183  0.00  0.00    -0.210 N 
ATOM     11  C   UNL     1       3.440   1.576  -2.501  0.00  0.00    +0.229 C 
ATOM     12  O   UNL     1       2.258   1.397  -2.703  0.00  0.00    -0.275 OA
ATOM     13  N   UNL     1       4.853   0.983   0.177  0.00  0.00    +0.389 N 
ATOM     14  H   UNL     1       4.950   0.772   1.177  0.00  0.00    -0.080 HD
ENDROOT
BRANCH  10  15
ATOM     15  C   UNL     1       4.216   0.107  -4.239  0.00  0.00    +0.044 A 
ATOM     16  C   UNL     1       4.563   0.462  -5.536  0.00  0.00    +0.026 A 
ATOM     17  C   UNL     1       4.350  -0.425  -6.574  0.00  0.00    +0.034 A 
ATOM     18  C   UNL     1       3.781  -1.660  -6.324  0.00  0.00    +0.126 A 
ATOM     19  C   UNL     1       3.429  -2.014  -5.034  0.00  0.00    +0.034 A 
ATOM     20  C   UNL     1       3.646  -1.134  -3.991  0.00  0.00    +0.026 A 
BRANCH  18  21
ATOM     21  N   UNL     1       3.548  -2.605  -7.439  0.00  0.00    +0.056 N 
ATOM     22  O   UNL     1       3.047  -3.694  -7.220  0.00  0.00    -0.126 OA
ATOM     23  O   UNL     1       3.857  -2.295  -8.575  0.00  0.00    -0.126 OA
ENDBRANCH  18  21
ENDBRANCH  10  15
BRANCH   1  24
ATOM     24  C   UNL     1       2.408   1.151  -0.062  0.00  0.00    +0.151 C 
ATOM     25  O   UNL     1       2.398  -0.062  -0.062  0.00  0.00    -0.294 OA
BRANCH  24  29
ATOM     26  C   UNL     1      -1.248   3.302  -0.109  0.00  0.00    +0.000 A 
ATOM     27  C   UNL     1      -1.263   1.918  -0.114  0.00  0.00    +0.001 A 
ATOM     28  C   UNL     1      -0.079   1.212  -0.093  0.00  0.00    +0.011 A 
ATOM     29  C   UNL     1       1.140   1.897  -0.078  0.00  0.00    +0.016 A 
ATOM     30  C   UNL     1       1.147   3.296  -0.078  0.00  0.00    +0.011 A 
ATOM     31  C   UNL     1      -0.045   3.988  -0.093  0.00  0.00    +0.001 A 
ENDBRANCH  24  29
ENDBRANCH   1  24
TORSDOF 4
