REMARK  Name = ZINC13500601
REMARK  15 active torsions:
REMARK  status: ('A' for Active; 'I' for Inactive)
REMARK    1  A    between atoms: C_1  and  C_2
REMARK    2  A    between atoms: C_2  and  O_3
REMARK    3  A    between atoms: O_3  and  C_4
REMARK    4  A    between atoms: C_4  and  C_6
REMARK    5  A    between atoms: C_6  and  N_7
REMARK    6  A    between atoms: C_8  and  C_12
REMARK    7  A    between atoms: C_12  and  C_14
REMARK    8  A    between atoms: C_12  and  N_74
REMARK    9  A    between atoms: C_14  and  C_15
REMARK   10  A    between atoms: C_14  and  C_16
REMARK   11  A    between atoms: C_17  and  C_18
REMARK   12  A    between atoms: C_17  and  N_74
REMARK   13  A    between atoms: C_22  and  C_31
REMARK   14  A    between atoms: C_24  and  C_30
REMARK   15  A    between atoms: C_32  and  N_74
REMARK                            x       y       z     vdW  Elec       q    Type
REMARK                         _______ _______ _______ _____ _____    ______ ____
ROOT
ATOM      1  N   UNL     1      -3.478   0.931  -1.190  0.00  0.00    +0.391 N 
ATOM      2  H   UNL     1      -2.645   0.742  -1.760  0.00  0.00    -0.080 HD
ENDROOT
BRANCH   1   3
ATOM      3  C   UNL     1      -4.232   2.047  -1.799  0.00  0.00    -0.067 C 
ATOM      4  C   UNL     1      -5.579   2.232  -1.096  0.00  0.00    -0.015 C 
ATOM      5  C   UNL     1      -6.340   3.389  -1.746  0.00  0.00    -0.002 C 
ATOM      6  C   UNL     1      -6.575   3.076  -3.225  0.00  0.00    -0.000 C 
ATOM      7  C   UNL     1      -5.229   2.892  -3.929  0.00  0.00    -0.002 C 
ATOM      8  C   UNL     1      -4.468   1.735  -3.278  0.00  0.00    -0.015 C 
ENDBRANCH   1   3
BRANCH   1   9
ATOM      9  C   UNL     1      -4.319  -0.284  -1.151  0.00  0.00    +0.006 C 
BRANCH   9  11
ATOM     10  N   UNL     1      -6.441  -0.529   0.242  0.00  0.00    -0.220 N 
ATOM     11  C   UNL     1      -5.115  -0.331   0.128  0.00  0.00    +0.139 A 
ATOM     12  N   UNL     1      -4.649  -0.191   1.345  0.00  0.00    -0.115 NA
ATOM     13  N   UNL     1      -5.639  -0.291   2.164  0.00  0.00    -0.023 NA
ATOM     14  N   UNL     1      -6.723  -0.498   1.501  0.00  0.00    -0.043 NA
BRANCH  10  15
ATOM     15  C   UNL     1      -7.387  -0.742  -0.856  0.00  0.00    +0.267 C 
BRANCH  15  16
ATOM     16  C   UNL     1      -7.591  -2.220  -1.065  0.00  0.00    +0.329 C 
ATOM     17  O   UNL     1      -7.080  -3.013  -0.310  0.00  0.00    -0.249 OA
BRANCH  16  18
ATOM     18  O   UNL     1      -8.339  -2.656  -2.091  0.00  0.00    -0.464 OA
BRANCH  18  20
ATOM     19  C   UNL     1      -9.371  -4.396  -3.446  0.00  0.00    +0.048 C 
ATOM     20  C   UNL     1      -8.492  -4.093  -2.231  0.00  0.00    +0.229 C 
ENDBRANCH  18  20
ENDBRANCH  16  18
ENDBRANCH  15  16
ENDBRANCH  10  15
ENDBRANCH   9  11
BRANCH   9  21
ATOM     21  C   UNL     1      -3.407  -1.510  -1.229  0.00  0.00    -0.024 C 
ATOM     22  C   UNL     1      -2.614  -1.474  -2.537  0.00  0.00    +0.006 C 
ATOM     23  C   UNL     1      -2.438  -1.501  -0.045  0.00  0.00    +0.006 C 
ENDBRANCH   9  21
ENDBRANCH   1   9
BRANCH   1  24
ATOM     24  C   UNL     1      -3.053   1.296   0.177  0.00  0.00    -0.036 C 
BRANCH  24  25
ATOM     25  C   UNL     1      -2.000   2.370   0.088  0.00  0.00    +0.001 A 
ATOM     26  C   UNL     1      -2.315   3.653   0.394  0.00  0.00    +0.017 A 
ATOM     27  C   UNL     1      -1.271   4.674   0.291  0.00  0.00    -0.001 A 
ATOM     28  C   UNL     1      -1.539   6.015   0.587  0.00  0.00    +0.013 A 
ATOM     29  C   UNL     1      -0.543   6.943   0.480  0.00  0.00    -0.050 A 
ATOM     30  C   UNL     1       0.733   6.568   0.080  0.00  0.00    +0.008 A 
ATOM     31  C   UNL     1       1.019   5.253  -0.216  0.00  0.00    -0.026 A 
ATOM     32  C   UNL     1       0.021   4.290  -0.115  0.00  0.00    +0.052 A 
ATOM     33  N   UNL     1       0.279   2.967  -0.406  0.00  0.00    -0.322 N 
ATOM     34  H   UNL     1       1.170   2.704  -0.686  0.00  0.00    +0.169 HD
ATOM     35  C   UNL     1      -0.687   2.037  -0.309  0.00  0.00    +0.251 A 
ATOM     36  O   UNL     1      -0.423   0.877  -0.574  0.00  0.00    -0.268 OA
ATOM     37  C   UNL     1       2.408   4.860  -0.648  0.00  0.00    +0.046 C 
ATOM     38  C   UNL     1      -0.831   8.388   0.798  0.00  0.00    +0.044 C 
ENDBRANCH  24  25
ENDBRANCH   1  24
TORSDOF 10
