REMARK  Name = ZINC21761294
REMARK  7 active torsions:
REMARK  status: ('A' for Active; 'I' for Inactive)
REMARK    1  A    between atoms: C_1  and  C_2
REMARK    2  A    between atoms: C_4  and  N_30
REMARK    3  A    between atoms: C_6  and  S_8
REMARK    4  A    between atoms: S_8  and  C_9
REMARK    5  A    between atoms: C_9  and  C_10
REMARK    6  A    between atoms: C_19  and  S_21
REMARK    7  A    between atoms: S_21  and  N_24
REMARK                            x       y       z     vdW  Elec       q    Type
REMARK                         _______ _______ _______ _____ _____    ______ ____
ROOT
ATOM      1  C   UNL     1      -8.356   1.050   0.837  0.00  0.00    +0.230 C 
ATOM      2  O   UNL     1      -8.060   1.221   2.001  0.00  0.00    -0.274 OA
ATOM      3  N   UNL     1      -7.573   1.550  -0.139  0.00  0.00    -0.270 N 
ATOM      4  C   UNL     1      -7.827   1.409  -1.575  0.00  0.00    +0.118 C 
ATOM      5  C   UNL     1      -6.665   2.143  -2.264  0.00  0.00    +0.056 C 
ATOM      6  C   UNL     1      -5.814   2.662  -1.126  0.00  0.00    -0.023 A 
ATOM      7  C   UNL     1      -6.400   2.281   0.071  0.00  0.00    +0.040 A 
ATOM      8  C   UNL     1      -5.789   2.649   1.271  0.00  0.00    +0.026 A 
ATOM      9  C   UNL     1      -4.620   3.380   1.261  0.00  0.00    +0.030 A 
ATOM     10  C   UNL     1      -4.043   3.754   0.061  0.00  0.00    +0.106 A 
ATOM     11  C   UNL     1      -4.646   3.398  -1.132  0.00  0.00    +0.034 A 
ENDROOT
BRANCH  10  12
ATOM     12  S   UNL     1      -2.550   4.688   0.052  0.00  0.00    +0.061 S 
ATOM     13  O   UNL     1      -2.485   5.364   1.300  0.00  0.00    -0.153 OA
ATOM     14  O   UNL     1      -2.509   5.377  -1.190  0.00  0.00    -0.153 OA
BRANCH  12  15
ATOM     15  N   UNL     1      -1.296   3.606   0.034  0.00  0.00    -0.177 NA
ATOM     16  C   UNL     1      -0.741   3.124  -1.238  0.00  0.00    +0.109 C 
ATOM     17  C   UNL     1      -0.752   1.593  -1.232  0.00  0.00    +0.017 C 
ATOM     18  C   UNL     1      -0.013   1.086   0.008  0.00  0.00    +0.003 C 
ATOM     19  C   UNL     1      -0.729   1.579   1.268  0.00  0.00    +0.017 C 
ATOM     20  C   UNL     1      -0.717   3.111   1.290  0.00  0.00    +0.109 C 
ENDBRANCH  12  15
ENDBRANCH  10  12
BRANCH   1  21
ATOM     21  C   UNL     1      -9.600   0.276   0.483  0.00  0.00    +0.173 C 
BRANCH  21  22
ATOM     22  S   UNL     1     -10.430  -0.260   2.000  0.00  0.00    -0.077 S 
BRANCH  22  28
ATOM     23  C   UNL     1     -14.740  -2.960   2.573  0.00  0.00    +0.066 C 
ATOM     24  C   UNL     1     -13.742  -2.326   1.639  0.00  0.00    +0.044 A 
ATOM     25  C   UNL     1     -13.911  -2.416   0.271  0.00  0.00    +0.066 A 
ATOM     26  C   UNL     1     -12.963  -1.814  -0.559  0.00  0.00    +0.121 A 
ATOM     27  N   UNL     1     -11.937  -1.173  -0.008  0.00  0.00    -0.207 NA
ATOM     28  C   UNL     1     -11.808  -1.114   1.309  0.00  0.00    +0.191 A 
ATOM     29  N   UNL     1     -12.693  -1.676   2.120  0.00  0.00    -0.227 NA
BRANCH  26  30
ATOM     30  N   UNL     1     -13.093  -1.879  -1.937  0.00  0.00    -0.343 N 
ATOM     31  H   UNL     1     -12.341  -1.402  -2.583  0.00  0.00    +0.144 HD
ATOM     32  H   UNL     1     -13.947  -2.407  -2.385  0.00  0.00    +0.144 HD
ENDBRANCH  26  30
ENDBRANCH  22  28
ENDBRANCH  21  22
ENDBRANCH   1  21
TORSDOF 6
