REMARK  Name = ZINC21712713
REMARK  14 active torsions:
REMARK  status: ('A' for Active; 'I' for Inactive)
REMARK    1  A    between atoms: C_1  and  C_2
REMARK    2  A    between atoms: C_2  and  C_3
REMARK    3  A    between atoms: C_2  and  C_4
REMARK    4  A    between atoms: C_4  and  C_5
REMARK    5  A    between atoms: C_5  and  N_6
REMARK    6  A    between atoms: C_7  and  C_9
REMARK    7  A    between atoms: C_15  and  C_17
REMARK    8  A    between atoms: C_20  and  N_23
REMARK    9  A    between atoms: N_23  and  S_24
REMARK   10  A    between atoms: S_24  and  C_27
REMARK   11  A    between atoms: C_30  and  C_33
REMARK   12  A    between atoms: C_33  and  C_34
REMARK   13  A    between atoms: C_33  and  C_35
REMARK   14  A    between atoms: C_33  and  C_36
REMARK                            x       y       z     vdW  Elec       q    Type
REMARK                         _______ _______ _______ _____ _____    ______ ____
ROOT
ATOM      1  C   UNL     1      -2.586   1.636   5.234  0.00  0.00    +0.037 A 
ATOM      2  C   UNL     1      -1.660   0.592   5.146  0.00  0.00    +0.015 A 
ATOM      3  C   UNL     1      -0.478   0.779   4.466  0.00  0.00    +0.025 A 
ATOM      4  C   UNL     1      -0.204   2.005   3.867  0.00  0.00    +0.048 A 
ATOM      5  C   UNL     1      -1.121   3.048   3.958  0.00  0.00    +0.025 A 
ATOM      6  C   UNL     1      -2.308   2.866   4.631  0.00  0.00    +0.015 A 
ENDROOT
BRANCH   1  12
ATOM      7  C   UNL     1      -5.462  -0.141   7.068  0.00  0.00    +0.162 C 
ATOM      8  C   UNL     1      -5.622  -1.664   6.819  0.00  0.00    +0.033 C 
ATOM      9  C   UNL     1      -4.155  -2.154   6.943  0.00  0.00    +0.021 C 
ATOM     10  C   UNL     1      -3.349  -0.989   6.330  0.00  0.00    +0.109 C 
ATOM     11  N   UNL     1      -4.191   0.214   6.410  0.00  0.00    -0.286 N 
ATOM     12  C   UNL     1      -3.854   1.440   5.962  0.00  0.00    +0.247 C 
ATOM     13  O   UNL     1      -4.595   2.383   6.157  0.00  0.00    -0.270 OA
BRANCH   7  15
ATOM     14  N   UNL     1      -7.689   0.928   7.179  0.00  0.00    -0.314 N 
ATOM     15  C   UNL     1      -6.605   0.616   6.442  0.00  0.00    +0.234 C 
ATOM     16  O   UNL     1      -6.550   0.943   5.276  0.00  0.00    -0.274 OA
ATOM     17  H   UNL     1      -7.739   0.632   8.238  0.00  0.00    +0.149 HD
BRANCH  14  18
ATOM     18  C   UNL     1      -8.801   1.664   6.572  0.00  0.00    +0.104 C 
BRANCH  18  19
ATOM     19  C   UNL     1      -9.896   1.889   7.616  0.00  0.00    +0.022 C 
BRANCH  19  21
ATOM     20  C   UNL     1     -11.704   1.796   5.895  0.00  0.00    +0.007 C 
ATOM     21  C   UNL     1     -11.056   2.657   6.981  0.00  0.00    -0.016 C 
ATOM     22  C   UNL     1     -12.095   2.990   8.055  0.00  0.00    +0.007 C 
ENDBRANCH  19  21
ENDBRANCH  18  19
ENDBRANCH  14  18
ENDBRANCH   7  15
ENDBRANCH   1  12
BRANCH   4  23
ATOM     23  N   UNL     1       0.991   2.190   3.181  0.00  0.00    -0.216 N 
ATOM     24  H   UNL     1       1.790   2.804   3.623  0.00  0.00    +0.174 HD
BRANCH  23  25
ATOM     25  S   UNL     1       1.213   1.486   1.699  0.00  0.00    +0.072 S 
ATOM     26  O   UNL     1       0.826   0.125   1.833  0.00  0.00    -0.150 OA
ATOM     27  O   UNL     1       2.508   1.870   1.256  0.00  0.00    -0.150 OA
BRANCH  25  28
ATOM     28  C   UNL     1       0.062   2.229   0.591  0.00  0.00    +0.109 A 
ATOM     29  C   UNL     1      -1.154   1.619   0.346  0.00  0.00    +0.029 A 
ATOM     30  C   UNL     1      -2.059   2.205  -0.520  0.00  0.00    +0.006 A 
ATOM     31  C   UNL     1      -1.745   3.396  -1.147  0.00  0.00    -0.042 A 
ATOM     32  C   UNL     1      -0.527   4.004  -0.905  0.00  0.00    +0.006 A 
ATOM     33  C   UNL     1       0.377   3.420  -0.036  0.00  0.00    +0.029 A 
BRANCH  31  34
ATOM     34  C   UNL     1      -2.730   4.033  -2.093  0.00  0.00    -0.013 C 
ATOM     35  C   UNL     1      -2.097   4.157  -3.480  0.00  0.00    +0.015 C 
ATOM     36  C   UNL     1      -3.986   3.164  -2.181  0.00  0.00    +0.015 C 
ATOM     37  C   UNL     1      -3.106   5.423  -1.578  0.00  0.00    +0.015 C 
ENDBRANCH  31  34
ENDBRANCH  25  28
ENDBRANCH  23  25
ENDBRANCH   4  23
TORSDOF 9
