REMARK  Name = ZINC49184215
REMARK  5 active torsions:
REMARK  status: ('A' for Active; 'I' for Inactive)
REMARK    1  A    between atoms: C_1  and  C_2
REMARK    2  A    between atoms: C_2  and  C_3
REMARK    3  A    between atoms: C_4  and  C_18
REMARK    4  A    between atoms: N_8  and  S_9
REMARK    5  A    between atoms: S_9  and  C_12
REMARK                            x       y       z     vdW  Elec       q    Type
REMARK                         _______ _______ _______ _____ _____    ______ ____
ROOT
ATOM      1  C   UNL     1      -1.412  -0.526   0.013  0.00  0.00    +0.027 A 
ATOM      2  C   UNL     1      -2.009  -0.849  -1.134  0.00  0.00    +0.009 A 
ATOM      3  S   UNL     1      -3.617  -1.394  -0.579  0.00  0.00    -0.053 S 
ATOM      4  C   UNL     1      -3.367  -1.146   1.172  0.00  0.00    +0.192 A 
ATOM      5  N   UNL     1      -2.074  -0.671   1.196  0.00  0.00    -0.336 N 
ATOM      6  N   UNL     1      -4.192  -1.363   2.167  0.00  0.00    -0.103 NA
ATOM      7  C   UNL     1      -1.468  -0.772  -2.538  0.00  0.00    +0.053 C 
ATOM      8  H   UNL     1      -1.645  -0.442   2.036  0.00  0.00    +0.168 HD
ENDROOT
BRANCH   6   9
ATOM      9  S   UNL     1      -5.711  -1.952   1.871  0.00  0.00    +0.109 S 
ATOM     10  O   UNL     1      -6.406  -0.941   1.155  0.00  0.00    -0.146 OA
ATOM     11  O   UNL     1      -5.544  -3.268   1.362  0.00  0.00    -0.146 OA
BRANCH   9  12
ATOM     12  C   UNL     1      -6.520  -2.113   3.428  0.00  0.00    +0.170 A 
ATOM     13  C   UNL     1      -7.284  -1.218   4.104  0.00  0.00    +0.149 A 
ATOM     14  N   UNL     1      -7.773  -1.606   5.265  0.00  0.00    -0.234 NA
ATOM     15  C   UNL     1      -7.530  -2.803   5.741  0.00  0.00    +0.169 A 
ATOM     16  S   UNL     1      -6.568  -3.501   4.550  0.00  0.00    -0.035 S 
ATOM     17 CL   UNL     1      -8.075  -3.502   7.234  0.00  0.00    -0.054 Cl
ENDBRANCH   9  12
ENDBRANCH   6   9
BRANCH   1  19
ATOM     18  C   UNL     1      -0.019   1.526   0.010  0.00  0.00    +0.010 C 
ATOM     19  C   UNL     1       0.002  -0.004   0.002  0.00  0.00    +0.050 C 
ENDBRANCH   1  19
TORSDOF 3
