REMARK  Name = ZINC02299593
REMARK  5 active torsions:
REMARK  status: ('A' for Active; 'I' for Inactive)
REMARK    1  A    between atoms: C_1  and  C_2
REMARK    2  A    between atoms: C_5  and  N_8
REMARK    3  A    between atoms: C_17  and  S_18
REMARK    4  A    between atoms: S_18  and  C_19
REMARK    5  A    between atoms: C_19  and  C_20
REMARK                            x       y       z     vdW  Elec       q    Type
REMARK                         _______ _______ _______ _____ _____    ______ ____
ROOT
ATOM      1  N   UNL     1       1.304  -4.546  -0.363  0.00  0.00    -0.255 N 
ATOM      2  C   UNL     1       1.815  -3.352   0.018  0.00  0.00    +0.268 A 
ATOM      3  O   UNL     1       3.014  -3.174   0.153  0.00  0.00    -0.267 OA
ATOM      4  C   UNL     1       0.861  -2.309   0.253  0.00  0.00    +0.076 A 
ATOM      5  C   UNL     1       1.149  -0.946   0.666  0.00  0.00    -0.023 A 
ATOM      6  C   UNL     1       0.087  -0.124   0.830  0.00  0.00    -0.004 A 
ATOM      7  S   UNL     1      -1.333  -1.117   0.445  0.00  0.00    -0.073 S 
ATOM      8  C   UNL     1      -0.504  -2.628   0.066  0.00  0.00    +0.117 A 
ATOM      9  N   UNL     1      -0.942  -3.823  -0.310  0.00  0.00    -0.215 NA
ATOM     10  C   UNL     1      -0.033  -4.765  -0.519  0.00  0.00    +0.178 A 
ATOM     11  C   UNL     1       0.109   1.314   1.247  0.00  0.00    +0.043 C 
ATOM     12  C   UNL     1       1.495   1.633   1.824  0.00  0.00    +0.005 C 
ATOM     13  C   UNL     1       2.561   1.091   0.865  0.00  0.00    +0.005 C 
ATOM     14  C   UNL     1       2.567  -0.437   0.909  0.00  0.00    +0.037 C 
ENDROOT
BRANCH   1  19
ATOM     15  C   UNL     1       4.888  -8.834  -1.351  0.00  0.00    +0.044 C 
ATOM     16  C   UNL     1       3.936  -7.696  -1.089  0.00  0.00    -0.050 A 
ATOM     17  C   UNL     1       3.582  -6.841  -2.117  0.00  0.00    +0.005 A 
ATOM     18  C   UNL     1       2.711  -5.796  -1.879  0.00  0.00    +0.026 A 
ATOM     19  C   UNL     1       2.189  -5.605  -0.607  0.00  0.00    +0.052 A 
ATOM     20  C   UNL     1       2.550  -6.462   0.424  0.00  0.00    +0.026 A 
ATOM     21  C   UNL     1       3.418  -7.508   0.179  0.00  0.00    +0.005 A 
ENDBRANCH   1  19
BRANCH  10  22
ATOM     22  S   UNL     1      -0.574  -6.366  -1.019  0.00  0.00    -0.074 S 
BRANCH  22  23
ATOM     23  C   UNL     1      -2.363  -6.093  -1.064  0.00  0.00    +0.165 C 
BRANCH  23  24
ATOM     24  C   UNL     1      -3.039  -7.335  -1.471  0.00  0.00    -0.094 C 
ATOM     25  C   UNL     1      -3.578  -8.327  -1.794  0.00  0.00    +0.004 C 
ENDBRANCH  23  24
ENDBRANCH  22  23
ENDBRANCH  10  22
TORSDOF 4
