REMARK  Name = ZINC63141483
REMARK  8 active torsions:
REMARK  status: ('A' for Active; 'I' for Inactive)
REMARK    1  A    between atoms: C_1  and  O_2
REMARK    2  A    between atoms: O_2  and  C_3
REMARK    3  A    between atoms: C_3  and  C_4
REMARK    4  A    between atoms: C_4  and  N_5
REMARK    5  A    between atoms: C_25  and  C_27
REMARK    6  A    between atoms: C_30  and  C_33
REMARK    7  A    between atoms: C_33  and  O_35
REMARK    8  A    between atoms: O_35  and  C_36
REMARK                            x       y       z     vdW  Elec       q    Type
REMARK                         _______ _______ _______ _____ _____    ______ ____
ROOT
ATOM      1  N   UNL     1      -0.517  -2.590   1.237  0.00  0.00    -0.289 N 
ATOM      2  C   UNL     1       0.933  -2.678   1.270  0.00  0.00    +0.203 C 
ATOM      3  C   UNL     1       1.440  -3.141   2.596  0.00  0.00    +0.234 C 
ATOM      4  O   UNL     1       2.640  -3.252   2.732  0.00  0.00    -0.274 OA
ATOM      5  N   UNL     1       0.664  -3.442   3.644  0.00  0.00    -0.279 N 
ATOM      6  C   UNL     1      -0.790  -3.330   3.607  0.00  0.00    +0.167 C 
ATOM      7  C   UNL     1      -1.297  -2.874   2.279  0.00  0.00    +0.237 C 
ATOM      8  O   UNL     1      -2.496  -2.758   2.139  0.00  0.00    -0.274 OA
ATOM      9  C   UNL     1      -1.270  -2.360   4.702  0.00  0.00    +0.065 C 
ATOM     10  C   UNL     1      -0.533  -2.737   5.963  0.00  0.00    -0.034 C 
ATOM     11  C   UNL     1      -0.965  -2.994   7.191  0.00  0.00    -0.001 A 
ATOM     12  C   UNL     1      -2.302  -2.899   7.800  0.00  0.00    +0.010 A 
ATOM     13  C   UNL     1      -2.394  -3.269   9.105  0.00  0.00    +0.001 A 
ATOM     14  C   UNL     1      -1.303  -3.719   9.856  0.00  0.00    +0.002 A 
ATOM     15  C   UNL     1      -0.037  -3.828   9.380  0.00  0.00    +0.026 A 
ATOM     16  C   UNL     1       0.187  -3.460   8.021  0.00  0.00    +0.043 A 
ATOM     17  N   UNL     1       1.285  -3.444   7.325  0.00  0.00    -0.375 N 
ATOM     18  C   UNL     1       0.980  -2.913   5.996  0.00  0.00    +0.131 C 
ATOM     19  C   UNL     1       1.328  -3.907   4.884  0.00  0.00    +0.133 C 
ATOM     20  H   UNL     1       2.157  -3.735   7.634  0.00  0.00    +0.160 HD
ENDROOT
BRANCH  19  21
ATOM     21  C   UNL     1       2.821  -3.945   4.681  0.00  0.00    -0.025 A 
ATOM     22  C   UNL     1       3.573  -2.801   4.883  0.00  0.00    +0.006 A 
ATOM     23  C   UNL     1       4.940  -2.829   4.699  0.00  0.00    +0.015 A 
ATOM     24  C   UNL     1       5.564  -4.015   4.308  0.00  0.00    +0.059 A 
ATOM     25  C   UNL     1       4.799  -5.166   4.105  0.00  0.00    +0.015 A 
ATOM     26  C   UNL     1       3.434  -5.125   4.298  0.00  0.00    +0.006 A 
BRANCH  24  27
ATOM     27  C   UNL     1       7.027  -4.053   4.108  0.00  0.00    +0.339 C 
ATOM     28  O   UNL     1       7.690  -3.050   4.285  0.00  0.00    -0.245 OA
BRANCH  27  29
ATOM     29  O   UNL     1       7.626  -5.199   3.731  0.00  0.00    -0.464 OA
ATOM     30  C   UNL     1       9.044  -5.162   3.557  0.00  0.00    +0.280 C 
ENDBRANCH  27  29
ENDBRANCH  24  27
ENDBRANCH  19  21
BRANCH   1  31
ATOM     31  C   UNL     1      -1.156  -2.159  -0.009  0.00  0.00    +0.136 C 
BRANCH  31  32
ATOM     32  C   UNL     1      -1.299  -0.636  -0.009  0.00  0.00    +0.178 C 
BRANCH  32  34
ATOM     33  C   UNL     1      -0.023   1.393  -0.023  0.00  0.00    +0.194 C 
ATOM     34  O   UNL     1      -0.002  -0.036  -0.022  0.00  0.00    -0.381 OA
ENDBRANCH  32  34
ENDBRANCH  31  32
ENDBRANCH   1  31
TORSDOF 6
