REMARK  Name = ZINC06093410
REMARK  10 active torsions:
REMARK  status: ('A' for Active; 'I' for Inactive)
REMARK    1  A    between atoms: C_1  and  C_2
REMARK    2  A    between atoms: C_9  and  N_13
REMARK    3  A    between atoms: C_10  and  C_11
REMARK    4  A    between atoms: C_14  and  C_16
REMARK    5  A    between atoms: C_16  and  O_17
REMARK    6  A    between atoms: O_17  and  C_18
REMARK    7  A    between atoms: C_18  and  C_20
REMARK    8  A    between atoms: C_23  and  S_26
REMARK    9  A    between atoms: S_26  and  N_29
REMARK   10  A    between atoms: N_29  and  C_30
REMARK                            x       y       z     vdW  Elec       q    Type
REMARK                         _______ _______ _______ _____ _____    ______ ____
ROOT
ATOM      1  C   UNL     1       3.485  -7.580  -5.671  0.00  0.00    +0.340 C 
ATOM      2  O   UNL     1       3.524  -8.432  -4.806  0.00  0.00    -0.245 OA
ENDROOT
BRANCH   1   3
ATOM      3  C   UNL     1       3.725  -7.948  -7.082  0.00  0.00    +0.059 A 
ATOM      4  C   UNL     1       3.676  -6.972  -8.079  0.00  0.00    +0.017 A 
ATOM      5  C   UNL     1       3.906  -7.321  -9.394  0.00  0.00    +0.029 A 
ATOM      6  C   UNL     1       4.173  -8.638  -9.726  0.00  0.00    +0.109 A 
ATOM      7  C   UNL     1       4.218  -9.611  -8.743  0.00  0.00    +0.029 A 
ATOM      8  C   UNL     1       3.995  -9.274  -7.424  0.00  0.00    +0.017 A 
BRANCH   6   9
ATOM      9  S   UNL     1       4.458  -9.077 -11.409  0.00  0.00    +0.072 S 
ATOM     10  O   UNL     1       4.780  -7.874 -12.093  0.00  0.00    -0.150 OA
ATOM     11  O   UNL     1       5.328 -10.200 -11.393  0.00  0.00    -0.150 OA
BRANCH   9  12
ATOM     12  N   UNL     1       3.016  -9.603 -12.028  0.00  0.00    -0.216 N 
ATOM     13  H   UNL     1       2.924 -10.520 -12.331  0.00  0.00    +0.174 HD
BRANCH  12  14
ATOM     14  C   UNL     1       1.932  -8.726 -12.116  0.00  0.00    +0.048 A 
ATOM     15  C   UNL     1       0.866  -8.848 -11.233  0.00  0.00    +0.024 A 
ATOM     16  C   UNL     1      -0.202  -7.977 -11.319  0.00  0.00    +0.002 A 
ATOM     17  C   UNL     1      -0.216  -6.991 -12.289  0.00  0.00    +0.000 A 
ATOM     18  C   UNL     1       0.841  -6.870 -13.172  0.00  0.00    +0.002 A 
ATOM     19  C   UNL     1       1.915  -7.735 -13.088  0.00  0.00    +0.024 A 
ENDBRANCH  12  14
ENDBRANCH   9  12
ENDBRANCH   6   9
ENDBRANCH   1   3
BRANCH   1  20
ATOM     20  O   UNL     1       3.224  -6.299  -5.344  0.00  0.00    -0.452 OA
BRANCH  20  21
ATOM     21  C   UNL     1       2.999  -6.010  -3.939  0.00  0.00    +0.328 C 
BRANCH  21  23
ATOM     22  N   UNL     1       2.485  -4.037  -2.539  0.00  0.00    -0.276 N 
ATOM     23  C   UNL     1       2.725  -4.539  -3.767  0.00  0.00    +0.255 C 
ATOM     24  O   UNL     1       2.720  -3.805  -4.733  0.00  0.00    -0.272 OA
ATOM     25  H   UNL     1       2.489  -4.624  -1.766  0.00  0.00    +0.155 HD
BRANCH  22  33
ATOM     26  C   UNL     1       1.014   3.632  -2.079  0.00  0.00    +0.008 C 
ATOM     27  C   UNL     1       0.948   2.126  -1.818  0.00  0.00    -0.009 C 
ATOM     28  C   UNL     1       1.699   1.796  -0.525  0.00  0.00    +0.008 C 
ATOM     29  C   UNL     1       1.432   0.344  -0.124  0.00  0.00    +0.037 C 
ATOM     30  C   UNL     1       1.735  -0.556  -1.315  0.00  0.00    -0.018 A 
ATOM     31  C   UNL     1       1.805  -0.053  -2.568  0.00  0.00    -0.004 A 
ATOM     32  S   UNL     1       2.173  -1.448  -3.595  0.00  0.00    -0.077 S 
ATOM     33  C   UNL     1       2.232  -2.682  -2.380  0.00  0.00    +0.090 A 
ATOM     34  C   UNL     1       1.967  -1.986  -1.210  0.00  0.00    +0.084 A 
ATOM     35  C   UNL     1       1.610   1.373  -2.981  0.00  0.00    +0.046 C 
BRANCH  34  36
ATOM     36  C   UNL     1       1.922  -2.654   0.057  0.00  0.00    +0.102 C 
ATOM     37  N   UNL     1       1.887  -3.183   1.061  0.00  0.00    -0.191 NA
ENDBRANCH  34  36
ENDBRANCH  22  33
ENDBRANCH  21  23
ENDBRANCH  20  21
ENDBRANCH   1  20
TORSDOF 9
