REMARK  Name = ZINC35990844
REMARK  10 active torsions:
REMARK  status: ('A' for Active; 'I' for Inactive)
REMARK    1  A    between atoms: C_1  and  C_2
REMARK    2  A    between atoms: C_2  and  O_3
REMARK    3  A    between atoms: O_3  and  C_4
REMARK    4  A    between atoms: C_4  and  C_6
REMARK    5  A    between atoms: C_7  and  C_24
REMARK    6  A    between atoms: N_8  and  C_21
REMARK    7  A    between atoms: C_12  and  C_14
REMARK    8  A    between atoms: C_19  and  C_20
REMARK    9  A    between atoms: C_21  and  C_22
REMARK   10  A    between atoms: C_24  and  N_25
REMARK                            x       y       z     vdW  Elec       q    Type
REMARK                         _______ _______ _______ _____ _____    ______ ____
ROOT
ATOM      1  C   UNL     1       1.710  -2.278  -2.929  0.00  0.00    +0.080 C 
ATOM      2  C   UNL     1       1.699  -3.604  -2.676  0.00  0.00    +0.041 C 
ATOM      3  N   UNL     1       2.161  -4.502  -3.596  0.00  0.00    -0.254 N 
ATOM      4  C   UNL     1       2.651  -4.153  -4.793  0.00  0.00    +0.307 C 
ATOM      5  O   UNL     1       3.040  -5.024  -5.546  0.00  0.00    -0.252 OA
ATOM      6  N   UNL     1       2.727  -2.867  -5.189  0.00  0.00    -0.288 N 
ATOM      7  C   UNL     1       2.248  -1.821  -4.270  0.00  0.00    +0.144 C 
ATOM      8  H   UNL     1       3.086  -2.636  -6.060  0.00  0.00    +0.151 HD
ENDROOT
BRANCH   7   9
ATOM      9  C   UNL     1       3.392  -0.874  -4.013  0.00  0.00    -0.020 A 
ATOM     10  C   UNL     1       4.038  -0.886  -2.791  0.00  0.00    +0.006 A 
ATOM     11  C   UNL     1       5.088  -0.018  -2.555  0.00  0.00    +0.000 A 
ATOM     12  C   UNL     1       5.492   0.861  -3.542  0.00  0.00    +0.000 A 
ATOM     13  C   UNL     1       4.847   0.873  -4.765  0.00  0.00    +0.004 A 
ATOM     14  C   UNL     1       3.800   0.002  -5.002  0.00  0.00    -0.045 A 
ATOM     15  C   UNL     1       3.100   0.010  -6.336  0.00  0.00    +0.044 C 
ENDBRANCH   7   9
BRANCH   1  16
ATOM     16  C   UNL     1       1.231  -1.348  -1.978  0.00  0.00    +0.339 C 
ATOM     17  O   UNL     1       0.852  -1.733  -0.888  0.00  0.00    -0.245 OA
BRANCH  16  18
ATOM     18  O   UNL     1       1.195  -0.033  -2.278  0.00  0.00    -0.462 OA
BRANCH  18  20
ATOM     19  C   UNL     1       0.943   2.305  -1.720  0.00  0.00    +0.048 C 
ATOM     20  C   UNL     1       0.808   0.861  -1.233  0.00  0.00    +0.229 C 
ENDBRANCH  18  20
ENDBRANCH  16  18
ENDBRANCH   1  16
BRANCH   3  21
ATOM     21  C   UNL     1       2.119  -5.926  -3.255  0.00  0.00    +0.141 C 
BRANCH  21  22
ATOM     22  C   UNL     1       0.845  -6.532  -3.786  0.00  0.00    -0.015 C 
ATOM     23  C   UNL     1       0.898  -7.539  -4.622  0.00  0.00    +0.005 C 
ENDBRANCH  21  22
ENDBRANCH   3  21
BRANCH   2  24
ATOM     24  C   UNL     1       1.167  -4.103  -1.357  0.00  0.00    +0.136 C 
BRANCH  24  25
ATOM     25  N   UNL     1      -0.242  -3.712  -1.217  0.00  0.00    -0.299 NA
ATOM     26  C   UNL     1      -1.042  -4.273  -2.279  0.00  0.00    +0.083 C 
ATOM     27  C   UNL     1      -2.157  -3.322  -2.759  0.00  0.00    -0.004 C 
ATOM     28  C   UNL     1      -2.853  -2.606  -1.585  0.00  0.00    -0.081 C 
ATOM     29  N   UNL     1      -3.076  -3.493  -0.469  0.00  0.00    +0.380 N 
ATOM     30  C   UNL     1      -1.953  -3.333   0.475  0.00  0.00    -0.067 C 
ATOM     31  C   UNL     1      -0.778  -4.119   0.105  0.00  0.00    +0.066 C 
ATOM     32  H   UNL     1      -3.943  -3.254  -0.011  0.00  0.00    -0.086 HD
ATOM     33  H   UNL     1      -3.114  -4.447  -0.794  0.00  0.00    -0.086 HD
ENDBRANCH  24  25
ENDBRANCH   2  24
TORSDOF 8
