REMARK  Name = ZINC01896831
REMARK  15 active torsions:
REMARK  status: ('A' for Active; 'I' for Inactive)
REMARK    1  A    between atoms: C_1  and  C_2
REMARK    2  A    between atoms: C_2  and  O_3
REMARK    3  A    between atoms: O_3  and  C_4
REMARK    4  A    between atoms: C_7  and  C_10
REMARK    5  A    between atoms: C_12  and  C_38
REMARK    6  A    between atoms: C_13  and  C_37
REMARK    7  A    between atoms: C_20  and  C_21
REMARK    8  A    between atoms: C_23  and  C_35
REMARK    9  A    between atoms: N_24  and  C_27
REMARK   10  A    between atoms: C_25  and  C_26
REMARK   11  A    between atoms: C_28  and  C_34
REMARK   12  A    between atoms: C_32  and  C_33
REMARK   13  A    between atoms: C_38  and  O_40
REMARK   14  A    between atoms: O_40  and  C_41
REMARK   15  A    between atoms: C_41  and  C_42
REMARK                            x       y       z     vdW  Elec       q    Type
REMARK                         _______ _______ _______ _____ _____    ______ ____
ROOT
ATOM      1  C   UNL     1      -2.126  -5.878   0.081  0.00  0.00    +0.162 C 
ATOM      2  C   UNL     1      -2.334  -6.401   1.484  0.00  0.00    +0.085 C 
ATOM      3  C   UNL     1      -3.353  -7.288   1.696  0.00  0.00    +0.053 C 
ATOM      4  N   UNL     1      -4.131  -7.674   0.693  0.00  0.00    -0.228 NA
ATOM      5  C   UNL     1      -4.011  -7.265  -0.545  0.00  0.00    +0.178 A 
ATOM      6  N   UNL     1      -3.055  -6.374  -0.973  0.00  0.00    -0.275 N 
ATOM      7  C   UNL     1      -3.032  -6.030  -2.267  0.00  0.00    +0.268 A 
ATOM      8  O   UNL     1      -2.204  -5.246  -2.692  0.00  0.00    -0.266 OA
ATOM      9  C   UNL     1      -4.033  -6.626  -3.158  0.00  0.00    +0.081 A 
ATOM     10  C   UNL     1      -4.220  -6.444  -4.492  0.00  0.00    +0.030 C 
ATOM     11  S   UNL     1      -4.939  -7.656  -2.016  0.00  0.00    -0.046 S 
ATOM     12  C   UNL     1      -3.593  -7.833   3.080  0.00  0.00    +0.066 C 
ENDROOT
BRANCH  10  13
ATOM     13  C   UNL     1      -5.300  -7.155  -5.185  0.00  0.00    -0.003 A 
ATOM     14  C   UNL     1      -6.267  -8.087  -4.592  0.00  0.00    +0.031 A 
ATOM     15  C   UNL     1      -7.068  -8.496  -5.590  0.00  0.00    +0.022 A 
ATOM     16  N   UNL     1      -6.678  -7.894  -6.754  0.00  0.00    -0.317 N 
ATOM     17  C   UNL     1      -5.618  -7.079  -6.527  0.00  0.00    +0.028 A 
ATOM     18  C   UNL     1      -4.910  -6.239  -7.559  0.00  0.00    +0.064 C 
ATOM     19  C   UNL     1      -8.214  -9.464  -5.449  0.00  0.00    +0.064 C 
BRANCH  16  20
ATOM     20  C   UNL     1      -7.288  -8.088  -8.000  0.00  0.00    +0.052 A 
ATOM     21  C   UNL     1      -6.850  -9.103  -8.840  0.00  0.00    -0.026 A 
ATOM     22  C   UNL     1      -7.454  -9.291 -10.068  0.00  0.00    +0.005 A 
ATOM     23  C   UNL     1      -8.494  -8.470 -10.461  0.00  0.00    +0.001 A 
ATOM     24  C   UNL     1      -8.933  -7.457  -9.627  0.00  0.00    +0.005 A 
ATOM     25  C   UNL     1      -8.337  -7.268  -8.396  0.00  0.00    -0.026 A 
ATOM     26  C   UNL     1      -8.820  -6.169  -7.485  0.00  0.00    +0.046 C 
ATOM     27  C   UNL     1      -5.716  -9.999  -8.412  0.00  0.00    +0.046 C 
ENDBRANCH  16  20
ENDBRANCH  10  13
BRANCH   1  31
ATOM     28  C   UNL     1      -2.433  -1.618   0.206  0.00  0.00    +0.121 A 
ATOM     29  C   UNL     1      -1.188  -2.227   0.260  0.00  0.00    +0.046 A 
ATOM     30  C   UNL     1      -1.091  -3.604   0.220  0.00  0.00    +0.009 A 
ATOM     31  C   UNL     1      -2.235  -4.376   0.126  0.00  0.00    -0.020 A 
ATOM     32  C   UNL     1      -3.477  -3.772   0.072  0.00  0.00    +0.009 A 
ATOM     33  C   UNL     1      -3.579  -2.395   0.118  0.00  0.00    +0.046 A 
BRANCH  28  34
ATOM     34  O   UNL     1      -2.531  -0.263   0.246  0.00  0.00    -0.492 OA
BRANCH  34  36
ATOM     35  C   UNL     1      -1.618   1.971   0.371  0.00  0.00    +0.048 C 
ATOM     36  C   UNL     1      -1.310   0.473   0.338  0.00  0.00    +0.225 C 
ENDBRANCH  34  36
ENDBRANCH  28  34
ENDBRANCH   1  31
BRANCH   2  37
ATOM     37  C   UNL     1      -1.505  -5.988   2.539  0.00  0.00    +0.339 C 
ATOM     38  O   UNL     1      -1.763  -6.320   3.683  0.00  0.00    -0.245 OA
BRANCH  37  39
ATOM     39  O   UNL     1      -0.422  -5.222   2.286  0.00  0.00    -0.462 OA
BRANCH  39  40
ATOM     40  C   UNL     1       0.377  -4.838   3.407  0.00  0.00    +0.229 C 
ATOM     41  C   UNL     1       1.550  -3.980   2.928  0.00  0.00    +0.048 C 
ENDBRANCH  39  40
ENDBRANCH  37  39
ENDBRANCH   2  37
TORSDOF 8
