REMARK  Name = ZINC18192162
REMARK  5 active torsions:
REMARK  status: ('A' for Active; 'I' for Inactive)
REMARK    1  A    between atoms: C_1  and  C_2
REMARK    2  A    between atoms: C_2  and  C_3
REMARK    3  A    between atoms: C_2  and  C_4
REMARK    4  A    between atoms: C_2  and  C_5
REMARK    5  A    between atoms: C_17  and  C_20
REMARK                            x       y       z     vdW  Elec       q    Type
REMARK                         _______ _______ _______ _____ _____    ______ ____
ROOT
ATOM      1  C   UNL     1       0.718  -0.497  -1.257  0.00  0.00    -0.000 C 
ATOM      2  C   UNL     1       2.153   0.037  -1.274  0.00  0.00    +0.009 C 
ATOM      3  C   UNL     1       2.948  -0.644  -2.389  0.00  0.00    +0.037 C 
ATOM      4  C   UNL     1       2.177  -0.507  -3.697  0.00  0.00    -0.023 A 
ATOM      5  C   UNL     1       0.859  -0.210  -3.696  0.00  0.00    -0.004 A 
ATOM      6  S   UNL     1       0.401  -0.155  -5.409  0.00  0.00    -0.078 S 
ATOM      7  C   UNL     1       1.922  -0.518  -6.105  0.00  0.00    +0.080 A 
ATOM      8  C   UNL     1       2.783  -0.678  -5.008  0.00  0.00    +0.068 A 
ATOM      9  C   UNL     1       4.198  -1.009  -5.291  0.00  0.00    +0.248 C 
ATOM     10  O   UNL     1       4.976  -1.284  -4.396  0.00  0.00    -0.270 OA
ATOM     11  N   UNL     1       4.589  -0.994  -6.583  0.00  0.00    -0.288 N 
ATOM     12  C   UNL     1       3.774  -0.451  -7.665  0.00  0.00    +0.207 C 
ATOM     13  N   UNL     1       2.337  -0.654  -7.404  0.00  0.00    -0.315 N 
ATOM     14  C   UNL     1      -0.018   0.016  -2.503  0.00  0.00    +0.046 C 
ATOM     15  H   UNL     1       5.459  -1.362  -6.803  0.00  0.00    +0.151 HD
ATOM     16  H   UNL     1       1.716  -0.872  -8.117  0.00  0.00    +0.149 HD
ENDROOT
BRANCH  12  17
ATOM     17  C   UNL     1       4.048   1.024  -7.797  0.00  0.00    +0.064 A 
ATOM     18  C   UNL     1       4.565   1.518  -8.943  0.00  0.00    +0.095 A 
ATOM     19  C   UNL     1       4.813   2.908  -9.044  0.00  0.00    +0.254 A 
ATOM     20  O   UNL     1       5.279   3.377 -10.067  0.00  0.00    -0.268 OA
ATOM     21  N   UNL     1       4.530   3.709  -7.997  0.00  0.00    -0.275 N 
ATOM     22  H   UNL     1       4.702   4.692  -8.060  0.00  0.00    +0.173 HD
ATOM     23  C   UNL     1       4.016   3.190  -6.866  0.00  0.00    +0.327 A 
ATOM     24  O   UNL     1       3.765   3.924  -5.929  0.00  0.00    -0.247 OA
ATOM     25  N   UNL     1       3.769   1.871  -6.759  0.00  0.00    -0.308 N 
ATOM     26  H   UNL     1       3.379   1.507  -5.914  0.00  0.00    +0.170 HD
ENDBRANCH  12  17
BRANCH   1  28
ATOM     27  C   UNL     1      -0.019   1.526   0.010  0.00  0.00    +0.011 C 
ATOM     28  C   UNL     1       0.002  -0.004   0.002  0.00  0.00    -0.035 C 
ATOM     29  C   UNL     1       0.742  -0.511   1.242  0.00  0.00    +0.011 C 
ATOM     30  C   UNL     1      -1.433  -0.534   0.013  0.00  0.00    +0.011 C 
ENDBRANCH   1  28
TORSDOF 2
