REMARK  Name = ZINC38714824
REMARK  14 active torsions:
REMARK  status: ('A' for Active; 'I' for Inactive)
REMARK    1  A    between atoms: C_1  and  C_2
REMARK    2  A    between atoms: C_2  and  C_3
REMARK    3  A    between atoms: C_3  and  O_4
REMARK    4  A    between atoms: O_4  and  C_5
REMARK    5  A    between atoms: C_9  and  C_11
REMARK    6  A    between atoms: C_19  and  C_35
REMARK    7  A    between atoms: N_26  and  C_27
REMARK    8  A    between atoms: C_27  and  C_28
REMARK    9  A    between atoms: C_28  and  C_29
REMARK   10  A    between atoms: C_29  and  N_30
REMARK   11  A    between atoms: N_30  and  C_31
REMARK   12  A    between atoms: N_30  and  C_33
REMARK   13  A    between atoms: C_31  and  C_32
REMARK   14  A    between atoms: C_33  and  C_34
REMARK                            x       y       z     vdW  Elec       q    Type
REMARK                         _______ _______ _______ _____ _____    ______ ____
ROOT
ATOM      1  C   UNL     1      -3.843  -6.378   0.103  0.00  0.00    +0.145 C 
ATOM      2  C   UNL     1      -4.248  -6.899   1.442  0.00  0.00    +0.072 A 
ATOM      3  C   UNL     1      -3.545  -6.907   2.729  0.00  0.00    +0.199 A 
ATOM      4  O   UNL     1      -2.511  -6.294   2.929  0.00  0.00    -0.287 OA
ATOM      5  C   UNL     1      -4.213  -7.735   3.766  0.00  0.00    +0.066 A 
ATOM      6  C   UNL     1      -3.570  -8.006   4.974  0.00  0.00    +0.035 A 
ATOM      7  C   UNL     1      -4.203  -8.780   5.922  0.00  0.00    +0.045 A 
ATOM      8  C   UNL     1      -5.473  -9.286   5.674  0.00  0.00    -0.029 A 
ATOM      9  C   UNL     1      -6.116  -9.023   4.486  0.00  0.00    +0.051 A 
ATOM     10  C   UNL     1      -5.498  -8.240   3.511  0.00  0.00    +0.140 A 
ATOM     11  O   UNL     1      -6.157  -7.988   2.357  0.00  0.00    -0.450 OA
ATOM     12  C   UNL     1      -5.498  -7.436   1.319  0.00  0.00    +0.199 A 
ATOM     13  C   UNL     1      -5.929  -7.287  -0.082  0.00  0.00    +0.283 C 
ATOM     14  O   UNL     1      -6.995  -7.666  -0.526  0.00  0.00    -0.267 OA
ATOM     15  N   UNL     1      -4.968  -6.669  -0.801  0.00  0.00    -0.284 N 
ATOM     16  C   UNL     1      -6.154 -10.133   6.717  0.00  0.00    +0.045 C 
ATOM     17 CL   UNL     1      -3.412  -9.123   7.429  0.00  0.00    -0.083 Cl
ENDROOT
BRANCH   1  22
ATOM     18  C   UNL     1      -2.095  -3.032   0.284  0.00  0.00    +0.121 A 
ATOM     19  C   UNL     1      -3.174  -2.160   0.303  0.00  0.00    +0.045 A 
ATOM     20  C   UNL     1      -4.463  -2.655   0.257  0.00  0.00    +0.004 A 
ATOM     21  C   UNL     1      -4.678  -4.020   0.192  0.00  0.00    +0.006 A 
ATOM     22  C   UNL     1      -3.605  -4.891   0.173  0.00  0.00    -0.019 A 
ATOM     23  C   UNL     1      -2.314  -4.400   0.213  0.00  0.00    +0.051 A 
BRANCH  18  24
ATOM     24  O   UNL     1      -0.827  -2.547   0.329  0.00  0.00    -0.492 OA
BRANCH  24  25
ATOM     25  C   UNL     1      -0.677  -1.127   0.401  0.00  0.00    +0.229 C 
BRANCH  25  27
ATOM     26  C   UNL     1       0.970   0.747   0.520  0.00  0.00    +0.007 C 
ATOM     27  C   UNL     1       0.810  -0.772   0.443  0.00  0.00    +0.038 C 
ENDBRANCH  25  27
ENDBRANCH  24  25
ENDBRANCH  18  24
ENDBRANCH   1  22
BRANCH  15  28
ATOM     28  C   UNL     1      -5.032  -6.345  -2.228  0.00  0.00    +0.107 C 
BRANCH  28  29
ATOM     29  C   UNL     1      -4.468  -7.511  -3.042  0.00  0.00    +0.000 C 
BRANCH  29  30
ATOM     30  C   UNL     1      -4.535  -7.173  -4.533  0.00  0.00    -0.077 C 
BRANCH  30  31
ATOM     31  N   UNL     1      -3.875  -8.233  -5.306  0.00  0.00    +0.379 N 
ATOM     32  H   UNL     1      -2.939  -8.371  -4.956  0.00  0.00    -0.082 HD
BRANCH  31  33
ATOM     33  C   UNL     1      -4.637  -9.482  -5.173  0.00  0.00    -0.082 C 
ATOM     34  C   UNL     1      -3.885 -10.615  -5.875  0.00  0.00    -0.017 C 
ENDBRANCH  31  33
BRANCH  31  35
ATOM     35  C   UNL     1      -3.817  -7.843  -6.721  0.00  0.00    -0.082 C 
ATOM     36  C   UNL     1      -2.905  -6.624  -6.877  0.00  0.00    -0.017 C 
ENDBRANCH  31  35
ENDBRANCH  30  31
ENDBRANCH  29  30
ENDBRANCH  28  29
ENDBRANCH  15  28
TORSDOF 10
