REMARK  Name = ZINC14644164
REMARK  12 active torsions:
REMARK  status: ('A' for Active; 'I' for Inactive)
REMARK    1  A    between atoms: C_1  and  C_2
REMARK    2  A    between atoms: C_2  and  C_3
REMARK    3  A    between atoms: C_3  and  C_5
REMARK    4  A    between atoms: C_3  and  C_6
REMARK    5  A    between atoms: C_11  and  O_12
REMARK    6  A    between atoms: O_12  and  C_13
REMARK    7  A    between atoms: C_13  and  C_14
REMARK    8  A    between atoms: N_16  and  N_17
REMARK    9  A    between atoms: C_18  and  C_20
REMARK   10  A    between atoms: C_20  and  C_22
REMARK   11  A    between atoms: C_20  and  O_23
REMARK   12  A    between atoms: O_23  and  C_24
REMARK                            x       y       z     vdW  Elec       q    Type
REMARK                         _______ _______ _______ _____ _____    ______ ____
ROOT
ATOM      1  C   UNL     1       2.342   1.074   0.539  0.00  0.00    +0.267 C 
ATOM      2  O   UNL     1       2.388  -0.125   0.364  0.00  0.00    -0.271 OA
ATOM      3  N   UNL     1       1.155   1.713   0.516  0.00  0.00    -0.231 N 
ATOM      4  H   UNL     1       1.118   2.672   0.655  0.00  0.00    +0.173 HD
ENDROOT
BRANCH   3   5
ATOM      5  N   UNL     1      -0.024   0.992   0.289  0.00  0.00    -0.231 N 
ATOM      6  C   UNL     1      -1.210   1.631   0.260  0.00  0.00    +0.270 C 
ATOM      7  O   UNL     1      -1.257   2.830   0.435  0.00  0.00    -0.270 OA
ATOM      8  H   UNL     1       0.013   0.032   0.150  0.00  0.00    +0.173 HD
BRANCH   6   9
ATOM      9  C   UNL     1      -2.478   0.856   0.011  0.00  0.00    +0.257 C 
ATOM     10  C   UNL     1      -2.720  -0.114   1.169  0.00  0.00    +0.062 C 
BRANCH   9  11
ATOM     11  O   UNL     1      -3.579   1.763  -0.089  0.00  0.00    -0.479 OA
BRANCH  11  12
ATOM     12  C   UNL     1      -4.659   1.345  -0.800  0.00  0.00    +0.136 A 
ATOM     13  C   UNL     1      -4.708   0.050  -1.294  0.00  0.00    +0.048 A 
ATOM     14  C   UNL     1      -5.809  -0.373  -2.013  0.00  0.00    +0.023 A 
ATOM     15  C   UNL     1      -6.859   0.496  -2.248  0.00  0.00    +0.042 A 
ATOM     16  C   UNL     1      -6.811   1.790  -1.761  0.00  0.00    +0.039 A 
ATOM     17  C   UNL     1      -5.713   2.217  -1.037  0.00  0.00    +0.061 A 
ATOM     18 BR   UNL     1      -5.648   3.985  -0.371  0.00  0.00    -0.046 Br
ATOM     19 CL   UNL     1      -8.239  -0.037  -3.157  0.00  0.00    -0.084 Cl
ENDBRANCH  11  12
ENDBRANCH   9  11
ENDBRANCH   6   9
ENDBRANCH   3   5
BRANCH   1  20
ATOM     20  C   UNL     1       3.611   1.850   0.783  0.00  0.00    +0.326 C 
BRANCH  20  21
ATOM     21  O   UNL     1       4.726   0.957   0.761  0.00  0.00    -0.482 OA
BRANCH  21  27
ATOM     22  C   UNL     1       7.082   0.691   0.964  0.00  0.00    -0.003 A 
ATOM     23  C   UNL     1       8.330   1.246   1.167  0.00  0.00    +0.007 A 
ATOM     24  C   UNL     1       8.457   2.606   1.383  0.00  0.00    +0.001 A 
ATOM     25  C   UNL     1       7.334   3.414   1.390  0.00  0.00    +0.004 A 
ATOM     26  C   UNL     1       6.084   2.865   1.183  0.00  0.00    +0.046 A 
ATOM     27  C   UNL     1       5.955   1.500   0.966  0.00  0.00    +0.125 A 
BRANCH  22  28
ATOM     28  C   UNL     1       6.944  -0.792   0.734  0.00  0.00    +0.019 C 
ATOM     29  C   UNL     1       7.486  -1.548   1.949  0.00  0.00    +0.012 C 
BRANCH  28  31
ATOM     30  C   UNL     1       7.499  -2.671  -0.816  0.00  0.00    +0.004 C 
ATOM     31  C   UNL     1       7.738  -1.191  -0.511  0.00  0.00    +0.004 C 
ENDBRANCH  28  31
ENDBRANCH  22  28
ENDBRANCH  21  27
ENDBRANCH  20  21
ENDBRANCH   1  20
TORSDOF 9
