REMARK  Name = ZINC45190940
REMARK  11 active torsions:
REMARK  status: ('A' for Active; 'I' for Inactive)
REMARK    1  A    between atoms: C_1  and  C_2
REMARK    2  A    between atoms: C_2  and  C_3
REMARK    3  A    between atoms: C_3  and  N_4
REMARK    4  A    between atoms: N_4  and  C_5
REMARK    5  A    between atoms: C_5  and  C_6
REMARK    6  A    between atoms: C_9  and  C_12
REMARK    7  A    between atoms: C_15  and  C_18
REMARK    8  A    between atoms: C_18  and  N_19
REMARK    9  A    between atoms: N_19  and  C_20
REMARK   10  A    between atoms: C_20  and  C_21
REMARK   11  A    between atoms: C_27  and  C_29
REMARK                            x       y       z     vdW  Elec       q    Type
REMARK                         _______ _______ _______ _____ _____    ______ ____
ROOT
ATOM      1  C   UNL     1       3.426 -15.475   1.916  0.00  0.00    +0.143 C 
ENDROOT
BRANCH   1   5
ATOM      2  C   UNL     1       4.776 -12.508  -0.850  0.00  0.00    +0.000 A 
ATOM      3  C   UNL     1       3.524 -13.097  -1.012  0.00  0.00    +0.010 A 
ATOM      4  C   UNL     1       3.093 -14.054  -0.117  0.00  0.00    +0.006 A 
ATOM      5  C   UNL     1       3.902 -14.430   0.941  0.00  0.00    -0.030 A 
ATOM      6  C   UNL     1       5.146 -13.848   1.107  0.00  0.00    +0.006 A 
ATOM      7  C   UNL     1       5.589 -12.894   0.214  0.00  0.00    +0.010 A 
BRANCH   2  11
ATOM      8  C   UNL     1       6.133  -9.585  -3.554  0.00  0.00    -0.046 A 
ATOM      9  C   UNL     1       4.876 -10.136  -3.757  0.00  0.00    +0.005 A 
ATOM     10  C   UNL     1       4.425 -11.098  -2.870  0.00  0.00    +0.028 A 
ATOM     11  C   UNL     1       5.245 -11.478  -1.810  0.00  0.00    +0.071 A 
ATOM     12  N   UNL     1       6.441 -10.926  -1.650  0.00  0.00    -0.255 NA
ATOM     13  C   UNL     1       6.896 -10.012  -2.483  0.00  0.00    +0.113 A 
BRANCH   8  14
ATOM     14  C   UNL     1       6.664  -8.534  -4.495  0.00  0.00    -0.045 C 
BRANCH  14  15
ATOM     15  N   UNL     1       7.393  -9.183  -5.593  0.00  0.00    +0.382 N 
ATOM     16  H   UNL     1       6.769  -9.798  -6.093  0.00  0.00    -0.085 HD
ATOM     17  H   UNL     1       8.162  -9.717  -5.216  0.00  0.00    -0.085 HD
BRANCH  15  18
ATOM     18  C   UNL     1       7.911  -8.159  -6.510  0.00  0.00    -0.082 C 
BRANCH  18  20
ATOM     19  C   UNL     1       9.209  -7.768  -8.608  0.00  0.00    +0.002 C 
ATOM     20  C   UNL     1       8.670  -8.835  -7.653  0.00  0.00    -0.022 C 
ENDBRANCH  18  20
ENDBRANCH  15  18
ENDBRANCH  14  15
ENDBRANCH   8  14
ENDBRANCH   2  11
ENDBRANCH   1   5
BRANCH   1  21
ATOM     21  N   UNL     1       3.837 -16.802   1.449  0.00  0.00    -0.294 N 
ATOM     22  C   UNL     1       3.027 -17.512   0.639  0.00  0.00    +0.224 C 
ATOM     23  O   UNL     1       1.993 -17.023   0.235  0.00  0.00    -0.275 OA
BRANCH  22  24
ATOM     24  C   UNL     1       3.406 -18.914   0.236  0.00  0.00    +0.113 C 
ATOM     25  C   UNL     1       2.189 -19.842   0.351  0.00  0.00    +0.097 C 
ATOM     26  C   UNL     1       1.955 -20.369  -1.044  0.00  0.00    +0.164 C 
ATOM     27  O   UNL     1       1.080 -21.139  -1.377  0.00  0.00    -0.292 OA
ATOM     28  C   UNL     1       2.975 -19.785  -1.931  0.00  0.00    +0.021 A 
ATOM     29  C   UNL     1       3.826 -18.941  -1.214  0.00  0.00    -0.025 A 
ATOM     30  C   UNL     1       4.858 -18.289  -1.861  0.00  0.00    +0.005 A 
ATOM     31  C   UNL     1       5.054 -18.468  -3.219  0.00  0.00    +0.000 A 
ATOM     32  C   UNL     1       4.218 -19.303  -3.939  0.00  0.00    +0.001 A 
ATOM     33  C   UNL     1       3.182 -19.961  -3.308  0.00  0.00    +0.011 A 
ENDBRANCH  22  24
BRANCH  21  34
ATOM     34  C   UNL     1       5.128 -17.356   1.863  0.00  0.00    +0.139 C 
BRANCH  34  35
ATOM     35  C   UNL     1       4.979 -18.034   3.227  0.00  0.00    +0.136 C 
ATOM     36  C   UNL     1       6.357 -18.524   3.721  0.00  0.00    +0.035 C 
ATOM     37  C   UNL     1       6.006 -19.890   4.372  0.00  0.00    +0.031 C 
ATOM     38  C   UNL     1       4.858 -20.369   3.449  0.00  0.00    +0.160 C 
ATOM     39  O   UNL     1       4.127 -19.179   3.109  0.00  0.00    -0.375 OA
ENDBRANCH  34  35
ENDBRANCH  21  34
ENDBRANCH   1  21
TORSDOF 10
