REMARK  Name = ZINC13681030
REMARK  9 active torsions:
REMARK  status: ('A' for Active; 'I' for Inactive)
REMARK    1  A    between atoms: C_1  and  C_2
REMARK    2  A    between atoms: C_5  and  C_31
REMARK    3  A    between atoms: C_6  and  N_8
REMARK    4  A    between atoms: N_8  and  S_9
REMARK    5  A    between atoms: S_9  and  C_12
REMARK    6  A    between atoms: C_15  and  N_18
REMARK    7  A    between atoms: N_18  and  S_19
REMARK    8  A    between atoms: S_19  and  C_22
REMARK    9  A    between atoms: C_22  and  C_23
REMARK                            x       y       z     vdW  Elec       q    Type
REMARK                         _______ _______ _______ _____ _____    ______ ____
ROOT
ATOM      1  C   UNL     1      -3.756  -3.567  -0.174  0.00  0.00    +0.109 A 
ATOM      2  C   UNL     1      -4.529  -3.247   0.927  0.00  0.00    +0.030 A 
ATOM      3  C   UNL     1      -4.459  -1.983   1.479  0.00  0.00    +0.026 A 
ATOM      4  C   UNL     1      -3.611  -1.032   0.927  0.00  0.00    +0.048 A 
ATOM      5  C   UNL     1      -2.839  -1.355  -0.182  0.00  0.00    +0.026 A 
ATOM      6  C   UNL     1      -2.910  -2.622  -0.726  0.00  0.00    +0.030 A 
ENDROOT
BRANCH   1   7
ATOM      7  S   UNL     1      -3.848  -5.181  -0.875  0.00  0.00    +0.072 S 
ATOM      8  O   UNL     1      -2.623  -5.396  -1.562  0.00  0.00    -0.150 OA
ATOM      9  O   UNL     1      -4.306  -6.045   0.156  0.00  0.00    -0.150 OA
BRANCH   7  10
ATOM     10  N   UNL     1      -5.037  -5.147  -2.027  0.00  0.00    -0.216 N 
ATOM     11  H   UNL     1      -5.809  -5.729  -1.945  0.00  0.00    +0.174 HD
BRANCH  10  17
ATOM     12  C   UNL     1      -2.221  -2.759  -5.270  0.00  0.00    +0.044 C 
ATOM     13  C   UNL     1      -3.576  -3.105  -4.710  0.00  0.00    -0.049 A 
ATOM     14  C   UNL     1      -4.716  -2.564  -5.277  0.00  0.00    +0.004 A 
ATOM     15  C   UNL     1      -5.962  -2.879  -4.767  0.00  0.00    +0.005 A 
ATOM     16  C   UNL     1      -6.072  -3.739  -3.692  0.00  0.00    -0.028 A 
ATOM     17  C   UNL     1      -4.930  -4.280  -3.117  0.00  0.00    +0.051 A 
ATOM     18  C   UNL     1      -3.679  -3.962  -3.632  0.00  0.00    +0.028 A 
ATOM     19  C   UNL     1      -7.431  -4.087  -3.140  0.00  0.00    +0.046 C 
ENDBRANCH  10  17
ENDBRANCH   7  10
ENDBRANCH   1   7
BRANCH   4  20
ATOM     20  N   UNL     1      -3.538   0.247   1.482  0.00  0.00    -0.220 N 
ATOM     21  H   UNL     1      -4.351   0.725   1.709  0.00  0.00    +0.173 HD
BRANCH  20  22
ATOM     22  S   UNL     1      -2.062   0.949   1.754  0.00  0.00    +0.047 S 
ATOM     23  O   UNL     1      -2.361   2.194   2.370  0.00  0.00    -0.155 OA
ATOM     24  O   UNL     1      -1.402   0.903   0.497  0.00  0.00    -0.155 OA
BRANCH  22  25
ATOM     25  C   UNL     1      -1.234  -0.150   2.936  0.00  0.00    +0.226 C 
BRANCH  25  26
ATOM     26  C   UNL     1       0.175   0.331   3.167  0.00  0.00    +0.012 A 
ATOM     27  C   UNL     1       1.204  -0.130   2.365  0.00  0.00    +0.047 A 
ATOM     28  C   UNL     1       2.498   0.308   2.582  0.00  0.00    +0.020 A 
ATOM     29  C   UNL     1       2.763   1.210   3.595  0.00  0.00    +0.003 A 
ATOM     30  C   UNL     1       1.735   1.675   4.393  0.00  0.00    +0.020 A 
ATOM     31  C   UNL     1       0.440   1.237   4.178  0.00  0.00    +0.047 A 
ATOM     32 CL   UNL     1      -0.851   1.821   5.181  0.00  0.00    -0.083 Cl
ATOM     33 CL   UNL     1       0.872  -1.262   1.092  0.00  0.00    -0.083 Cl
ENDBRANCH  25  26
ENDBRANCH  22  25
ENDBRANCH  20  22
ENDBRANCH   4  20
TORSDOF 7
