REMARK  Name = ZINC20906221
REMARK  7 active torsions:
REMARK  status: ('A' for Active; 'I' for Inactive)
REMARK    1  A    between atoms: C_10  and  N_11
REMARK    2  A    between atoms: C_12  and  C_14
REMARK    3  A    between atoms: C_14  and  S_15
REMARK    4  A    between atoms: S_15  and  C_16
REMARK    5  A    between atoms: N_21  and  N_22
REMARK    6  A    between atoms: C_23  and  C_24
REMARK    7  A    between atoms: C_28  and  O_30
REMARK                            x       y       z     vdW  Elec       q    Type
REMARK                         _______ _______ _______ _____ _____    ______ ____
ROOT
ATOM      1  C   UNL     1      -3.953   9.649   0.057  0.00  0.00    +0.211 A 
ATOM      2  N   UNL     1      -2.612   9.387   0.036  0.00  0.00    -0.186 NA
ATOM      3  C   UNL     1      -2.446   8.030   0.019  0.00  0.00    +0.232 A 
ATOM      4  N   UNL     1      -3.635   7.477   0.023  0.00  0.00    -0.245 N 
ATOM      5  N   UNL     1      -4.589   8.502   0.053  0.00  0.00    -0.144 NA
ATOM      6  N   UNL     1      -1.233   7.357  -0.005  0.00  0.00    -0.205 N 
ATOM      7  H   UNL     1      -0.290   7.923  -0.011  0.00  0.00    +0.177 HD
ATOM      8  H   UNL     1      -3.732   6.381   0.004  0.00  0.00    +0.192 HD
ENDROOT
BRANCH   6   9
ATOM      9  N   UNL     1      -1.210   5.956  -0.021  0.00  0.00    -0.188 NA
ATOM     10  C   UNL     1      -0.075   5.326  -0.043  0.00  0.00    +0.138 C 
BRANCH  10  11
ATOM     11  C   UNL     1      -0.050   3.852  -0.059  0.00  0.00    -0.002 A 
ATOM     12  C   UNL     1      -1.247   3.130  -0.052  0.00  0.00    +0.010 A 
ATOM     13  C   UNL     1      -1.219   1.751  -0.074  0.00  0.00    +0.004 A 
ATOM     14  C   UNL     1      -0.011   1.079  -0.092  0.00  0.00    +0.045 A 
ATOM     15  C   UNL     1       1.184   1.787  -0.099  0.00  0.00    +0.117 A 
ATOM     16  C   UNL     1       1.169   3.171  -0.083  0.00  0.00    +0.054 A 
BRANCH  15  17
ATOM     17  O   UNL     1       2.368   1.121  -0.122  0.00  0.00    -0.507 OA
ATOM     18  H   UNL     1       3.314   1.682  -0.128  0.00  0.00    +0.292 HD
ENDBRANCH  15  17
ENDBRANCH  10  11
ENDBRANCH   6   9
BRANCH   1  19
ATOM     19  S   UNL     1      -4.696  11.246   0.085  0.00  0.00    -0.075 S 
BRANCH  19  20
ATOM     20  C   UNL     1      -6.476  10.901   0.104  0.00  0.00    +0.173 C 
BRANCH  20  22
ATOM     21  N   UNL     1      -8.587  12.190   0.147  0.00  0.00    -0.284 N 
ATOM     22  C   UNL     1      -7.240  12.200   0.130  0.00  0.00    +0.228 C 
ATOM     23  O   UNL     1      -6.641  13.255   0.133  0.00  0.00    -0.275 OA
ATOM     24  H   UNL     1      -9.131  11.237   0.069  0.00  0.00    +0.155 HD
BRANCH  21  34
ATOM     25  C   UNL     1     -12.896  13.569   2.385  0.00  0.00    +0.001 A 
ATOM     26  C   UNL     1     -12.208  12.362   2.278  0.00  0.00    +0.001 A 
ATOM     27  C   UNL     1     -11.034  12.283   1.593  0.00  0.00    +0.010 A 
ATOM     28  C   UNL     1     -10.509  13.432   0.979  0.00  0.00    +0.003 A 
ATOM     29  C   UNL     1     -11.206  14.660   1.091  0.00  0.00    -0.016 A 
ATOM     30  C   UNL     1     -12.415  14.704   1.806  0.00  0.00    +0.008 A 
ATOM     31  C   UNL     1     -10.679  15.812   0.481  0.00  0.00    +0.008 A 
ATOM     32  C   UNL     1      -9.506  15.741  -0.206  0.00  0.00    +0.002 A 
ATOM     33  C   UNL     1      -8.810  14.540  -0.318  0.00  0.00    +0.024 A 
ATOM     34  C   UNL     1      -9.293  13.389   0.266  0.00  0.00    +0.041 A 
ENDBRANCH  21  34
ENDBRANCH  20  22
ENDBRANCH  19  20
ENDBRANCH   1  19
TORSDOF 7
