REMARK  Name = ZINC12743531
REMARK  7 active torsions:
REMARK  status: ('A' for Active; 'I' for Inactive)
REMARK    1  A    between atoms: C_1  and  C_2
REMARK    2  A    between atoms: C_2  and  N_3
REMARK    3  A    between atoms: N_3  and  C_4
REMARK    4  A    between atoms: C_12  and  C_14
REMARK    5  A    between atoms: C_14  and  C_16
REMARK    6  A    between atoms: C_14  and  S_17
REMARK    7  A    between atoms: S_17  and  C_18
REMARK                            x       y       z     vdW  Elec       q    Type
REMARK                         _______ _______ _______ _____ _____    ______ ____
ROOT
ATOM      1  C   UNL     1      -1.672   3.328   0.647  0.00  0.00    +0.192 A 
ATOM      2  N   UNL     1      -0.467   2.860   0.341  0.00  0.00    -0.207 NA
ATOM      3  C   UNL     1      -0.232   1.568   0.189  0.00  0.00    +0.129 A 
ATOM      4  C   UNL     1      -1.298   0.642   0.368  0.00  0.00    +0.051 A 
ATOM      5  C   UNL     1      -1.270  -0.818   0.255  0.00  0.00    -0.025 A 
ATOM      6  C   UNL     1      -2.428  -1.471   0.475  0.00  0.00    -0.004 A 
ATOM      7  S   UNL     1      -3.612  -0.203   0.839  0.00  0.00    -0.073 S 
ATOM      8  C   UNL     1      -2.546   1.207   0.696  0.00  0.00    +0.115 A 
ATOM      9  N   UNL     1      -2.701   2.511   0.825  0.00  0.00    -0.214 NA
ATOM     10  C   UNL     1      -2.660  -2.951   0.421  0.00  0.00    +0.043 C 
ATOM     11  C   UNL     1      -1.465  -3.604  -0.288  0.00  0.00    +0.005 C 
ATOM     12  C   UNL     1      -0.172  -3.047   0.316  0.00  0.00    +0.005 C 
ATOM     13  C   UNL     1       0.004  -1.584  -0.093  0.00  0.00    +0.037 C 
ATOM     14  N   UNL     1       1.036   1.121  -0.134  0.00  0.00    -0.343 N 
ATOM     15  H   UNL     1       1.154   0.249  -0.543  0.00  0.00    +0.144 HD
ATOM     16  H   UNL     1       1.808   1.681   0.044  0.00  0.00    +0.144 HD
ENDROOT
BRANCH   1  17
ATOM     17  S   UNL     1      -1.905   5.065   0.825  0.00  0.00    -0.073 S 
BRANCH  17  18
ATOM     18  C   UNL     1      -0.226   5.645   0.480  0.00  0.00    +0.137 C 
ATOM     19  C   UNL     1       0.137   5.324  -0.971  0.00  0.00    +0.029 C 
BRANCH  18  21
ATOM     20  N   UNL     1       1.007   7.705   1.075  0.00  0.00    -0.296 N 
ATOM     21  C   UNL     1      -0.154   7.134   0.698  0.00  0.00    +0.229 C 
ATOM     22  O   UNL     1      -1.141   7.819   0.535  0.00  0.00    -0.274 OA
BRANCH  20  23
ATOM     23  C   UNL     1       1.108   9.163   1.177  0.00  0.00    +0.098 C 
ATOM     24  C   UNL     1       0.798   9.793  -0.192  0.00  0.00    +0.046 C 
ATOM     25  C   UNL     1       0.604  11.322   0.011  0.00  0.00    +0.168 C 
ATOM     26  S   UNL     1      -0.361  11.333   1.581  0.00  0.00    -0.029 S 
ATOM     27  O   UNL     1      -1.748  11.340   1.270  0.00  0.00    -0.174 OA
ATOM     28  O   UNL     1       0.169  12.331   2.442  0.00  0.00    -0.174 OA
ATOM     29  C   UNL     1       0.098   9.676   2.232  0.00  0.00    +0.188 C 
ENDBRANCH  20  23
BRANCH  20  31
ATOM     30  C   UNL     1       3.059   6.755   0.144  0.00  0.00    +0.024 C 
ATOM     31  C   UNL     1       2.169   6.868   1.383  0.00  0.00    +0.105 C 
ENDBRANCH  20  31
ENDBRANCH  18  21
ENDBRANCH  17  18
ENDBRANCH   1  17
TORSDOF 5
