REMARK  Name = ZINC20059022
REMARK  3 active torsions:
REMARK  status: ('A' for Active; 'I' for Inactive)
REMARK    1  A    between atoms: C_1  and  C_2
REMARK    2  A    between atoms: N_8  and  C_9
REMARK    3  A    between atoms: N_15  and  C_18
REMARK                            x       y       z     vdW  Elec       q    Type
REMARK                         _______ _______ _______ _____ _____    ______ ____
ROOT
ATOM      1  C   UNL     1      -2.659   4.853  -0.915  0.00  0.00    +0.068 C 
ATOM      2  C   UNL     1      -2.556   3.378  -0.623  0.00  0.00    +0.071 A 
ATOM      3  C   UNL     1      -3.703   2.586  -0.546  0.00  0.00    +0.129 A 
ATOM      4  C   UNL     1      -3.549   1.212  -0.271  0.00  0.00    +0.170 A 
ATOM      5  N   UNL     1      -2.330   0.721  -0.096  0.00  0.00    -0.194 NA
ATOM      6  C   UNL     1      -1.272   1.512  -0.180  0.00  0.00    +0.222 A 
ATOM      7  N   UNL     1      -1.378   2.811  -0.432  0.00  0.00    -0.217 NA
ATOM      8  N   UNL     1      -0.011   0.966   0.007  0.00  0.00    -0.284 N 
ATOM      9  N   UNL     1      -4.819   0.687  -0.252  0.00  0.00    -0.283 N 
ATOM     10  C   UNL     1      -5.688   1.709  -0.506  0.00  0.00    +0.206 A 
ATOM     11  N   UNL     1      -5.033   2.820  -0.677  0.00  0.00    -0.232 NA
ATOM     12  H   UNL     1       0.105  -0.121   0.132  0.00  0.00    +0.155 HD
ENDROOT
BRANCH   8  13
ATOM     13  C   UNL     1       1.113   1.797   0.038  0.00  0.00    +0.034 A 
ATOM     14  C   UNL     1       2.326   1.345  -0.464  0.00  0.00    +0.023 A 
ATOM     15  C   UNL     1       3.433   2.170  -0.437  0.00  0.00    +0.002 A 
ATOM     16  C   UNL     1       3.337   3.442   0.099  0.00  0.00    +0.000 A 
ATOM     17  C   UNL     1       2.132   3.892   0.605  0.00  0.00    +0.002 A 
ATOM     18  C   UNL     1       1.020   3.074   0.576  0.00  0.00    +0.023 A 
ENDBRANCH   8  13
BRANCH   9  19
ATOM     19  C   UNL     1      -5.159  -0.652  -0.015  0.00  0.00    +0.049 A 
ATOM     20  C   UNL     1      -4.526  -1.666  -0.722  0.00  0.00    +0.026 A 
ATOM     21  C   UNL     1      -4.859  -2.985  -0.482  0.00  0.00    +0.002 A 
ATOM     22  C   UNL     1      -5.831  -3.296   0.451  0.00  0.00    +0.000 A 
ATOM     23  C   UNL     1      -6.468  -2.288   1.152  0.00  0.00    +0.002 A 
ATOM     24  C   UNL     1      -6.135  -0.967   0.921  0.00  0.00    +0.026 A 
ENDBRANCH   9  19
TORSDOF 2
