REMARK  Name = ZINC32964445
REMARK  5 active torsions:
REMARK  status: ('A' for Active; 'I' for Inactive)
REMARK    1  A    between atoms: C_4  and  C_7
REMARK    2  A    between atoms: C_7  and  C_8
REMARK    3  A    between atoms: C_14  and  C_15
REMARK    4  A    between atoms: N_19  and  C_20
REMARK    5  A    between atoms: C_24  and  N_26
REMARK                            x       y       z     vdW  Elec       q    Type
REMARK                         _______ _______ _______ _____ _____    ______ ____
ROOT
ATOM      1  C   UNL     1       3.198  -1.822   1.834  0.00  0.00    +0.104 C 
ATOM      2  N   UNL     1       2.876  -1.423   3.031  0.00  0.00    -0.169 NA
ATOM      3  N   UNL     1       3.836  -1.220   4.000  0.00  0.00    -0.152 N 
ATOM      4  C   UNL     1       3.590  -0.876   5.346  0.00  0.00    +0.153 C 
ATOM      5  N   UNL     1       2.454  -1.109   5.952  0.00  0.00    -0.283 NA
ATOM      6  C   UNL     1       4.750  -0.224   6.010  0.00  0.00    +0.082 C 
ATOM      7  C   UNL     1       4.582   0.746   6.985  0.00  0.00    +0.042 C 
ATOM      8  C   UNL     1       6.095  -0.666   5.574  0.00  0.00    +0.273 C 
ATOM      9  O   UNL     1       7.061  -0.563   6.314  0.00  0.00    -0.268 OA
ATOM     10  N   UNL     1       6.222  -1.185   4.336  0.00  0.00    -0.152 NA
ATOM     11  C   UNL     1       5.149  -1.399   3.619  0.00  0.00    +0.181 C 
ATOM     12  S   UNL     1       4.976  -1.963   1.947  0.00  0.00    -0.038 S 
ATOM     13  H   UNL     1       1.754  -1.603   5.496  0.00  0.00    +0.188 HD
ENDROOT
BRANCH   7  14
ATOM     14  C   UNL     1       3.355   1.426   7.096  0.00  0.00    +0.047 A 
ATOM     15  C   UNL     1       2.289   1.350   6.210  0.00  0.00    +0.027 A 
ATOM     16  C   UNL     1       1.284   2.182   6.705  0.00  0.00    +0.020 A 
ATOM     17  C   UNL     1       1.733   2.742   7.857  0.00  0.00    +0.092 A 
ATOM     18  N   UNL     1       2.987   2.288   8.111  0.00  0.00    -0.316 N 
BRANCH  18  19
ATOM     19  C   UNL     1       3.776   2.638   9.214  0.00  0.00    +0.049 A 
ATOM     20  C   UNL     1       4.369   1.648   9.987  0.00  0.00    +0.028 A 
ATOM     21  C   UNL     1       5.147   1.995  11.074  0.00  0.00    +0.024 A 
ATOM     22  C   UNL     1       5.335   3.328  11.394  0.00  0.00    +0.071 A 
ATOM     23  C   UNL     1       4.745   4.316  10.626  0.00  0.00    +0.146 A 
ATOM     24  C   UNL     1       3.972   3.975   9.534  0.00  0.00    +0.060 A 
ATOM     25 CL   UNL     1       6.312   3.761  12.762  0.00  0.00    -0.081 Cl
BRANCH  23  26
ATOM     26  N   UNL     1       4.947   5.741  10.972  0.00  0.00    +0.058 N 
ATOM     27  O   UNL     1       4.432   6.605  10.302  0.00  0.00    -0.126 OA
ATOM     28  O   UNL     1       5.628   6.041  11.925  0.00  0.00    -0.126 OA
ENDBRANCH  23  26
ENDBRANCH  18  19
ENDBRANCH   7  14
BRANCH   1  29
ATOM     29  C   UNL     1       2.300  -2.101   0.657  0.00  0.00    +0.099 C 
BRANCH  29  33
ATOM     30  C   UNL     1      -1.718  -1.040   1.646  0.00  0.00    +0.000 A 
ATOM     31  C   UNL     1      -0.846  -0.078   1.173  0.00  0.00    +0.000 A 
ATOM     32  C   UNL     1       0.454  -0.421   0.853  0.00  0.00    +0.004 A 
ATOM     33  C   UNL     1       0.882  -1.727   1.006  0.00  0.00    -0.041 A 
ATOM     34  C   UNL     1       0.010  -2.689   1.480  0.00  0.00    +0.004 A 
ATOM     35  C   UNL     1      -1.290  -2.346   1.799  0.00  0.00    +0.000 A 
ENDBRANCH  29  33
ENDBRANCH   1  29
TORSDOF 5
