REMARK  Name = ZINC32543427
REMARK  10 active torsions:
REMARK  status: ('A' for Active; 'I' for Inactive)
REMARK    1  A    between atoms: C_1  and  C_2
REMARK    2  A    between atoms: C_9  and  C_13
REMARK    3  A    between atoms: C_13  and  N_14
REMARK    4  A    between atoms: N_14  and  C_15
REMARK    5  A    between atoms: N_14  and  C_16
REMARK    6  A    between atoms: C_16  and  C_17
REMARK    7  A    between atoms: C_18  and  C_31
REMARK    8  A    between atoms: N_20  and  C_23
REMARK    9  A    between atoms: C_21  and  C_22
REMARK   10  A    between atoms: C_23  and  C_24
REMARK                            x       y       z     vdW  Elec       q    Type
REMARK                         _______ _______ _______ _____ _____    ______ ____
ROOT
ATOM      1  N   UNL     1       1.936   0.536   5.106  0.00  0.00    -0.295 NA
ATOM      2  C   UNL     1       3.181  -0.185   5.403  0.00  0.00    +0.105 C 
ENDROOT
BRANCH   1   3
ATOM      3  C   UNL     1       0.807  -0.394   4.973  0.00  0.00    +0.137 C 
BRANCH   3  12
ATOM      4  C   UNL     1       0.996   0.630   0.072  0.00  0.00    +0.047 C 
ATOM      5  C   UNL     1       1.200  -0.858   0.196  0.00  0.00    -0.009 A 
ATOM      6  C   UNL     1       1.391  -1.620  -0.917  0.00  0.00    +0.008 A 
ATOM      7  C   UNL     1       1.580  -3.003  -0.784  0.00  0.00    +0.019 A 
ATOM      8  C   UNL     1       1.572  -3.575   0.441  0.00  0.00    +0.096 A 
ATOM      9  N   UNL     1       1.381  -2.823   1.559  0.00  0.00    -0.269 N 
ATOM     10  C   UNL     1       1.201  -1.471   1.463  0.00  0.00    +0.121 A 
ATOM     11  N   UNL     1       1.020  -0.727   2.552  0.00  0.00    -0.343 N 
ATOM     12  C   UNL     1       1.014  -1.266   3.761  0.00  0.00    +0.037 A 
ATOM     13  C   UNL     1       1.198  -2.626   3.913  0.00  0.00    +0.093 A 
ATOM     14  C   UNL     1       1.377  -3.417   2.772  0.00  0.00    +0.258 A 
ATOM     15  O   UNL     1       1.542  -4.622   2.872  0.00  0.00    -0.267 OA
ATOM     16  H   UNL     1       0.889   0.230   2.458  0.00  0.00    +0.167 HD
ENDBRANCH   3  12
ENDBRANCH   1   3
BRANCH   1  17
ATOM     17  C   UNL     1       1.661   1.555   6.128  0.00  0.00    +0.123 C 
BRANCH  17  18
ATOM     18  C   UNL     1       2.720   2.626   6.067  0.00  0.00    +0.010 A 
ATOM     19  C   UNL     1       3.928   2.631   6.773  0.00  0.00    +0.065 A 
ATOM     20  N   UNL     1       4.579   3.721   6.460  0.00  0.00    -0.176 NA
ATOM     21  N   UNL     1       3.806   4.446   5.544  0.00  0.00    -0.264 N 
ATOM     22  C   UNL     1       2.672   3.750   5.315  0.00  0.00    +0.041 A 
ATOM     23  C   UNL     1       1.553   4.154   4.391  0.00  0.00    +0.065 C 
ATOM     24  C   UNL     1       4.397   1.564   7.728  0.00  0.00    +0.068 C 
BRANCH  21  25
ATOM     25  C   UNL     1       4.167   5.729   4.937  0.00  0.00    +0.180 C 
BRANCH  25  26
ATOM     26  C   UNL     1       3.779   6.851   5.866  0.00  0.00    -0.008 A 
ATOM     27  C   UNL     1       2.568   7.497   5.702  0.00  0.00    +0.007 A 
ATOM     28  C   UNL     1       2.212   8.526   6.554  0.00  0.00    +0.000 A 
ATOM     29  C   UNL     1       3.067   8.909   7.571  0.00  0.00    +0.001 A 
ATOM     30  C   UNL     1       4.277   8.263   7.737  0.00  0.00    +0.020 A 
ATOM     31  C   UNL     1       4.632   7.230   6.887  0.00  0.00    +0.046 A 
ATOM     32 CL   UNL     1       6.149   6.414   7.098  0.00  0.00    -0.083 Cl
ENDBRANCH  25  26
ENDBRANCH  21  25
ENDBRANCH  17  18
ENDBRANCH   1  17
TORSDOF 6
