REMARK  Name = ZINC14550799
REMARK  7 active torsions:
REMARK  status: ('A' for Active; 'I' for Inactive)
REMARK    1  A    between atoms: C_1  and  C_2
REMARK    2  A    between atoms: C_5  and  N_9
REMARK    3  A    between atoms: C_6  and  C_8
REMARK    4  A    between atoms: N_9  and  S_10
REMARK    5  A    between atoms: S_10  and  C_13
REMARK    6  A    between atoms: C_26  and  C_29
REMARK    7  A    between atoms: C_32  and  N_35
REMARK                            x       y       z     vdW  Elec       q    Type
REMARK                         _______ _______ _______ _____ _____    ______ ____
ROOT
ATOM      1  C   UNL     1       3.729  -3.064  -1.175  0.00  0.00    +0.109 A 
ATOM      2  C   UNL     1       3.376  -3.769  -0.038  0.00  0.00    +0.030 A 
ATOM      3  C   UNL     1       2.427  -3.251   0.821  0.00  0.00    +0.025 A 
ATOM      4  C   UNL     1       1.831  -2.027   0.542  0.00  0.00    +0.031 A 
ATOM      5  C   UNL     1       2.179  -1.319  -0.598  0.00  0.00    -0.018 A 
ATOM      6  C   UNL     1       3.136  -1.849  -1.452  0.00  0.00    +0.034 A 
ATOM      7  C   UNL     1       1.556  -0.004  -0.945  0.00  0.00    +0.049 C 
ATOM      8  C   UNL     1       2.502   1.143  -0.679  0.00  0.00    -0.023 C 
ATOM      9  C   UNL     1       1.839   2.184  -0.238  0.00  0.00    -0.030 C 
ATOM     10  C   UNL     1       0.357   1.874  -0.155  0.00  0.00    +0.033 C 
ATOM     11  C   UNL     1       0.318   0.319  -0.086  0.00  0.00    +0.029 C 
ATOM     12  C   UNL     1       0.574  -0.080   1.370  0.00  0.00    +0.105 C 
ATOM     13  N   UNL     1       0.873  -1.514   1.423  0.00  0.00    -0.336 N 
ATOM     14  H   UNL     1       0.418  -2.094   2.054  0.00  0.00    +0.147 HD
ENDROOT
BRANCH  12  15
ATOM     15  C   UNL     1       1.746   0.700   1.908  0.00  0.00    -0.027 A 
ATOM     16  C   UNL     1       3.036   0.300   1.614  0.00  0.00    +0.008 A 
ATOM     17  C   UNL     1       4.111   1.018   2.104  0.00  0.00    +0.033 A 
ATOM     18  C   UNL     1       3.896   2.131   2.896  0.00  0.00    +0.126 A 
ATOM     19  C   UNL     1       2.606   2.528   3.194  0.00  0.00    +0.033 A 
ATOM     20  C   UNL     1       1.531   1.813   2.700  0.00  0.00    +0.008 A 
BRANCH  18  21
ATOM     21  N   UNL     1       5.047   2.898   3.423  0.00  0.00    +0.056 N 
ATOM     22  O   UNL     1       4.857   3.878   4.120  0.00  0.00    -0.126 OA
ATOM     23  O   UNL     1       6.183   2.548   3.161  0.00  0.00    -0.126 OA
ENDBRANCH  18  21
ENDBRANCH  12  15
BRANCH   1  24
ATOM     24  S   UNL     1       4.941  -3.720  -2.272  0.00  0.00    +0.072 S 
ATOM     25  O   UNL     1       5.492  -2.615  -2.977  0.00  0.00    -0.150 OA
ATOM     26  O   UNL     1       5.742  -4.611  -1.507  0.00  0.00    -0.150 OA
BRANCH  24  27
ATOM     27  N   UNL     1       4.141  -4.643  -3.390  0.00  0.00    -0.216 N 
ATOM     28  H   UNL     1       4.340  -5.589  -3.469  0.00  0.00    +0.174 HD
BRANCH  27  33
ATOM     29  C   UNL     1       0.237  -2.273  -6.752  0.00  0.00    +0.044 C 
ATOM     30  C   UNL     1       1.275  -2.903  -5.859  0.00  0.00    -0.050 A 
ATOM     31  C   UNL     1       2.403  -2.187  -5.499  0.00  0.00    +0.005 A 
ATOM     32  C   UNL     1       3.353  -2.760  -4.677  0.00  0.00    +0.025 A 
ATOM     33  C   UNL     1       3.180  -4.060  -4.218  0.00  0.00    +0.051 A 
ATOM     34  C   UNL     1       2.047  -4.776  -4.581  0.00  0.00    -0.028 A 
ATOM     35  C   UNL     1       1.098  -4.196  -5.401  0.00  0.00    +0.008 A 
ATOM     36  C   UNL     1       1.852  -6.184  -4.082  0.00  0.00    +0.046 C 
ENDBRANCH  27  33
ENDBRANCH  24  27
ENDBRANCH   1  24
TORSDOF 5
