REMARK  Name = ZINC36212886
REMARK  11 active torsions:
REMARK  status: ('A' for Active; 'I' for Inactive)
REMARK    1  A    between atoms: C_1  and  C_2
REMARK    2  A    between atoms: C_3  and  C_12
REMARK    3  A    between atoms: C_12  and  C_14
REMARK    4  A    between atoms: C_14  and  C_16
REMARK    5  A    between atoms: C_14  and  O_17
REMARK    6  A    between atoms: O_17  and  C_18
REMARK    7  A    between atoms: C_18  and  C_20
REMARK    8  A    between atoms: C_20  and  N_21
REMARK    9  A    between atoms: C_26  and  C_33
REMARK   10  A    between atoms: C_29  and  C_31
REMARK   11  A    between atoms: C_29  and  C_32
REMARK                            x       y       z     vdW  Elec       q    Type
REMARK                         _______ _______ _______ _____ _____    ______ ____
ROOT
ATOM      1  C   UNL     1       0.921   2.483  -4.386  0.00  0.00    +0.326 C 
ATOM      2  O   UNL     1       1.356   3.142  -3.471  0.00  0.00    -0.249 OA
ENDROOT
BRANCH   1   3
ATOM      3  O   UNL     1       0.200   1.379  -4.135  0.00  0.00    -0.452 OA
BRANCH   3   4
ATOM      4  C   UNL     1      -0.013   1.042  -2.763  0.00  0.00    +0.244 C 
ATOM      5  C   UNL     1      -1.296   1.711  -2.266  0.00  0.00    +0.061 C 
BRANCH   4   6
ATOM      6  C   UNL     1      -0.141  -0.454  -2.627  0.00  0.00    +0.205 C 
ATOM      7  O   UNL     1      -0.337  -1.138  -3.611  0.00  0.00    -0.288 OA
BRANCH   6  10
ATOM      8  C   UNL     1       2.520  -1.254  -1.254  0.00  0.00    +0.064 C 
ATOM      9  C   UNL     1       1.128  -1.432  -0.706  0.00  0.00    +0.025 A 
ATOM     10  C   UNL     1      -0.033  -1.062  -1.351  0.00  0.00    +0.049 A 
ATOM     11  C   UNL     1      -1.141  -1.425  -0.446  0.00  0.00    +0.011 A 
ATOM     12  C   UNL     1      -2.526  -1.311  -0.518  0.00  0.00    +0.011 A 
ATOM     13  C   UNL     1      -3.303  -1.759   0.527  0.00  0.00    +0.001 A 
ATOM     14  C   UNL     1      -2.710  -2.321   1.649  0.00  0.00    +0.002 A 
ATOM     15  C   UNL     1      -1.340  -2.440   1.733  0.00  0.00    +0.026 A 
ATOM     16  C   UNL     1      -0.538  -1.993   0.687  0.00  0.00    +0.047 A 
ATOM     17  N   UNL     1       0.827  -1.983   0.485  0.00  0.00    -0.358 N 
ATOM     18  H   UNL     1       1.480  -2.323   1.116  0.00  0.00    +0.166 HD
ENDBRANCH   6  10
ENDBRANCH   4   6
ENDBRANCH   3   4
ENDBRANCH   1   3
BRANCH   1  19
ATOM     19  C   UNL     1       1.187   2.902  -5.809  0.00  0.00    +0.238 C 
BRANCH  19  20
ATOM     20  N   UNL     1       1.989   4.128  -5.815  0.00  0.00    -0.213 N 
ATOM     21  C   UNL     1       1.470   5.373  -5.808  0.00  0.00    +0.247 C 
ATOM     22  O   UNL     1       0.297   5.680  -5.796  0.00  0.00    -0.273 OA
ATOM     23  C   UNL     1       2.659   6.306  -5.819  0.00  0.00    +0.113 C 
ATOM     24  C   UNL     1       2.667   7.171  -4.563  0.00  0.00    +0.038 C 
ATOM     25  C   UNL     1       3.895   8.086  -4.579  0.00  0.00    -0.011 C 
ATOM     26  C   UNL     1       3.854   8.970  -5.827  0.00  0.00    +0.009 C 
ATOM     27  C   UNL     1       3.870   8.089  -7.078  0.00  0.00    -0.032 C 
ATOM     28  C   UNL     1       2.643   7.175  -7.072  0.00  0.00    +0.041 C 
ATOM     29  C   UNL     1       5.141   7.238  -7.086  0.00  0.00    +0.011 C 
ATOM     30  C   UNL     1       3.841   8.975  -8.325  0.00  0.00    +0.011 C 
ATOM     31  C   UNL     1       3.890   8.968  -3.328  0.00  0.00    +0.007 C 
ATOM     32  N   UNL     1       3.819   5.406  -5.831  0.00  0.00    -0.285 N 
ATOM     33  C   UNL     1       3.327   4.152  -5.823  0.00  0.00    +0.310 C 
ATOM     34  O   UNL     1       4.021   3.154  -5.826  0.00  0.00    -0.252 OA
ATOM     35  H   UNL     1       4.754   5.663  -5.840  0.00  0.00    +0.151 HD
ENDBRANCH  19  20
ENDBRANCH   1  19
TORSDOF 6
