REMARK  Name = ZINC13508229
REMARK  9 active torsions:
REMARK  status: ('A' for Active; 'I' for Inactive)
REMARK    1  A    between atoms: C_3  and  C_6
REMARK    2  A    between atoms: C_6  and  N_7
REMARK    3  A    between atoms: N_7  and  C_8
REMARK    4  A    between atoms: C_8  and  C_10
REMARK    5  A    between atoms: C_8  and  C_17
REMARK    6  A    between atoms: N_19  and  C_20
REMARK    7  A    between atoms: C_26  and  C_28
REMARK    8  A    between atoms: C_28  and  N_29
REMARK    9  A    between atoms: C_30  and  C_32
REMARK                            x       y       z     vdW  Elec       q    Type
REMARK                         _______ _______ _______ _____ _____    ______ ____
ROOT
ATOM      1  N   UNL     1       0.019   0.013  -0.010  0.00  0.00    -0.277 N 
ATOM      2  C   UNL     1      -0.228   0.864   1.006  0.00  0.00    +0.234 C 
ATOM      3  O   UNL     1       0.641   1.110   1.815  0.00  0.00    -0.274 OA
ENDROOT
BRANCH   1   4
ATOM      4  C   UNL     1      -1.030  -0.284  -0.989  0.00  0.00    +0.183 C 
BRANCH   4   7
ATOM      5  C   UNL     1      -0.322   1.441  -4.168  0.00  0.00    +0.041 A 
ATOM      6  C   UNL     1      -0.224   0.312  -3.323  0.00  0.00    +0.046 A 
ATOM      7  C   UNL     1      -0.872   0.620  -2.184  0.00  0.00    +0.122 A 
ATOM      8  O   UNL     1      -1.359   1.866  -2.297  0.00  0.00    -0.466 OA
ATOM      9  C   UNL     1      -1.024   2.371  -3.495  0.00  0.00    +0.195 A 
ENDBRANCH   4   7
ENDBRANCH   1   4
BRANCH   1  10
ATOM     10  C   UNL     1       1.337  -0.614  -0.136  0.00  0.00    +0.193 C 
BRANCH  10  11
ATOM     11  C   UNL     1       1.617  -1.444   1.090  0.00  0.00    -0.018 A 
ATOM     12  C   UNL     1       0.585  -2.112   1.722  0.00  0.00    +0.007 A 
ATOM     13  C   UNL     1       0.842  -2.879   2.844  0.00  0.00    +0.020 A 
ATOM     14  C   UNL     1       2.131  -2.969   3.339  0.00  0.00    +0.041 A 
ATOM     15  C   UNL     1       3.162  -2.295   2.709  0.00  0.00    +0.020 A 
ATOM     16  C   UNL     1       2.905  -1.534   1.585  0.00  0.00    +0.007 A 
ATOM     17 CL   UNL     1       2.453  -3.925   4.752  0.00  0.00    -0.084 Cl
ENDBRANCH  10  11
BRANCH  10  18
ATOM     18  C   UNL     1       1.359  -1.497  -1.357  0.00  0.00    +0.238 C 
ATOM     19  O   UNL     1       0.405  -1.519  -2.106  0.00  0.00    -0.273 OA
ATOM     20  N   UNL     1       2.437  -2.263  -1.616  0.00  0.00    -0.311 N 
ATOM     21  H   UNL     1       3.199  -2.246  -1.016  0.00  0.00    +0.149 HD
BRANCH  20  22
ATOM     22  C   UNL     1       2.458  -3.122  -2.803  0.00  0.00    +0.073 C 
ATOM     23  C   UNL     1       1.773  -4.452  -2.482  0.00  0.00    +0.022 C 
ATOM     24  C   UNL     1       1.795  -5.348  -3.721  0.00  0.00    +0.002 C 
ATOM     25  C   UNL     1       3.244  -5.608  -4.138  0.00  0.00    +0.000 C 
ATOM     26  C   UNL     1       3.929  -4.278  -4.458  0.00  0.00    +0.002 C 
ATOM     27  C   UNL     1       3.907  -3.382  -3.219  0.00  0.00    +0.022 C 
ENDBRANCH  20  22
ENDBRANCH  10  18
ENDBRANCH   1  10
BRANCH   2  28
ATOM     28  C   UNL     1      -1.581   1.514   1.131  0.00  0.00    +0.200 C 
BRANCH  28  29
ATOM     29  N   UNL     1      -1.596   2.388   2.308  0.00  0.00    -0.300 N 
ATOM     30  C   UNL     1      -2.711   3.078   2.621  0.00  0.00    +0.280 C 
ATOM     31  O   UNL     1      -3.705   2.975   1.926  0.00  0.00    -0.267 OA
ATOM     32  H   UNL     1      -0.804   2.470   2.861  0.00  0.00    +0.150 HD
BRANCH  30  33
ATOM     33  C   UNL     1      -2.726   3.952   3.798  0.00  0.00    +0.189 A 
ATOM     34  C   UNL     1      -3.782   4.703   4.226  0.00  0.00    +0.054 A 
ATOM     35  C   UNL     1      -3.356   5.378   5.381  0.00  0.00    +0.042 A 
ATOM     36  C   UNL     1      -2.074   5.014   5.604  0.00  0.00    +0.196 A 
ATOM     37  O   UNL     1      -1.699   4.151   4.651  0.00  0.00    -0.458 OA
ENDBRANCH  30  33
ENDBRANCH  28  29
ENDBRANCH   2  28
TORSDOF 9
