REMARK  Name = ZINC32782766
REMARK  7 active torsions:
REMARK  status: ('A' for Active; 'I' for Inactive)
REMARK    1  A    between atoms: C_1  and  N_2
REMARK    2  A    between atoms: N_2  and  C_3
REMARK    3  A    between atoms: C_3  and  C_4
REMARK    4  A    between atoms: C_9  and  C_11
REMARK    5  A    between atoms: C_11  and  N_12
REMARK    6  A    between atoms: N_21  and  C_22
REMARK    7  A    between atoms: C_27  and  N_28
REMARK                            x       y       z     vdW  Elec       q    Type
REMARK                         _______ _______ _______ _____ _____    ______ ____
ROOT
ATOM      1  N   UNL     1      -0.191  -0.285  -4.220  0.00  0.00    -0.290 N 
ATOM      2  C   UNL     1       0.978  -0.616  -4.824  0.00  0.00    +0.204 A 
ATOM      3  N   UNL     1       1.099  -1.631  -5.628  0.00  0.00    -0.217 NA
ATOM      4  C   UNL     1       0.062  -2.431  -5.920  0.00  0.00    +0.170 A 
ATOM      5  C   UNL     1      -1.190  -2.168  -5.342  0.00  0.00    +0.103 A 
ATOM      6  C   UNL     1      -1.304  -1.025  -4.436  0.00  0.00    +0.265 A 
ATOM      7  O   UNL     1      -2.362  -0.747  -3.899  0.00  0.00    -0.267 OA
ATOM      8  C   UNL     1      -2.083  -3.148  -5.813  0.00  0.00    +0.150 A 
ATOM      9  N   UNL     1      -1.432  -3.946  -6.615  0.00  0.00    -0.172 NA
ATOM     10  N   UNL     1      -0.097  -3.532  -6.705  0.00  0.00    -0.212 N 
ENDROOT
BRANCH  10  11
ATOM     11  C   UNL     1       0.902  -4.145  -7.471  0.00  0.00    +0.098 A 
ATOM     12  C   UNL     1       2.052  -4.626  -6.859  0.00  0.00    +0.030 A 
ATOM     13  C   UNL     1       3.035  -5.230  -7.617  0.00  0.00    +0.002 A 
ATOM     14  C   UNL     1       2.877  -5.355  -8.985  0.00  0.00    +0.002 A 
ATOM     15  C   UNL     1       1.733  -4.877  -9.598  0.00  0.00    +0.035 A 
ATOM     16  C   UNL     1       0.743  -4.277  -8.844  0.00  0.00    +0.152 A 
BRANCH  16  17
ATOM     17  N   UNL     1      -0.483  -3.771  -9.500  0.00  0.00    +0.059 N 
ATOM     18  O   UNL     1      -0.670  -3.980 -10.676  0.00  0.00    -0.126 OA
ATOM     19  O   UNL     1      -1.298  -3.148  -8.860  0.00  0.00    -0.126 OA
ENDBRANCH  16  17
ENDBRANCH  10  11
BRANCH   1  20
ATOM     20  C   UNL     1      -0.248   0.874  -3.326  0.00  0.00    +0.222 C 
BRANCH  20  23
ATOM     21  C   UNL     1      -0.223   2.749  -1.201  0.00  0.00    +0.132 C 
ATOM     22  N   UNL     1       0.080   1.343  -0.919  0.00  0.00    -0.299 N 
ATOM     23  C   UNL     1       0.072   0.439  -1.919  0.00  0.00    +0.236 C 
ATOM     24  O   UNL     1       0.323  -0.724  -1.686  0.00  0.00    -0.274 OA
BRANCH  22  25
ATOM     25  C   UNL     1       0.391   0.921   0.448  0.00  0.00    +0.143 C 
BRANCH  25  26
ATOM     26  C   UNL     1      -0.881   0.526   1.154  0.00  0.00    -0.023 A 
ATOM     27  C   UNL     1      -1.614   1.464   1.856  0.00  0.00    +0.013 A 
ATOM     28  C   UNL     1      -2.754   1.076   2.479  0.00  0.00    +0.045 A 
ATOM     29  S   UNL     1      -2.819  -0.663   2.080  0.00  0.00    -0.105 S 
ATOM     30  C   UNL     1      -1.326  -0.753   1.105  0.00  0.00    +0.050 A 
ENDBRANCH  25  26
ENDBRANCH  22  25
ENDBRANCH  20  23
ENDBRANCH   1  20
TORSDOF 6
