REMARK  Name = ZINC25567286
REMARK  4 active torsions:
REMARK  status: ('A' for Active; 'I' for Inactive)
REMARK    1  A    between atoms: C_1  and  N_2
REMARK    2  A    between atoms: C_7  and  N_12
REMARK    3  A    between atoms: N_12  and  C_13
REMARK    4  A    between atoms: C_18  and  N_19
REMARK                            x       y       z     vdW  Elec       q    Type
REMARK                         _______ _______ _______ _____ _____    ______ ____
ROOT
ATOM      1  N   UNL     1      -2.571  -0.815  -0.841  0.00  0.00    -0.335 N 
ATOM      2  H   UNL     1      -2.622  -1.206  -1.868  0.00  0.00    +0.147 HD
ENDROOT
BRANCH   1   9
ATOM      3  C   UNL     1       3.222  -0.787   0.369  0.00  0.00    +0.172 C 
ATOM      4  N   UNL     1       1.783  -0.519   0.307  0.00  0.00    -0.271 N 
ATOM      5  C   UNL     1       0.807  -1.442   0.268  0.00  0.00    +0.044 A 
ATOM      6  C   UNL     1      -0.381  -0.788   0.214  0.00  0.00    +0.013 A 
ATOM      7  C   UNL     1      -0.120   0.580   0.222  0.00  0.00    +0.140 A 
ATOM      8  N   UNL     1       1.179   0.747   0.278  0.00  0.00    -0.179 NA
ATOM      9  C   UNL     1      -1.722  -1.475   0.154  0.00  0.00    +0.104 C 
ATOM     10  C   UNL     1      -1.499  -2.938  -0.247  0.00  0.00    +0.027 C 
ATOM     11  C   UNL     1      -0.414  -3.552   0.642  0.00  0.00    +0.008 C 
ATOM     12  C   UNL     1       0.947  -2.943   0.282  0.00  0.00    +0.055 C 
ENDBRANCH   1   9
BRANCH   1  13
ATOM     13  C   UNL     1      -3.317   0.311  -0.485  0.00  0.00    +0.058 A 
ATOM     14  C   UNL     1      -3.352   0.734   0.838  0.00  0.00    +0.025 A 
ATOM     15  C   UNL     1      -4.091   1.848   1.185  0.00  0.00    +0.002 A 
ATOM     16  C   UNL     1      -4.794   2.543   0.218  0.00  0.00    +0.002 A 
ATOM     17  C   UNL     1      -4.761   2.125  -1.099  0.00  0.00    +0.034 A 
ATOM     18  C   UNL     1      -4.020   1.015  -1.455  0.00  0.00    +0.147 A 
BRANCH  18  19
ATOM     19  N   UNL     1      -3.981   0.572  -2.866  0.00  0.00    +0.058 N 
ATOM     20  O   UNL     1      -2.948   0.130  -3.337  0.00  0.00    -0.126 OA
ATOM     21  O   UNL     1      -4.981   0.648  -3.557  0.00  0.00    -0.126 OA
ENDBRANCH  18  19
ENDBRANCH   1  13
TORSDOF 3
