REMARK  Name = ZINC04188862
REMARK  10 active torsions:
REMARK  status: ('A' for Active; 'I' for Inactive)
REMARK    1  A    between atoms: C_1  and  C_2
REMARK    2  A    between atoms: C_2  and  C_3
REMARK    3  A    between atoms: C_2  and  C_4
REMARK    4  A    between atoms: C_2  and  C_5
REMARK    5  A    between atoms: C_8  and  C_11
REMARK    6  A    between atoms: N_21  and  C_30
REMARK    7  A    between atoms: N_23  and  C_24
REMARK    8  A    between atoms: C_30  and  C_31
REMARK    9  A    between atoms: N_33  and  C_34
REMARK   10  A    between atoms: C_34  and  C_35
REMARK                            x       y       z     vdW  Elec       q    Type
REMARK                         _______ _______ _______ _____ _____    ______ ____
ROOT
ATOM      1  C   UNL     1       2.753  -1.507  -4.146  0.00  0.00    +0.247 C 
ATOM      2  O   UNL     1       2.317  -0.984  -3.139  0.00  0.00    -0.270 OA
ATOM      3  N   UNL     1       4.049  -1.350  -4.480  0.00  0.00    -0.297 N 
ATOM      4  C   UNL     1       4.953  -0.570  -3.624  0.00  0.00    +0.110 C 
ATOM      5  C   UNL     1       6.172  -1.432  -3.279  0.00  0.00    +0.054 C 
ATOM      6  C   UNL     1       6.808  -1.949  -4.569  0.00  0.00    +0.115 C 
ATOM      7  C   UNL     1       5.806  -2.805  -5.344  0.00  0.00    +0.054 C 
ATOM      8  C   UNL     1       4.586  -1.960  -5.704  0.00  0.00    +0.110 C 
ATOM      9  C   UNL     1       8.040  -2.755  -4.251  0.00  0.00    +0.241 C 
ATOM     10  O   UNL     1       8.065  -3.767  -3.583  0.00  0.00    -0.273 OA
ATOM     11  N   UNL     1       9.106  -2.174  -4.826  0.00  0.00    -0.275 N 
ATOM     12  C   UNL     1       8.697  -0.972  -5.553  0.00  0.00    +0.217 C 
ATOM     13  N   UNL     1       7.245  -0.819  -5.398  0.00  0.00    -0.300 N 
ENDROOT
BRANCH   1  17
ATOM     14  C   UNL     1       0.191  -3.829  -6.614  0.00  0.00    -0.042 A 
ATOM     15  C   UNL     1       1.131  -2.994  -7.190  0.00  0.00    +0.005 A 
ATOM     16  C   UNL     1       1.966  -2.237  -6.394  0.00  0.00    +0.013 A 
ATOM     17  C   UNL     1       1.861  -2.315  -5.005  0.00  0.00    +0.037 A 
ATOM     18  C   UNL     1       0.910  -3.160  -4.430  0.00  0.00    +0.013 A 
ATOM     19  C   UNL     1       0.078  -3.907  -5.237  0.00  0.00    +0.005 A 
BRANCH  14  21
ATOM     20  C   UNL     1      -2.174  -4.272  -7.214  0.00  0.00    +0.015 C 
ATOM     21  C   UNL     1      -0.718  -4.653  -7.489  0.00  0.00    -0.013 C 
ATOM     22  C   UNL     1      -0.512  -6.138  -7.183  0.00  0.00    +0.015 C 
ATOM     23  C   UNL     1      -0.390  -4.385  -8.959  0.00  0.00    +0.015 C 
ENDBRANCH  14  21
ENDBRANCH   1  17
BRANCH  13  24
ATOM     24  C   UNL     1       6.444   0.194  -5.931  0.00  0.00    +0.032 A 
ATOM     25  C   UNL     1       5.067   0.157  -5.756  0.00  0.00    +0.023 A 
ATOM     26  C   UNL     1       4.278   1.160  -6.283  0.00  0.00    +0.002 A 
ATOM     27  C   UNL     1       4.857   2.200  -6.986  0.00  0.00    +0.000 A 
ATOM     28  C   UNL     1       6.229   2.240  -7.162  0.00  0.00    +0.002 A 
ATOM     29  C   UNL     1       7.024   1.244  -6.633  0.00  0.00    +0.023 A 
ENDBRANCH  13  24
BRANCH  11  30
ATOM     30  C   UNL     1      10.481  -2.672  -4.738  0.00  0.00    +0.205 C 
BRANCH  30  31
ATOM     31  C   UNL     1      10.746  -3.621  -5.878  0.00  0.00    +0.231 C 
ATOM     32  O   UNL     1       9.872  -3.858  -6.685  0.00  0.00    -0.274 OA
ATOM     33  N   UNL     1      11.954  -4.206  -6.001  0.00  0.00    -0.312 N 
ATOM     34  H   UNL     1      12.652  -4.017  -5.355  0.00  0.00    +0.149 HD
BRANCH  33  35
ATOM     35  C   UNL     1      12.211  -5.129  -7.109  0.00  0.00    +0.135 C 
BRANCH  35  36
ATOM     36  C   UNL     1      13.647  -5.649  -7.016  0.00  0.00    +0.135 C 
ATOM     37  C   UNL     1      13.966  -6.527  -8.246  0.00  0.00    +0.035 C 
ATOM     38  C   UNL     1      14.811  -7.672  -7.623  0.00  0.00    +0.031 C 
ATOM     39  C   UNL     1      14.140  -7.808  -6.233  0.00  0.00    +0.160 C 
ATOM     40  O   UNL     1      13.793  -6.466  -5.849  0.00  0.00    -0.375 OA
ENDBRANCH  35  36
ENDBRANCH  33  35
ENDBRANCH  30  31
ENDBRANCH  11  30
TORSDOF 7
