REMARK  Name = ZINC40063664
REMARK  9 active torsions:
REMARK  status: ('A' for Active; 'I' for Inactive)
REMARK    1  A    between atoms: C_1  and  C_2
REMARK    2  A    between atoms: C_2  and  O_3
REMARK    3  A    between atoms: O_3  and  C_4
REMARK    4  A    between atoms: C_4  and  C_6
REMARK    5  A    between atoms: C_7  and  C_36
REMARK    6  A    between atoms: C_12  and  C_29
REMARK    7  A    between atoms: C_20  and  C_28
REMARK    8  A    between atoms: C_21  and  C_27
REMARK    9  A    between atoms: C_32  and  O_35
REMARK                            x       y       z     vdW  Elec       q    Type
REMARK                         _______ _______ _______ _____ _____    ______ ____
ROOT
ATOM      1  C   UNL     1       1.495  -2.370   2.465  0.00  0.00    +0.120 A 
ATOM      2  C   UNL     1       1.727  -3.696   2.809  0.00  0.00    +0.062 A 
ATOM      3  N   UNL     1       2.385  -3.900   3.921  0.00  0.00    -0.229 NA
ATOM      4  C   UNL     1       2.803  -2.896   4.671  0.00  0.00    +0.169 A 
ATOM      5  S   UNL     1       2.287  -1.533   3.829  0.00  0.00    -0.045 S 
ATOM      6  N   UNL     1       3.503  -2.951   5.861  0.00  0.00    -0.232 N 
ATOM      7  C   UNL     1       3.940  -1.796   6.662  0.00  0.00    +0.151 C 
ATOM      8  C   UNL     1       4.653  -2.367   7.844  0.00  0.00    +0.072 A 
ATOM      9  C   UNL     1       5.314  -1.717   8.980  0.00  0.00    +0.199 A 
ATOM     10  O   UNL     1       5.222  -0.524   9.213  0.00  0.00    -0.287 OA
ATOM     11  C   UNL     1       6.105  -2.650   9.821  0.00  0.00    +0.065 A 
ATOM     12  C   UNL     1       6.949  -2.161  10.818  0.00  0.00    +0.015 A 
ATOM     13  C   UNL     1       7.675  -3.033  11.580  0.00  0.00    +0.004 A 
ATOM     14  C   UNL     1       7.574  -4.400  11.364  0.00  0.00    -0.044 A 
ATOM     15  C   UNL     1       6.745  -4.901  10.387  0.00  0.00    -0.005 A 
ATOM     16  C   UNL     1       5.992  -4.032   9.597  0.00  0.00    +0.143 A 
ATOM     17  O   UNL     1       5.176  -4.546   8.649  0.00  0.00    -0.449 OA
ATOM     18  C   UNL     1       4.621  -3.728   7.732  0.00  0.00    +0.199 A 
ATOM     19  C   UNL     1       3.900  -4.074   6.496  0.00  0.00    +0.289 C 
ATOM     20  O   UNL     1       3.694  -5.205   6.103  0.00  0.00    -0.266 OA
ATOM     21  C   UNL     1       6.650  -6.389  10.169  0.00  0.00    +0.048 C 
ATOM     22  C   UNL     1       8.383  -5.349  12.211  0.00  0.00    +0.044 C 
ATOM     23  C   UNL     1       1.247  -4.836   1.949  0.00  0.00    +0.067 C 
ENDROOT
BRANCH   7  24
ATOM     24  C   UNL     1       4.875  -0.930   5.857  0.00  0.00    -0.022 A 
ATOM     25  C   UNL     1       5.798  -1.513   5.009  0.00  0.00    +0.009 A 
ATOM     26  C   UNL     1       6.657  -0.722   4.271  0.00  0.00    +0.046 A 
ATOM     27  C   UNL     1       6.591   0.660   4.381  0.00  0.00    +0.117 A 
ATOM     28  C   UNL     1       5.664   1.242   5.232  0.00  0.00    +0.046 A 
ATOM     29  C   UNL     1       4.804   0.447   5.965  0.00  0.00    +0.009 A 
BRANCH  27  30
ATOM     30  O   UNL     1       7.435   1.441   3.656  0.00  0.00    -0.507 OA
ATOM     31  H   UNL     1       7.090   1.691   2.788  0.00  0.00    +0.292 HD
ENDBRANCH  27  30
ENDBRANCH   7  24
BRANCH   1  32
ATOM     32  C   UNL     1       0.801  -1.815   1.305  0.00  0.00    +0.348 C 
ATOM     33  O   UNL     1       0.321  -2.558   0.470  0.00  0.00    -0.244 OA
BRANCH  32  34
ATOM     34  O   UNL     1       0.693  -0.477   1.160  0.00  0.00    -0.461 OA
BRANCH  34  36
ATOM     35  C   UNL     1      -0.019   1.526   0.010  0.00  0.00    +0.048 C 
ATOM     36  C   UNL     1       0.002  -0.004   0.002  0.00  0.00    +0.229 C 
ENDBRANCH  34  36
ENDBRANCH  32  34
ENDBRANCH   1  32
TORSDOF 5
