REMARK  Name = ZINC39313513
REMARK  5 active torsions:
REMARK  status: ('A' for Active; 'I' for Inactive)
REMARK    1  A    between atoms: C_1  and  O_2
REMARK    2  A    between atoms: O_2  and  C_3
REMARK    3  A    between atoms: C_7  and  C_9
REMARK    4  A    between atoms: C_24  and  N_28
REMARK    5  A    between atoms: C_25  and  C_26
REMARK                            x       y       z     vdW  Elec       q    Type
REMARK                         _______ _______ _______ _____ _____    ______ ____
ROOT
ATOM      1  C   UNL     1       1.325  -4.106  -2.289  0.00  0.00    +0.084 C 
ATOM      2  C   UNL     1       0.609  -4.573  -3.560  0.00  0.00    +0.154 C 
ATOM      3  C   UNL     1       1.573  -4.277  -4.697  0.00  0.00    +0.129 C 
ATOM      4  C   UNL     1       1.148  -3.426  -5.707  0.00  0.00    +0.035 A 
ATOM      5  C   UNL     1       1.978  -3.118  -6.804  0.00  0.00    +0.013 A 
ATOM      6  C   UNL     1       1.524  -2.284  -7.778  0.00  0.00    +0.001 A 
ATOM      7  C   UNL     1       0.252  -1.723  -7.715  0.00  0.00    +0.002 A 
ATOM      8  C   UNL     1      -0.595  -1.980  -6.679  0.00  0.00    +0.024 A 
ATOM      9  C   UNL     1      -0.193  -2.831  -5.637  0.00  0.00    +0.044 A 
ATOM     10  N   UNL     1      -1.022  -3.076  -4.615  0.00  0.00    -0.284 N 
ATOM     11  C   UNL     1      -0.738  -3.886  -3.594  0.00  0.00    +0.229 C 
ATOM     12  O   UNL     1      -1.538  -4.071  -2.696  0.00  0.00    -0.275 OA
ATOM     13  O   UNL     1       2.785  -4.834  -4.668  0.00  0.00    -0.444 OA
ATOM     14  C   UNL     1       3.404  -4.876  -3.464  0.00  0.00    +0.198 C 
ATOM     15  C   UNL     1       2.761  -4.553  -2.322  0.00  0.00    +0.095 C 
ATOM     16  H   UNL     1      -1.890  -2.643  -4.617  0.00  0.00    +0.155 HD
ENDROOT
BRANCH   1  21
ATOM     17  C   UNL     1       0.606  -0.607  -1.056  0.00  0.00    +0.120 A 
ATOM     18  C   UNL     1       1.173   0.161  -2.063  0.00  0.00    +0.045 A 
ATOM     19  C   UNL     1       1.786  -0.455  -3.136  0.00  0.00    +0.004 A 
ATOM     20  C   UNL     1       1.836  -1.835  -3.208  0.00  0.00    +0.004 A 
ATOM     21  C   UNL     1       1.271  -2.602  -2.207  0.00  0.00    -0.035 A 
ATOM     22  C   UNL     1       0.661  -1.991  -1.128  0.00  0.00    +0.050 A 
BRANCH  17  24
ATOM     23  C   UNL     1      -0.017   1.425   0.010  0.00  0.00    +0.277 C 
ATOM     24  O   UNL     1       0.002  -0.004   0.002  0.00  0.00    -0.495 OA
ENDBRANCH  17  24
ENDBRANCH   1  21
BRANCH  14  25
ATOM     25  N   UNL     1       4.721  -5.258  -3.404  0.00  0.00    -0.328 N 
ATOM     26  H   UNL     1       5.195  -5.493  -4.216  0.00  0.00    +0.145 HD
ATOM     27  H   UNL     1       5.177  -5.293  -2.548  0.00  0.00    +0.145 HD
ENDBRANCH  14  25
BRANCH  15  28
ATOM     28  C   UNL     1       3.480  -4.639  -1.086  0.00  0.00    +0.100 C 
ATOM     29  N   UNL     1       4.050  -4.708  -0.106  0.00  0.00    -0.191 NA
ENDBRANCH  15  28
TORSDOF 4
