REMARK  Name = ZINC36627740
REMARK  9 active torsions:
REMARK  status: ('A' for Active; 'I' for Inactive)
REMARK    1  A    between atoms: C_1  and  C_2
REMARK    2  A    between atoms: C_2  and  C_3
REMARK    3  A    between atoms: C_3  and  C_5
REMARK    4  A    between atoms: C_3  and  N_6
REMARK    5  A    between atoms: N_6  and  C_7
REMARK    6  A    between atoms: C_8  and  C_28
REMARK    7  A    between atoms: C_10  and  C_12
REMARK    8  A    between atoms: C_15  and  S_18
REMARK    9  A    between atoms: S_18  and  N_21
REMARK                            x       y       z     vdW  Elec       q    Type
REMARK                         _______ _______ _______ _____ _____    ______ ____
ROOT
ATOM      1  C   UNL     1      -6.809  -0.174   0.006  0.00  0.00    +0.037 A 
ATOM      2  C   UNL     1      -6.748  -0.541  -1.339  0.00  0.00    +0.015 A 
ATOM      3  C   UNL     1      -7.911  -0.656  -2.073  0.00  0.00    +0.029 A 
ATOM      4  C   UNL     1      -9.135  -0.409  -1.478  0.00  0.00    +0.106 A 
ATOM      5  C   UNL     1      -9.203  -0.044  -0.145  0.00  0.00    +0.029 A 
ATOM      6  C   UNL     1      -8.048   0.069   0.602  0.00  0.00    +0.015 A 
ENDROOT
BRANCH   1  10
ATOM      7  C   UNL     1      -3.453  -0.051   1.335  0.00  0.00    +0.225 A 
ATOM      8  C   UNL     1      -4.206   0.295   2.448  0.00  0.00    +0.201 A 
ATOM      9  N   UNL     1      -5.509   0.283   2.062  0.00  0.00    -0.196 NA
ATOM     10  C   UNL     1      -5.568  -0.048   0.798  0.00  0.00    +0.231 A 
ATOM     11  O   UNL     1      -4.322  -0.252   0.328  0.00  0.00    -0.421 OA
BRANCH   7  12
ATOM     12  N   UNL     1      -2.082  -0.162   1.273  0.00  0.00    -0.310 N 
ATOM     13  H   UNL     1      -1.545   0.006   2.063  0.00  0.00    +0.149 HD
BRANCH  12  14
ATOM     14  C   UNL     1      -1.433  -0.534   0.013  0.00  0.00    +0.070 C 
ATOM     15  C   UNL     1      -1.416  -2.058  -0.121  0.00  0.00    +0.028 C 
BRANCH  14  17
ATOM     16  C   UNL     1      -0.019   1.526   0.010  0.00  0.00    +0.005 C 
ATOM     17  C   UNL     1       0.002  -0.004   0.002  0.00  0.00    +0.018 C 
ENDBRANCH  14  17
ENDBRANCH  12  14
ENDBRANCH   7  12
BRANCH   8  18
ATOM     18  C   UNL     1      -3.706   0.607   3.753  0.00  0.00    +0.124 C 
ATOM     19  N   UNL     1      -3.309   0.854   4.788  0.00  0.00    -0.189 NA
ENDBRANCH   8  18
ENDBRANCH   1  10
BRANCH   4  20
ATOM     20  S   UNL     1     -10.615  -0.559  -2.422  0.00  0.00    +0.061 S 
ATOM     21  O   UNL     1     -11.589   0.255  -1.782  0.00  0.00    -0.153 OA
ATOM     22  O   UNL     1     -10.248  -0.380  -3.783  0.00  0.00    -0.153 OA
BRANCH  20  23
ATOM     23  N   UNL     1     -11.135  -2.124  -2.273  0.00  0.00    -0.177 NA
ATOM     24  C   UNL     1     -10.665  -3.104  -3.227  0.00  0.00    +0.109 C 
ATOM     25  C   UNL     1     -11.623  -3.147  -4.442  0.00  0.00    +0.017 C 
ATOM     26  C   UNL     1     -12.902  -3.767  -4.063  0.00  0.00    +0.001 C 
ATOM     27  C   UNL     1     -13.679  -3.002  -2.996  0.00  0.00    +0.001 C 
ATOM     28  C   UNL     1     -13.184  -3.407  -1.629  0.00  0.00    +0.017 C 
ATOM     29  C   UNL     1     -12.054  -2.462  -1.169  0.00  0.00    +0.109 C 
ENDBRANCH  20  23
ENDBRANCH   4  20
TORSDOF 7
