REMARK  Name = ZINC28178316
REMARK  12 active torsions:
REMARK  status: ('A' for Active; 'I' for Inactive)
REMARK    1  A    between atoms: C_1  and  C_2
REMARK    2  A    between atoms: C_2  and  C_3
REMARK    3  A    between atoms: C_4  and  C_35
REMARK    4  A    between atoms: C_6  and  N_13
REMARK    5  A    between atoms: C_7  and  C_8
REMARK    6  A    between atoms: C_8  and  O_10
REMARK    7  A    between atoms: O_10  and  C_11
REMARK    8  A    between atoms: C_11  and  C_12
REMARK    9  A    between atoms: C_14  and  C_16
REMARK   10  A    between atoms: C_16  and  C_18
REMARK   11  A    between atoms: C_16  and  N_19
REMARK   12  A    between atoms: N_29  and  C_34
REMARK                            x       y       z     vdW  Elec       q    Type
REMARK                         _______ _______ _______ _____ _____    ______ ____
ROOT
ATOM      1  C   UNL     1      -1.199  -2.734   4.934  0.00  0.00    +0.017 C 
ATOM      2  C   UNL     1      -2.411  -1.835   5.191  0.00  0.00    -0.004 C 
ENDROOT
BRANCH   1   3
ATOM      3  N   UNL     1      -1.230  -3.873   5.861  0.00  0.00    +0.389 N 
ATOM      4  C   UNL     1      -2.466  -4.651   5.699  0.00  0.00    -0.059 C 
ATOM      5  C   UNL     1      -2.424  -5.870   6.623  0.00  0.00    +0.088 C 
ATOM      6  N   UNL     1      -2.266  -5.422   8.014  0.00  0.00    -0.318 N 
ATOM      7  C   UNL     1      -1.030  -4.644   8.176  0.00  0.00    +0.088 C 
ATOM      8  C   UNL     1      -1.072  -3.425   7.252  0.00  0.00    -0.059 C 
ATOM      9  C   UNL     1      -2.295  -6.493   8.885  0.00  0.00    +0.135 A 
ATOM     10  C   UNL     1      -3.390  -7.378   8.904  0.00  0.00    +0.078 A 
ATOM     11  C   UNL     1      -4.604  -7.472   8.189  0.00  0.00    +0.148 A 
ATOM     12  N   UNL     1      -5.259  -8.510   8.623  0.00  0.00    -0.177 NA
ATOM     13  N   UNL     1      -4.524  -9.145   9.631  0.00  0.00    -0.249 N 
ATOM     14  C   UNL     1      -3.364  -8.453   9.814  0.00  0.00    +0.163 A 
ATOM     15  N   UNL     1      -2.309  -8.589  10.617  0.00  0.00    -0.216 NA
ATOM     16  C   UNL     1      -1.310  -7.737  10.562  0.00  0.00    +0.225 A 
ATOM     17  N   UNL     1      -1.288  -6.717   9.722  0.00  0.00    -0.220 NA
ATOM     18  C   UNL     1      -4.930 -10.348  10.363  0.00  0.00    +0.174 C 
ATOM     19  H   UNL     1      -0.381  -4.529   5.617  0.00  0.00    -0.081 HD
ENDBRANCH   1   3
BRANCH   1  21
ATOM     20  N   UNL     1      -1.222  -2.367   2.488  0.00  0.00    -0.281 N 
ATOM     21  C   UNL     1      -1.240  -3.239   3.515  0.00  0.00    +0.204 C 
ATOM     22  O   UNL     1      -1.290  -4.431   3.297  0.00  0.00    -0.277 OA
ATOM     23  H   UNL     1      -1.176  -1.286   2.686  0.00  0.00    +0.155 HD
BRANCH  20  27
ATOM     24  C   UNL     1      -1.289  -2.846  -1.230  0.00  0.00    -0.022 A 
ATOM     25  C   UNL     1      -1.340  -4.187  -1.132  0.00  0.00    -0.008 A 
ATOM     26  S   UNL     1      -1.334  -4.470   0.626  0.00  0.00    -0.078 S 
ATOM     27  C   UNL     1      -1.259  -2.832   1.183  0.00  0.00    +0.086 A 
ATOM     28  C   UNL     1      -1.248  -2.096   0.003  0.00  0.00    +0.091 A 
ATOM     29  C   UNL     1      -1.390  -5.204  -2.242  0.00  0.00    +0.052 C 
BRANCH  24  31
ATOM     30  C   UNL     1       0.170  -1.979  -3.038  0.00  0.00    +0.009 C 
ATOM     31  C   UNL     1      -1.276  -2.157  -2.570  0.00  0.00    +0.033 C 
ENDBRANCH  24  31
BRANCH  28  32
ATOM     32  C   UNL     1      -1.191  -0.633   0.010  0.00  0.00    +0.342 C 
ATOM     33  O   UNL     1      -2.220   0.016   0.023  0.00  0.00    -0.245 OA
BRANCH  32  34
ATOM     34  O   UNL     1       0.002  -0.004   0.002  0.00  0.00    -0.461 OA
BRANCH  34  35
ATOM     35  C   UNL     1      -0.018   1.448   0.010  0.00  0.00    +0.229 C 
ATOM     36  C   UNL     1       1.418   1.977  -0.001  0.00  0.00    +0.048 C 
ENDBRANCH  34  35
ENDBRANCH  32  34
ENDBRANCH  28  32
ENDBRANCH  20  27
ENDBRANCH   1  21
TORSDOF 7
