REMARK  Name = ZINC13065625
REMARK  8 active torsions:
REMARK  status: ('A' for Active; 'I' for Inactive)
REMARK    1  A    between atoms: C_3  and  C_6
REMARK    2  A    between atoms: C_6  and  N_7
REMARK    3  A    between atoms: C_8  and  C_12
REMARK    4  A    between atoms: C_12  and  N_60
REMARK    5  A    between atoms: C_13  and  C_14
REMARK    6  A    between atoms: C_13  and  N_60
REMARK    7  A    between atoms: C_23  and  C_24
REMARK    8  A    between atoms: C_23  and  N_60
REMARK                            x       y       z     vdW  Elec       q    Type
REMARK                         _______ _______ _______ _____ _____    ______ ____
ROOT
ATOM      1  N   UNL     1       5.931  -1.117   1.126  0.00  0.00    +0.390 N 
ATOM      2  H   UNL     1       5.993  -0.592   0.246  0.00  0.00    -0.080 HD
ENDROOT
BRANCH   1   3
ATOM      3  C   UNL     1       7.226  -1.026   1.832  0.00  0.00    +0.001 C 
BRANCH   3   5
ATOM      4  N   UNL     1       7.329   1.270   2.940  0.00  0.00    -0.224 N 
ATOM      5  C   UNL     1       7.623   0.425   1.934  0.00  0.00    +0.136 A 
ATOM      6  N   UNL     1       8.326   1.107   1.063  0.00  0.00    -0.115 NA
ATOM      7  N   UNL     1       8.450   2.310   1.507  0.00  0.00    -0.023 NA
ATOM      8  N   UNL     1       7.851   2.411   2.642  0.00  0.00    -0.044 NA
BRANCH   4   9
ATOM      9  C   UNL     1       6.559   0.953   4.145  0.00  0.00    +0.221 C 
BRANCH   9  12
ATOM     10  C   UNL     1       8.884   0.381   6.948  0.00  0.00    +0.041 A 
ATOM     11  C   UNL     1       8.112   1.242   6.135  0.00  0.00    +0.046 A 
ATOM     12  C   UNL     1       7.493   0.469   5.224  0.00  0.00    +0.126 A 
ATOM     13  O   UNL     1       7.854  -0.807   5.437  0.00  0.00    -0.466 OA
ATOM     14  C   UNL     1       8.697  -0.867   6.481  0.00  0.00    +0.195 A 
ENDBRANCH   9  12
ENDBRANCH   4   9
ENDBRANCH   3   5
ENDBRANCH   1   3
BRANCH   1  15
ATOM     15  C   UNL     1       4.859  -0.533   1.960  0.00  0.00    -0.042 C 
BRANCH  15  16
ATOM     16  C   UNL     1       3.602  -0.432   1.134  0.00  0.00    -0.060 A 
ATOM     17  C   UNL     1       2.637  -1.417   1.225  0.00  0.00    +0.005 A 
ATOM     18  C   UNL     1       1.482  -1.329   0.469  0.00  0.00    +0.050 A 
ATOM     19  C   UNL     1       1.290  -0.252  -0.381  0.00  0.00    +0.166 A 
ATOM     20  C   UNL     1       2.263   0.741  -0.471  0.00  0.00    +0.166 A 
ATOM     21  C   UNL     1       3.417   0.646   0.289  0.00  0.00    +0.051 A 
ATOM     22  O   UNL     1       1.843   1.683  -1.366  0.00  0.00    -0.453 OA
ATOM     23  C   UNL     1       0.427   1.467  -1.515  0.00  0.00    +0.466 C 
ATOM     24  O   UNL     1       0.261   0.068  -1.219  0.00  0.00    -0.453 OA
ENDBRANCH  15  16
ENDBRANCH   1  15
BRANCH   1  25
ATOM     25  C   UNL     1       5.621  -2.530   0.822  0.00  0.00    -0.036 C 
BRANCH  25  26
ATOM     26  C   UNL     1       6.517  -2.992  -0.298  0.00  0.00    +0.001 A 
ATOM     27  C   UNL     1       7.654  -3.678  -0.015  0.00  0.00    +0.017 A 
ATOM     28  C   UNL     1       8.502  -4.113  -1.124  0.00  0.00    +0.002 A 
ATOM     29  C   UNL     1       9.685  -4.826  -0.891  0.00  0.00    +0.059 A 
ATOM     30  C   UNL     1      10.464  -5.223  -1.956  0.00  0.00    +0.167 A 
ATOM     31  C   UNL     1      10.075  -4.917  -3.267  0.00  0.00    +0.168 A 
ATOM     32  C   UNL     1       8.909  -4.214  -3.505  0.00  0.00    +0.075 A 
ATOM     33  C   UNL     1       8.113  -3.807  -2.442  0.00  0.00    +0.053 A 
ATOM     34  N   UNL     1       6.944  -3.106  -2.662  0.00  0.00    -0.322 N 
ATOM     35  H   UNL     1       6.677  -2.895  -3.570  0.00  0.00    +0.169 HD
ATOM     36  C   UNL     1       6.169  -2.716  -1.636  0.00  0.00    +0.251 A 
ATOM     37  O   UNL     1       5.141  -2.103  -1.867  0.00  0.00    -0.268 OA
ATOM     38  O   UNL     1      11.011  -5.420  -4.123  0.00  0.00    -0.453 OA
ATOM     39  C   UNL     1      11.755  -6.387  -3.358  0.00  0.00    +0.466 C 
ATOM     40  O   UNL     1      11.640  -5.916  -2.003  0.00  0.00    -0.453 OA
ENDBRANCH  25  26
ENDBRANCH   1  25
TORSDOF 8
