REMARK  Name = ZINC39729708
REMARK  6 active torsions:
REMARK  status: ('A' for Active; 'I' for Inactive)
REMARK    1  A    between atoms: C_1  and  C_2
REMARK    2  A    between atoms: C_10  and  C_24
REMARK    3  A    between atoms: C_11  and  C_12
REMARK    4  A    between atoms: C_12  and  C_13
REMARK    5  A    between atoms: N_15  and  N_16
REMARK    6  A    between atoms: C_17  and  C_23
REMARK                            x       y       z     vdW  Elec       q    Type
REMARK                         _______ _______ _______ _____ _____    ______ ____
ROOT
ATOM      1  C   UNL     1      -0.018   1.503   0.010  0.00  0.00    +0.045 C 
ATOM      2  C   UNL     1       0.002  -0.004   0.002  0.00  0.00    -0.036 A 
ATOM      3  C   UNL     1       0.006  -0.721  -1.210  0.00  0.00    +0.004 A 
ATOM      4  C   UNL     1      -0.008  -0.061  -2.449  0.00  0.00    +0.010 A 
ATOM      5  C   UNL     1      -0.003  -0.790  -3.599  0.00  0.00    +0.001 A 
ATOM      6  C   UNL     1       0.016  -2.183  -3.562  0.00  0.00    +0.002 A 
ATOM      7  C   UNL     1       0.030  -2.854  -2.379  0.00  0.00    +0.028 A 
ATOM      8  C   UNL     1       0.026  -2.137  -1.170  0.00  0.00    +0.072 A 
ATOM      9  N   UNL     1       0.041  -2.769   0.008  0.00  0.00    -0.252 NA
ATOM     10  C   UNL     1       0.038  -2.105   1.138  0.00  0.00    +0.043 A 
ATOM     11  C   UNL     1       0.023  -0.712   1.170  0.00  0.00    -0.014 A 
ATOM     12  C   UNL     1       0.055  -2.868   2.437  0.00  0.00    +0.066 C 
ENDROOT
BRANCH  11  13
ATOM     13  C   UNL     1       0.025   0.012   2.491  0.00  0.00    +0.134 C 
BRANCH  13  14
ATOM     14  C   UNL     1      -1.395   0.234   2.945  0.00  0.00    +0.234 C 
ATOM     15  O   UNL     1      -2.318  -0.158   2.262  0.00  0.00    -0.274 OA
ATOM     16  N   UNL     1      -1.639   0.867   4.109  0.00  0.00    -0.230 N 
ATOM     17  H   UNL     1      -0.901   1.181   4.655  0.00  0.00    +0.173 HD
BRANCH  16  18
ATOM     18  N   UNL     1      -2.959   1.073   4.531  0.00  0.00    -0.203 N 
ATOM     19  C   UNL     1      -3.732   2.330   4.505  0.00  0.00    +0.228 C 
ATOM     20  N   UNL     1      -5.037   1.942   5.063  0.00  0.00    -0.172 NA
ATOM     21  N   UNL     1      -4.990   0.739   5.335  0.00  0.00    -0.097 NA
ATOM     22  C   UNL     1      -3.816   0.165   5.048  0.00  0.00    +0.195 C 
ATOM     23  S   UNL     1      -3.449  -1.488   5.303  0.00  0.00    -0.013 S 
ATOM     24  C   UNL     1      -3.063   3.392   5.380  0.00  0.00    +0.057 C 
ENDBRANCH  16  18
ENDBRANCH  13  14
ENDBRANCH  11  13
TORSDOF 3
