REMARK  Name = ZINC35129648
REMARK  14 active torsions:
REMARK  status: ('A' for Active; 'I' for Inactive)
REMARK    1  A    between atoms: C_1  and  C_2
REMARK    2  A    between atoms: C_5  and  C_8
REMARK    3  A    between atoms: C_11  and  S_20
REMARK    4  A    between atoms: N_12  and  C_13
REMARK    5  A    between atoms: C_16  and  C_19
REMARK    6  A    between atoms: S_20  and  C_21
REMARK    7  A    between atoms: C_21  and  C_22
REMARK    8  A    between atoms: C_22  and  C_23
REMARK    9  A    between atoms: C_23  and  C_24
REMARK   10  A    between atoms: C_30  and  C_33
REMARK   11  A    between atoms: C_34  and  C_36
REMARK   12  A    between atoms: C_36  and  C_37
REMARK   13  A    between atoms: C_37  and  C_38
REMARK   14  A    between atoms: C_37  and  C_39
REMARK                            x       y       z     vdW  Elec       q    Type
REMARK                         _______ _______ _______ _____ _____    ______ ____
ROOT
ATOM      1  C   UNL     1       0.060  -4.251  -0.021  0.00  0.00    +0.169 A 
ATOM      2  N   UNL     1      -0.203  -5.029  -1.045  0.00  0.00    -0.128 NA
ATOM      3  N   UNL     1      -0.092  -6.262  -0.701  0.00  0.00    -0.122 NA
ATOM      4  C   UNL     1       0.249  -6.349   0.566  0.00  0.00    +0.196 A 
ATOM      5  N   UNL     1       0.363  -5.072   1.043  0.00  0.00    -0.270 N 
ENDROOT
BRANCH   1  10
ATOM      6  C   UNL     1      -0.018   1.503   0.010  0.00  0.00    +0.044 C 
ATOM      7  C   UNL     1       0.002  -0.004   0.002  0.00  0.00    -0.050 A 
ATOM      8  C   UNL     1       0.006  -0.686  -1.202  0.00  0.00    +0.004 A 
ATOM      9  C   UNL     1       0.024  -2.066  -1.216  0.00  0.00    +0.012 A 
ATOM     10  C   UNL     1       0.040  -2.773  -0.013  0.00  0.00    +0.020 A 
ATOM     11  C   UNL     1       0.037  -2.079   1.198  0.00  0.00    +0.012 A 
ATOM     12  C   UNL     1       0.023  -0.699   1.198  0.00  0.00    +0.004 A 
ENDBRANCH   1  10
BRANCH   5  13
ATOM     13  C   UNL     1       0.712  -4.681   2.343  0.00  0.00    +0.051 A 
ATOM     14  C   UNL     1       1.889  -3.978   2.565  0.00  0.00    +0.026 A 
ATOM     15  C   UNL     1       2.230  -3.594   3.847  0.00  0.00    +0.005 A 
ATOM     16  C   UNL     1       1.401  -3.908   4.909  0.00  0.00    -0.050 A 
ATOM     17  C   UNL     1       0.229  -4.609   4.690  0.00  0.00    +0.005 A 
ATOM     18  C   UNL     1      -0.121  -4.990   3.410  0.00  0.00    +0.026 A 
ATOM     19  C   UNL     1       1.777  -3.488   6.306  0.00  0.00    +0.044 C 
ENDBRANCH   5  13
BRANCH   4  20
ATOM     20  S   UNL     1       0.515  -7.833   1.477  0.00  0.00    -0.086 S 
BRANCH  20  21
ATOM     21  C   UNL     1       0.211  -9.151   0.269  0.00  0.00    +0.078 C 
BRANCH  21  22
ATOM     22  C   UNL     1       0.411 -10.513   0.938  0.00  0.00    +0.020 C 
BRANCH  22  23
ATOM     23  C   UNL     1       0.154 -11.624  -0.082  0.00  0.00    +0.097 C 
BRANCH  23  24
ATOM     24  C   UNL     1       0.350 -12.966   0.577  0.00  0.00    +0.216 C 
ATOM     25  O   UNL     1       0.665 -13.026   1.747  0.00  0.00    -0.276 OA
ATOM     26  N   UNL     1       0.177 -14.097  -0.134  0.00  0.00    -0.298 N 
ATOM     27  C   UNL     1      -0.198 -14.039  -1.554  0.00  0.00    +0.127 C 
ATOM     28  C   UNL     1      -1.476 -14.862  -1.758  0.00  0.00    +0.127 C 
ATOM     29  N   UNL     1      -1.293 -16.177  -1.127  0.00  0.00    -0.296 N 
ATOM     30  C   UNL     1      -0.918 -16.235   0.293  0.00  0.00    +0.090 C 
ATOM     31  C   UNL     1       0.365 -15.412   0.496  0.00  0.00    +0.130 C 
ATOM     32  C   UNL     1      -2.048 -15.656   1.147  0.00  0.00    +0.029 C 
ATOM     33  C   UNL     1      -1.466 -17.309  -1.837  0.00  0.00    +0.216 C 
ATOM     34  O   UNL     1      -1.313 -18.388  -1.306  0.00  0.00    -0.276 OA
BRANCH  33  35
ATOM     35  C   UNL     1      -1.851 -17.233  -3.292  0.00  0.00    +0.099 C 
BRANCH  35  36
ATOM     36  C   UNL     1      -1.983 -18.648  -3.859  0.00  0.00    -0.008 C 
ATOM     37  C   UNL     1      -3.145 -19.367  -3.170  0.00  0.00    +0.008 C 
ATOM     38  C   UNL     1      -2.251 -18.572  -5.364  0.00  0.00    +0.008 C 
ENDBRANCH  35  36
ENDBRANCH  33  35
ENDBRANCH  23  24
ENDBRANCH  22  23
ENDBRANCH  21  22
ENDBRANCH  20  21
ENDBRANCH   4  20
TORSDOF 9
