REMARK  Name = ZINC63351456
REMARK  3 active torsions:
REMARK  status: ('A' for Active; 'I' for Inactive)
REMARK    1  A    between atoms: C_4  and  C_7
REMARK    2  A    between atoms: N_26  and  N_29
REMARK    3  A    between atoms: C_30  and  C_31
REMARK                            x       y       z     vdW  Elec       q    Type
REMARK                         _______ _______ _______ _____ _____    ______ ____
ROOT
ATOM      1  C   UNL     1       3.711  -0.707  -0.038  0.00  0.00    +0.133 C 
ATOM      2  C   UNL     1       3.958  -1.297  -1.429  0.00  0.00    +0.131 C 
ATOM      3  C   UNL     1       2.953  -2.427  -1.611  0.00  0.00    -0.034 C 
ATOM      4  C   UNL     1       2.279  -2.156  -2.722  0.00  0.00    -0.001 A 
ATOM      5  C   UNL     1       1.240  -2.906  -3.446  0.00  0.00    +0.010 A 
ATOM      6  C   UNL     1       0.748  -2.317  -4.568  0.00  0.00    +0.001 A 
ATOM      7  C   UNL     1       1.179  -1.072  -5.036  0.00  0.00    +0.002 A 
ATOM      8  C   UNL     1       2.133  -0.316  -4.437  0.00  0.00    +0.026 A 
ATOM      9  C   UNL     1       2.730  -0.832  -3.250  0.00  0.00    +0.043 A 
ATOM     10  N   UNL     1       3.684  -0.327  -2.491  0.00  0.00    -0.375 N 
ATOM     11  C   UNL     1       2.796  -3.539  -0.602  0.00  0.00    +0.065 C 
ATOM     12  C   UNL     1       2.655  -2.866   0.775  0.00  0.00    +0.169 C 
ATOM     13  N   UNL     1       3.671  -1.829   0.927  0.00  0.00    -0.279 N 
ATOM     14  C   UNL     1       4.582  -1.845   1.907  0.00  0.00    +0.236 C 
ATOM     15  O   UNL     1       5.397  -0.947   1.934  0.00  0.00    -0.274 OA
ATOM     16  C   UNL     1       4.667  -2.889   2.970  0.00  0.00    +0.230 C 
ATOM     17  N   UNL     1       3.632  -3.900   2.831  0.00  0.00    -0.183 N 
ATOM     18  C   UNL     1       2.726  -3.901   1.850  0.00  0.00    +0.256 C 
ATOM     19  O   UNL     1       1.908  -4.796   1.831  0.00  0.00    -0.272 OA
ATOM     20  H   UNL     1       4.126   0.530  -2.604  0.00  0.00    +0.160 HD
ENDROOT
BRANCH   1  24
ATOM     21  C   UNL     1      -0.016   1.379   0.010  0.00  0.00    +0.000 A 
ATOM     22  C   UNL     1       1.154   2.048   0.316  0.00  0.00    +0.000 A 
ATOM     23  C   UNL     1       2.360   1.373   0.301  0.00  0.00    +0.005 A 
ATOM     24  C   UNL     1       2.396   0.029  -0.020  0.00  0.00    -0.025 A 
ATOM     25  C   UNL     1       1.226  -0.641  -0.326  0.00  0.00    +0.005 A 
ATOM     26  C   UNL     1       0.020   0.035  -0.312  0.00  0.00    +0.000 A 
ENDBRANCH   1  24
BRANCH  17  27
ATOM     27  N   UNL     1       3.583  -4.933   3.776  0.00  0.00    -0.184 NA
ATOM     28  C   UNL     1       4.448  -4.968   4.744  0.00  0.00    +0.140 C 
BRANCH  28  29
ATOM     29  C   UNL     1       4.397  -6.055   5.739  0.00  0.00    +0.013 A 
ATOM     30  C   UNL     1       5.323  -6.093   6.784  0.00  0.00    +0.012 A 
ATOM     31  C   UNL     1       5.269  -7.112   7.712  0.00  0.00    +0.021 A 
ATOM     32  C   UNL     1       4.301  -8.097   7.609  0.00  0.00    +0.042 A 
ATOM     33  C   UNL     1       3.381  -8.067   6.576  0.00  0.00    +0.040 A 
ATOM     34  C   UNL     1       3.419  -7.049   5.643  0.00  0.00    +0.051 A 
ATOM     35 CL   UNL     1       2.259  -7.008   4.352  0.00  0.00    -0.083 Cl
ATOM     36 CL   UNL     1       4.243  -9.377   8.781  0.00  0.00    -0.083 Cl
ENDBRANCH  28  29
ENDBRANCH  17  27
TORSDOF 3
