REMARK  Name = ZINC08431281
REMARK  9 active torsions:
REMARK  status: ('A' for Active; 'I' for Inactive)
REMARK    1  A    between atoms: C_1  and  O_2
REMARK    2  A    between atoms: O_2  and  C_3
REMARK    3  A    between atoms: C_8  and  N_9
REMARK    4  A    between atoms: N_9  and  N_10
REMARK    5  A    between atoms: C_11  and  C_13
REMARK    6  A    between atoms: C_13  and  S_14
REMARK    7  A    between atoms: S_14  and  C_15
REMARK    8  A    between atoms: N_23  and  C_24
REMARK    9  A    between atoms: C_24  and  C_25
REMARK                            x       y       z     vdW  Elec       q    Type
REMARK                         _______ _______ _______ _____ _____    ______ ____
ROOT
ATOM      1  S   UNL     1      -0.718  -9.259  -0.493  0.00  0.00    -0.078 S 
ENDROOT
BRANCH   1   2
ATOM      2  C   UNL     1      -0.626 -10.986  -0.154  0.00  0.00    +0.171 A 
ATOM      3  N   UNL     1      -0.015 -11.519   0.875  0.00  0.00    -0.222 NA
ATOM      4  C   UNL     1      -0.140 -12.871   0.829  0.00  0.00    +0.090 A 
ATOM      5  C   UNL     1       0.308 -13.905   1.656  0.00  0.00    +0.030 A 
ATOM      6  C   UNL     1       0.013 -15.212   1.337  0.00  0.00    +0.002 A 
ATOM      7  C   UNL     1      -0.724 -15.510   0.201  0.00  0.00    +0.002 A 
ATOM      8  C   UNL     1      -1.173 -14.501  -0.626  0.00  0.00    +0.028 A 
ATOM      9  C   UNL     1      -0.887 -13.179  -0.320  0.00  0.00    +0.070 A 
ATOM     10  N   UNL     1      -1.186 -11.968  -0.921  0.00  0.00    -0.314 N 
BRANCH  10  11
ATOM     11  C   UNL     1      -1.956 -11.775  -2.153  0.00  0.00    +0.159 C 
BRANCH  11  12
ATOM     12  C   UNL     1      -1.024 -11.797  -3.337  0.00  0.00    -0.028 A 
ATOM     13  C   UNL     1      -0.446 -10.623  -3.783  0.00  0.00    +0.007 A 
ATOM     14  C   UNL     1       0.408 -10.642  -4.868  0.00  0.00    +0.020 A 
ATOM     15  C   UNL     1       0.686 -11.836  -5.509  0.00  0.00    +0.041 A 
ATOM     16  C   UNL     1       0.107 -13.011  -5.063  0.00  0.00    +0.020 A 
ATOM     17  C   UNL     1      -0.743 -12.991  -3.973  0.00  0.00    +0.007 A 
ATOM     18 CL   UNL     1       1.759 -11.861  -6.874  0.00  0.00    -0.084 Cl
ENDBRANCH  11  12
ENDBRANCH  10  11
ENDBRANCH   1   2
BRANCH   1  19
ATOM     19  C   UNL     1       0.205  -8.494   0.868  0.00  0.00    +0.174 C 
BRANCH  19  21
ATOM     20  N   UNL     1       0.833  -6.215   1.597  0.00  0.00    -0.236 N 
ATOM     21  C   UNL     1       0.204  -6.997   0.697  0.00  0.00    +0.239 C 
ATOM     22  O   UNL     1      -0.364  -6.495  -0.250  0.00  0.00    -0.273 OA
ATOM     23  H   UNL     1       1.287  -6.617   2.354  0.00  0.00    +0.173 HD
BRANCH  20  24
ATOM     24  N   UNL     1       0.832  -4.823   1.438  0.00  0.00    -0.271 N 
ATOM     25  H   UNL     1       0.378  -4.422   0.680  0.00  0.00    +0.169 HD
BRANCH  24  31
ATOM     26  C   UNL     1       0.472  -0.620   1.155  0.00  0.00    +0.167 C 
ATOM     27  C   UNL     1       1.230   0.125   2.009  0.00  0.00    +0.049 C 
ATOM     28  C   UNL     1       2.055  -0.471   2.960  0.00  0.00    +0.004 C 
ATOM     29  C   UNL     1       2.141  -1.821   3.079  0.00  0.00    +0.013 C 
ATOM     30  C   UNL     1       1.383  -2.655   2.225  0.00  0.00    +0.040 C 
ATOM     31  C   UNL     1       1.459  -4.045   2.333  0.00  0.00    +0.099 C 
ATOM     32  C   UNL     1       0.509  -2.028   1.227  0.00  0.00    +0.229 C 
ATOM     33  O   UNL     1      -0.169  -2.711   0.471  0.00  0.00    -0.283 OA
BRANCH  26  35
ATOM     34  C   UNL     1      -0.310   1.423   0.221  0.00  0.00    +0.277 C 
ATOM     35  O   UNL     1      -0.323  -0.005   0.237  0.00  0.00    -0.491 OA
ENDBRANCH  26  35
ENDBRANCH  24  31
ENDBRANCH  20  24
ENDBRANCH  19  21
ENDBRANCH   1  19
TORSDOF 8
