REMARK  Name = ZINC28309616
REMARK  6 active torsions:
REMARK  status: ('A' for Active; 'I' for Inactive)
REMARK    1  A    between atoms: C_3  and  N_28
REMARK    2  A    between atoms: C_6  and  C_7
REMARK    3  A    between atoms: C_8  and  C_9
REMARK    4  A    between atoms: C_8  and  N_18
REMARK    5  A    between atoms: N_11  and  C_12
REMARK    6  A    between atoms: C_19  and  C_21
REMARK                            x       y       z     vdW  Elec       q    Type
REMARK                         _______ _______ _______ _____ _____    ______ ____
ROOT
ATOM      1  C   UNL     1       4.556   0.622   1.335  0.00  0.00    +0.036 C 
ATOM      2  C   UNL     1       3.777   1.402   0.550  0.00  0.00    +0.097 C 
ENDROOT
BRANCH   1   8
ATOM      3  C   UNL     1       2.705  -0.889   2.028  0.00  0.00    +0.010 A 
ATOM      4  C   UNL     1       2.255  -2.125   2.441  0.00  0.00    +0.033 A 
ATOM      5  C   UNL     1       3.149  -3.167   2.621  0.00  0.00    +0.126 A 
ATOM      6  C   UNL     1       4.499  -2.978   2.384  0.00  0.00    +0.033 A 
ATOM      7  C   UNL     1       4.964  -1.749   1.965  0.00  0.00    +0.010 A 
ATOM      8  C   UNL     1       4.068  -0.692   1.781  0.00  0.00    -0.023 A 
BRANCH   5   9
ATOM      9  N   UNL     1       2.658  -4.489   3.070  0.00  0.00    +0.056 N 
ATOM     10  O   UNL     1       3.441  -5.407   3.230  0.00  0.00    -0.126 OA
ATOM     11  O   UNL     1       1.470  -4.658   3.280  0.00  0.00    -0.126 OA
ENDBRANCH   5   9
ENDBRANCH   1   8
BRANCH   2  12
ATOM     12  C   UNL     1       2.514   0.875   0.011  0.00  0.00    +0.258 C 
ATOM     13  O   UNL     1       1.454   1.341   0.382  0.00  0.00    -0.269 OA
ATOM     14  N   UNL     1       2.533  -0.124  -0.893  0.00  0.00    -0.307 N 
ATOM     15  H   UNL     1       3.491  -0.482  -1.298  0.00  0.00    +0.149 HD
BRANCH  14  16
ATOM     16  C   UNL     1       1.276  -0.734  -1.337  0.00  0.00    +0.073 C 
ATOM     17  C   UNL     1       0.684   0.093  -2.480  0.00  0.00    +0.022 C 
ATOM     18  C   UNL     1      -0.628  -0.543  -2.943  0.00  0.00    +0.002 C 
ATOM     19  C   UNL     1      -0.359  -1.968  -3.431  0.00  0.00    +0.000 C 
ATOM     20  C   UNL     1       0.233  -2.795  -2.288  0.00  0.00    +0.002 C 
ATOM     21  C   UNL     1       1.545  -2.159  -1.824  0.00  0.00    +0.022 C 
ENDBRANCH  14  16
ENDBRANCH   2  12
BRANCH   2  22
ATOM     22  N   UNL     1       4.173   2.709   0.251  0.00  0.00    -0.277 N 
ATOM     23  C   UNL     1       3.461   3.445  -0.625  0.00  0.00    +0.248 C 
ATOM     24  O   UNL     1       2.422   3.009  -1.082  0.00  0.00    -0.270 OA
ATOM     25  H   UNL     1       5.065   3.137   0.731  0.00  0.00    +0.155 HD
BRANCH  23  26
ATOM     26  C   UNL     1       3.943   4.782  -1.031  0.00  0.00    +0.037 A 
ATOM     27  C   UNL     1       5.133   5.287  -0.504  0.00  0.00    +0.014 A 
ATOM     28  C   UNL     1       5.581   6.533  -0.890  0.00  0.00    +0.016 A 
ATOM     29  C   UNL     1       4.847   7.287  -1.790  0.00  0.00    +0.018 A 
ATOM     30  C   UNL     1       3.663   6.793  -2.313  0.00  0.00    +0.016 A 
ATOM     31  C   UNL     1       3.208   5.546  -1.939  0.00  0.00    +0.014 A 
ATOM     32 BR   UNL     1       5.464   8.998  -2.309  0.00  0.00    -0.050 Br
ENDBRANCH  23  26
ENDBRANCH   2  22
TORSDOF 6
