REMARK  Name = ZINC34789385
REMARK  6 active torsions:
REMARK  status: ('A' for Active; 'I' for Inactive)
REMARK    1  A    between atoms: C_1  and  C_2
REMARK    2  A    between atoms: C_4  and  C_27
REMARK    3  A    between atoms: C_6  and  C_8
REMARK    4  A    between atoms: C_8  and  N_9
REMARK    5  A    between atoms: C_23  and  C_25
REMARK    6  A    between atoms: C_23  and  C_26
REMARK                            x       y       z     vdW  Elec       q    Type
REMARK                         _______ _______ _______ _____ _____    ______ ____
ROOT
ATOM      1  N   UNL     1       1.440  -3.073   2.903  0.00  0.00    -0.256 N 
ATOM      2  C   UNL     1       2.071  -4.186   2.491  0.00  0.00    +0.265 A 
ATOM      3  O   UNL     1       1.497  -4.993   1.782  0.00  0.00    -0.267 OA
ATOM      4  C   UNL     1       3.471  -4.420   2.908  0.00  0.00    +0.074 A 
ATOM      5  C   UNL     1       4.344  -5.545   2.587  0.00  0.00    -0.018 A 
ATOM      6  C   UNL     1       5.582  -5.475   3.121  0.00  0.00    +0.021 A 
ATOM      7  S   UNL     1       5.595  -3.959   4.026  0.00  0.00    -0.073 S 
ATOM      8  C   UNL     1       4.037  -3.436   3.718  0.00  0.00    +0.094 A 
ATOM      9  N   UNL     1       3.319  -2.329   4.093  0.00  0.00    -0.301 N 
ATOM     10  H   UNL     1       3.733  -1.657   4.657  0.00  0.00    +0.171 HD
ATOM     11  C   UNL     1       2.049  -2.162   3.680  0.00  0.00    +0.330 A 
ATOM     12  O   UNL     1       1.438  -1.169   4.023  0.00  0.00    -0.246 OA
ATOM     13  C   UNL     1       6.671  -6.489   2.954  0.00  0.00    +0.203 C 
ATOM     14  O   UNL     1       6.080  -7.682   2.412  0.00  0.00    -0.368 OA
ATOM     15  C   UNL     1       5.237  -7.443   1.282  0.00  0.00    +0.068 C 
ATOM     16  C   UNL     1       3.951  -6.734   1.721  0.00  0.00    +0.071 C 
ATOM     17  C   UNL     1       4.880  -8.778   0.624  0.00  0.00    +0.041 C 
ATOM     18  C   UNL     1       5.979  -6.566   0.272  0.00  0.00    +0.041 C 
ENDROOT
BRANCH   1  19
ATOM     19  C   UNL     1       0.054  -2.844   2.489  0.00  0.00    +0.165 C 
BRANCH  19  25
ATOM     20  C   UNL     1      -0.018   1.503   0.010  0.00  0.00    +0.044 C 
ATOM     21  C   UNL     1       0.002  -0.004   0.002  0.00  0.00    -0.050 A 
ATOM     22  C   UNL     1       0.006  -0.689  -1.199  0.00  0.00    +0.006 A 
ATOM     23  C   UNL     1       0.025  -2.071  -1.206  0.00  0.00    -0.050 A 
ATOM     24  C   UNL     1       0.040  -2.768  -0.013  0.00  0.00    +0.008 A 
ATOM     25  C   UNL     1       0.037  -2.084   1.188  0.00  0.00    -0.027 A 
ATOM     26  C   UNL     1       0.023  -0.702   1.195  0.00  0.00    +0.008 A 
ATOM     27  C   UNL     1       0.027  -2.817  -2.516  0.00  0.00    +0.044 C 
ENDBRANCH  19  25
ENDBRANCH   1  19
TORSDOF 2
