REMARK  Name = ZINC12525413
REMARK  7 active torsions:
REMARK  status: ('A' for Active; 'I' for Inactive)
REMARK    1  A    between atoms: C_1  and  N_2
REMARK    2  A    between atoms: C_6  and  S_7
REMARK    3  A    between atoms: S_7  and  C_8
REMARK    4  A    between atoms: C_11  and  N_14
REMARK    5  A    between atoms: N_14  and  S_15
REMARK    6  A    between atoms: S_15  and  C_18
REMARK    7  A    between atoms: C_23  and  N_24
REMARK                            x       y       z     vdW  Elec       q    Type
REMARK                         _______ _______ _______ _____ _____    ______ ____
ROOT
ATOM      1  N   UNL     1      -0.283   1.651  -1.220  0.00  0.00    -0.216 N 
ATOM      2  H   UNL     1      -0.680   1.030  -1.851  0.00  0.00    +0.174 HD
ENDROOT
BRANCH   1   6
ATOM      3  C   UNL     1      -0.533   5.757  -1.899  0.00  0.00    +0.016 A 
ATOM      4  C   UNL     1      -0.174   4.903  -2.934  0.00  0.00    +0.017 A 
ATOM      5  C   UNL     1      -0.090   3.543  -2.709  0.00  0.00    +0.025 A 
ATOM      6  C   UNL     1      -0.367   3.030  -1.448  0.00  0.00    +0.048 A 
ATOM      7  C   UNL     1      -0.732   3.884  -0.415  0.00  0.00    +0.025 A 
ATOM      8  C   UNL     1      -0.809   5.244  -0.639  0.00  0.00    +0.017 A 
BRANCH   3   9
ATOM      9  S   UNL     1      -0.640   7.492  -2.187  0.00  0.00    -0.052 S 
BRANCH   9  15
ATOM     10  C   UNL     1      -2.344  10.080  -3.242  0.00  0.00    +0.151 C 
ATOM     11  N   UNL     1      -2.942   8.748  -3.130  0.00  0.00    -0.328 N 
ATOM     12  C   UNL     1      -4.239   8.403  -3.437  0.00  0.00    +0.107 A 
ATOM     13  C   UNL     1      -4.366   7.090  -3.184  0.00  0.00    +0.131 A 
ATOM     14  N   UNL     1      -3.186   6.628  -2.739  0.00  0.00    -0.230 NA
ATOM     15  C   UNL     1      -2.320   7.614  -2.704  0.00  0.00    +0.173 A 
ENDBRANCH   9  15
ENDBRANCH   3   9
ENDBRANCH   1   6
BRANCH   1  16
ATOM     16  S   UNL     1       0.494   1.081   0.126  0.00  0.00    +0.075 S 
ATOM     17  O   UNL     1       0.423  -0.337   0.066  0.00  0.00    -0.150 OA
ATOM     18  O   UNL     1       1.730   1.779   0.209  0.00  0.00    -0.150 OA
BRANCH  16  19
ATOM     19  C   UNL     1      -0.457   1.574   1.525  0.00  0.00    +0.139 A 
ATOM     20  C   UNL     1       0.088   2.429   2.465  0.00  0.00    +0.032 A 
ATOM     21  C   UNL     1      -0.657   2.816   3.562  0.00  0.00    +0.022 A 
ATOM     22  C   UNL     1      -1.950   2.348   3.720  0.00  0.00    +0.043 A 
ATOM     23  C   UNL     1      -2.495   1.492   2.779  0.00  0.00    +0.054 A 
ATOM     24  C   UNL     1      -1.750   1.110   1.679  0.00  0.00    +0.154 A 
ATOM     25 CL   UNL     1      -2.887   2.833   5.099  0.00  0.00    -0.083 Cl
BRANCH  24  26
ATOM     26  N   UNL     1      -2.335   0.200   0.669  0.00  0.00    +0.058 N 
ATOM     27  O   UNL     1      -3.421  -0.314   0.870  0.00  0.00    -0.126 OA
ATOM     28  O   UNL     1      -1.731  -0.034  -0.362  0.00  0.00    -0.126 OA
ENDBRANCH  24  26
ENDBRANCH  16  19
ENDBRANCH   1  16
TORSDOF 6
