REMARK  Name = ZINC21126809
REMARK  6 active torsions:
REMARK  status: ('A' for Active; 'I' for Inactive)
REMARK    1  A    between atoms: C_10  and  C_12
REMARK    2  A    between atoms: C_15  and  N_18
REMARK    3  A    between atoms: C_19  and  C_21
REMARK    4  A    between atoms: C_21  and  C_22
REMARK    5  A    between atoms: C_22  and  C_23
REMARK    6  A    between atoms: C_23  and  N_24
REMARK                            x       y       z     vdW  Elec       q    Type
REMARK                         _______ _______ _______ _____ _____    ______ ____
ROOT
ATOM      1  N   UNL     1      -0.011   0.966   0.007  0.00  0.00    -0.285 N 
ATOM      2  C   UNL     1       1.111   1.712   0.009  0.00  0.00    +0.217 C 
ATOM      3  O   UNL     1       1.037   2.920  -0.071  0.00  0.00    -0.275 OA
ATOM      4  H   UNL     1       0.058  -0.132   0.008  0.00  0.00    +0.155 HD
ENDROOT
BRANCH   1   8
ATOM      5  C   UNL     1      -3.744   2.817   0.003  0.00  0.00    +0.037 A 
ATOM      6  C   UNL     1      -2.676   3.392  -0.692  0.00  0.00    +0.015 A 
ATOM      7  C   UNL     1      -1.444   2.778  -0.688  0.00  0.00    +0.024 A 
ATOM      8  C   UNL     1      -1.261   1.586   0.006  0.00  0.00    +0.033 A 
ATOM      9  C   UNL     1      -2.323   1.008   0.694  0.00  0.00    +0.024 A 
ATOM     10  C   UNL     1      -3.557   1.620   0.699  0.00  0.00    +0.015 A 
BRANCH   5  20
ATOM     11  C   UNL     1      -9.795   4.630   0.741  0.00  0.00    +0.001 A 
ATOM     12  C   UNL     1      -9.567   3.440   1.420  0.00  0.00    +0.002 A 
ATOM     13  C   UNL     1      -8.324   2.848   1.407  0.00  0.00    +0.029 A 
ATOM     14  C   UNL     1      -7.279   3.449   0.702  0.00  0.00    +0.082 A 
ATOM     15  C   UNL     1      -7.515   4.660   0.012  0.00  0.00    +0.085 A 
ATOM     16  C   UNL     1      -8.780   5.242   0.037  0.00  0.00    +0.017 A 
ATOM     17  C   UNL     1      -6.393   5.266  -0.720  0.00  0.00    +0.348 A 
ATOM     18  O   UNL     1      -6.528   6.307  -1.335  0.00  0.00    -0.244 OA
ATOM     19  O   UNL     1      -5.205   4.622  -0.682  0.00  0.00    -0.403 OA
ATOM     20  C   UNL     1      -5.066   3.473   0.000  0.00  0.00    +0.232 A 
ATOM     21  N   UNL     1      -6.040   2.901   0.657  0.00  0.00    -0.212 NA
ENDBRANCH   5  20
ENDBRANCH   1   8
BRANCH   2  22
ATOM     22  C   UNL     1       2.459   1.045   0.108  0.00  0.00    +0.097 C 
BRANCH  22  23
ATOM     23  C   UNL     1       3.558   2.110   0.088  0.00  0.00    +0.029 C 
BRANCH  23  24
ATOM     24  C   UNL     1       4.926   1.433   0.190  0.00  0.00    +0.117 C 
BRANCH  24  25
ATOM     25  N   UNL     1       5.978   2.453   0.171  0.00  0.00    -0.234 N 
ATOM     26  C   UNL     1       6.576   2.909  -0.945  0.00  0.00    +0.254 C 
ATOM     27  O   UNL     1       6.332   2.546  -2.078  0.00  0.00    -0.270 OA
ATOM     28  C   UNL     1       7.576   3.927  -0.561  0.00  0.00    +0.049 A 
ATOM     29  C   UNL     1       8.469   4.720  -1.263  0.00  0.00    +0.014 A 
ATOM     30  C   UNL     1       9.297   5.595  -0.578  0.00  0.00    +0.001 A 
ATOM     31  C   UNL     1       9.238   5.682   0.800  0.00  0.00    +0.001 A 
ATOM     32  C   UNL     1       8.349   4.896   1.516  0.00  0.00    +0.014 A 
ATOM     33  C   UNL     1       7.515   4.016   0.845  0.00  0.00    +0.049 A 
ATOM     34  C   UNL     1       6.477   3.052   1.266  0.00  0.00    +0.254 C 
ATOM     35  O   UNL     1       6.132   2.838   2.411  0.00  0.00    -0.270 OA
ENDBRANCH  24  25
ENDBRANCH  23  24
ENDBRANCH  22  23
ENDBRANCH   2  22
TORSDOF 6
