REMARK  Name = ZINC35877258
REMARK  13 active torsions:
REMARK  status: ('A' for Active; 'I' for Inactive)
REMARK    1  A    between atoms: C_1  and  C_2
REMARK    2  A    between atoms: C_2  and  O_3
REMARK    3  A    between atoms: O_3  and  C_4
REMARK    4  A    between atoms: C_4  and  C_6
REMARK    5  A    between atoms: C_7  and  C_35
REMARK    6  A    between atoms: C_11  and  C_13
REMARK    7  A    between atoms: C_15  and  O_21
REMARK    8  A    between atoms: C_16  and  O_20
REMARK    9  A    between atoms: O_21  and  C_22
REMARK   10  A    between atoms: C_25  and  C_31
REMARK   11  A    between atoms: C_27  and  C_30
REMARK   12  A    between atoms: C_31  and  O_33
REMARK   13  A    between atoms: O_33  and  C_34
REMARK                            x       y       z     vdW  Elec       q    Type
REMARK                         _______ _______ _______ _____ _____    ______ ____
ROOT
ATOM      1  C   UNL     1       1.667  -2.384   2.318  0.00  0.00    +0.065 C 
ATOM      2  C   UNL     1       1.490  -3.684   2.609  0.00  0.00    +0.016 C 
ATOM      3  N   UNL     1       1.943  -4.196   3.793  0.00  0.00    -0.321 N 
ATOM      4  C   UNL     1       2.905  -3.541   4.514  0.00  0.00    +0.016 C 
ATOM      5  C   UNL     1       3.142  -2.228   4.306  0.00  0.00    +0.025 C 
ATOM      6  C   UNL     1       2.357  -1.458   3.276  0.00  0.00    +0.092 C 
ATOM      7  C   UNL     1       4.124  -1.542   5.041  0.00  0.00    +0.176 C 
ATOM      8  O   UNL     1       4.324  -0.365   4.818  0.00  0.00    -0.291 OA
ATOM      9  C   UNL     1       4.934  -2.240   6.100  0.00  0.00    +0.171 C 
ATOM     10  C   UNL     1       4.106  -3.391   6.683  0.00  0.00    +0.013 C 
ATOM     11  C   UNL     1       3.693  -4.319   5.538  0.00  0.00    +0.055 C 
ATOM     12  C   UNL     1       4.946  -4.165   7.701  0.00  0.00    +0.009 C 
ATOM     13  C   UNL     1       0.789  -4.584   1.624  0.00  0.00    +0.061 C 
ATOM     14  H   UNL     1       1.579  -5.031   4.126  0.00  0.00    +0.152 HD
ENDROOT
BRANCH   6  15
ATOM     15  C   UNL     1       1.325  -0.612   3.977  0.00  0.00    -0.030 A 
ATOM     16  C   UNL     1       1.363   0.765   3.853  0.00  0.00    +0.054 A 
ATOM     17  C   UNL     1       0.415   1.544   4.497  0.00  0.00    +0.163 A 
ATOM     18  C   UNL     1      -0.573   0.939   5.267  0.00  0.00    +0.173 A 
ATOM     19  C   UNL     1      -0.605  -0.442   5.387  0.00  0.00    +0.063 A 
ATOM     20  C   UNL     1       0.341  -1.214   4.737  0.00  0.00    +0.023 A 
ATOM     21 BR   UNL     1      -1.946  -1.269   6.432  0.00  0.00    -0.046 Br
BRANCH  18  22
ATOM     22  O   UNL     1      -1.505   1.700   5.901  0.00  0.00    -0.503 OA
ATOM     23  H   UNL     1      -2.298   1.871   5.374  0.00  0.00    +0.292 HD
ENDBRANCH  18  22
BRANCH  17  24
ATOM     24  O   UNL     1       0.451   2.898   4.376  0.00  0.00    -0.491 OA
ATOM     25  C   UNL     1       1.494   3.451   3.570  0.00  0.00    +0.277 C 
ENDBRANCH  17  24
ENDBRANCH   6  15
BRANCH   1  26
ATOM     26  C   UNL     1       1.197  -1.880   1.083  0.00  0.00    +0.338 C 
ATOM     27  O   UNL     1       0.751  -2.642   0.245  0.00  0.00    -0.245 OA
BRANCH  26  28
ATOM     28  O   UNL     1       1.244  -0.555   0.833  0.00  0.00    -0.462 OA
BRANCH  28  30
ATOM     29  C   UNL     1       0.886   1.405  -0.535  0.00  0.00    +0.048 C 
ATOM     30  C   UNL     1       0.752  -0.116  -0.435  0.00  0.00    +0.229 C 
ENDBRANCH  28  30
ENDBRANCH  26  28
ENDBRANCH   1  26
BRANCH   9  31
ATOM     31  C   UNL     1       5.283  -1.264   7.194  0.00  0.00    +0.318 C 
ATOM     32  O   UNL     1       4.916  -1.468   8.326  0.00  0.00    -0.250 OA
BRANCH  31  33
ATOM     33  O   UNL     1       6.002  -0.167   6.909  0.00  0.00    -0.467 OA
ATOM     34  C   UNL     1       6.296   0.716   7.993  0.00  0.00    +0.280 C 
ENDBRANCH  31  33
ENDBRANCH   9  31
TORSDOF 8
