REMARK  Name = ZINC14185868
REMARK  11 active torsions:
REMARK  status: ('A' for Active; 'I' for Inactive)
REMARK    1  A    between atoms: C_1  and  C_2
REMARK    2  A    between atoms: C_7  and  N_8
REMARK    3  A    between atoms: N_8  and  C_9
REMARK    4  A    between atoms: N_8  and  S_30
REMARK    5  A    between atoms: C_9  and  C_10
REMARK    6  A    between atoms: N_12  and  N_13
REMARK    7  A    between atoms: C_14  and  C_15
REMARK    8  A    between atoms: C_18  and  O_21
REMARK    9  A    between atoms: O_21  and  C_22
REMARK   10  A    between atoms: C_22  and  C_23
REMARK   11  A    between atoms: S_30  and  C_33
REMARK                            x       y       z     vdW  Elec       q    Type
REMARK                         _______ _______ _______ _____ _____    ______ ____
ROOT
ATOM      1  C   UNL     1       3.811   3.145   2.381  0.00  0.00    +0.251 C 
ATOM      2  O   UNL     1       3.776   2.085   1.792  0.00  0.00    -0.272 OA
ATOM      3  N   UNL     1       4.425   3.231   3.578  0.00  0.00    -0.206 N 
ATOM      4  H   UNL     1       4.452   4.078   4.049  0.00  0.00    +0.177 HD
ENDROOT
BRANCH   3   5
ATOM      5  N   UNL     1       5.022   2.096   4.142  0.00  0.00    -0.188 NA
ATOM      6  C   UNL     1       5.613   2.179   5.294  0.00  0.00    +0.138 C 
BRANCH   6   7
ATOM      7  C   UNL     1       6.242   0.984   5.888  0.00  0.00    -0.005 A 
ATOM      8  C   UNL     1       6.198  -0.239   5.213  0.00  0.00    +0.013 A 
ATOM      9  C   UNL     1       6.791  -1.351   5.770  0.00  0.00    +0.046 A 
ATOM     10  C   UNL     1       7.423  -1.260   7.003  0.00  0.00    +0.121 A 
ATOM     11  C   UNL     1       7.464  -0.048   7.680  0.00  0.00    +0.046 A 
ATOM     12  C   UNL     1       6.878   1.071   7.129  0.00  0.00    +0.013 A 
BRANCH  10  13
ATOM     13  O   UNL     1       8.003  -2.361   7.550  0.00  0.00    -0.487 OA
BRANCH  13  14
ATOM     14  C   UNL     1       7.924  -3.575   6.801  0.00  0.00    +0.266 C 
BRANCH  14  15
ATOM     15  C   UNL     1       8.616  -4.678   7.559  0.00  0.00    +0.008 A 
ATOM     16  C   UNL     1       9.203  -4.414   8.782  0.00  0.00    +0.008 A 
ATOM     17  C   UNL     1       9.835  -5.427   9.480  0.00  0.00    +0.000 A 
ATOM     18  C   UNL     1       9.888  -6.703   8.950  0.00  0.00    +0.001 A 
ATOM     19  C   UNL     1       9.306  -6.967   7.725  0.00  0.00    +0.020 A 
ATOM     20  C   UNL     1       8.669  -5.955   7.028  0.00  0.00    +0.047 A 
ATOM     21 CL   UNL     1       7.939  -6.286   5.489  0.00  0.00    -0.083 Cl
ENDBRANCH  14  15
ENDBRANCH  13  14
ENDBRANCH  10  13
ENDBRANCH   6   7
ENDBRANCH   3   5
BRANCH   1  22
ATOM     22  C   UNL     1       3.168   4.365   1.774  0.00  0.00    +0.228 C 
BRANCH  22  23
ATOM     23  N   UNL     1       2.473   3.989   0.541  0.00  0.00    -0.198 N 
BRANCH  23  30
ATOM     24  C   UNL     1       0.368   5.856   0.960  0.00  0.00    +0.046 C 
ATOM     25  C   UNL     1       0.105   4.381   0.800  0.00  0.00    -0.028 A 
ATOM     26  C   UNL     1      -1.188   3.899   0.856  0.00  0.00    +0.006 A 
ATOM     27  C   UNL     1      -1.430   2.545   0.717  0.00  0.00    +0.020 A 
ATOM     28  C   UNL     1      -0.378   1.669   0.508  0.00  0.00    +0.043 A 
ATOM     29  C   UNL     1       0.918   2.145   0.452  0.00  0.00    +0.045 A 
ATOM     30  C   UNL     1       1.164   3.505   0.598  0.00  0.00    +0.056 A 
ATOM     31 CL   UNL     1      -0.687  -0.029   0.326  0.00  0.00    -0.083 Cl
ENDBRANCH  23  30
BRANCH  23  32
ATOM     32  S   UNL     1       3.238   4.138  -0.920  0.00  0.00    +0.043 S 
ATOM     33  O   UNL     1       4.622   4.032  -0.617  0.00  0.00    -0.155 OA
ATOM     34  O   UNL     1       2.604   3.183  -1.760  0.00  0.00    -0.155 OA
ATOM     35  C   UNL     1       2.849   5.819  -1.480  0.00  0.00    +0.218 C 
ENDBRANCH  23  32
ENDBRANCH  22  23
ENDBRANCH   1  22
TORSDOF 9
