REMARK  Name = ZINC34791934
REMARK  10 active torsions:
REMARK  status: ('A' for Active; 'I' for Inactive)
REMARK    1  A    between atoms: C_2  and  C_3
REMARK    2  A    between atoms: C_3  and  N_4
REMARK    3  A    between atoms: C_7  and  C_12
REMARK    4  A    between atoms: C_17  and  C_18
REMARK    5  A    between atoms: N_24  and  C_26
REMARK    6  A    between atoms: C_26  and  C_28
REMARK    7  A    between atoms: C_26  and  C_35
REMARK    8  A    between atoms: C_28  and  C_29
REMARK    9  A    between atoms: N_37  and  C_38
REMARK   10  A    between atoms: C_38  and  C_39
REMARK                            x       y       z     vdW  Elec       q    Type
REMARK                         _______ _______ _______ _____ _____    ______ ____
ROOT
ATOM      1  N   UNL     1      -1.333  -1.657  -1.170  0.00  0.00    -0.253 N 
ATOM      2  C   UNL     1      -1.757  -1.251  -2.404  0.00  0.00    +0.043 C 
ATOM      3  C   UNL     1      -1.779  -2.101  -3.450  0.00  0.00    +0.058 C 
ATOM      4  C   UNL     1      -1.317  -3.524  -3.211  0.00  0.00    +0.142 C 
ATOM      5  N   UNL     1      -0.879  -3.863  -1.846  0.00  0.00    -0.288 N 
ATOM      6  C   UNL     1      -0.910  -2.899  -0.904  0.00  0.00    +0.307 C 
ATOM      7  O   UNL     1      -0.547  -3.167   0.225  0.00  0.00    -0.252 OA
ATOM      8  C   UNL     1      -2.254  -1.446  -4.604  0.00  0.00    +0.247 C 
ATOM      9  O   UNL     1      -2.377  -1.975  -5.694  0.00  0.00    -0.270 OA
ATOM     10  N   UNL     1      -2.553  -0.160  -4.345  0.00  0.00    -0.280 N 
ATOM     11  C   UNL     1      -2.263   0.076  -2.923  0.00  0.00    +0.160 C 
ATOM     12  H   UNL     1      -0.572  -4.757  -1.630  0.00  0.00    +0.151 HD
ENDROOT
BRANCH   4  13
ATOM     13  C   UNL     1      -2.449  -4.448  -3.577  0.00  0.00    -0.011 A 
ATOM     14  C   UNL     1      -3.577  -4.510  -2.780  0.00  0.00    +0.006 A 
ATOM     15  C   UNL     1      -4.616  -5.357  -3.116  0.00  0.00    +0.000 A 
ATOM     16  C   UNL     1      -4.527  -6.144  -4.250  0.00  0.00    +0.001 A 
ATOM     17  C   UNL     1      -3.400  -6.082  -5.048  0.00  0.00    +0.013 A 
ATOM     18  C   UNL     1      -2.362  -5.231  -4.714  0.00  0.00    +0.060 A 
BRANCH  18  19
ATOM     19  C   UNL     1      -1.136  -5.159  -5.586  0.00  0.00    +0.418 C 
ATOM     20  F   UNL     1      -1.310  -5.981  -6.704  0.00  0.00    -0.166 F 
ATOM     21  F   UNL     1      -0.937  -3.839  -6.004  0.00  0.00    -0.166 F 
ATOM     22  F   UNL     1      -0.021  -5.591  -4.859  0.00  0.00    -0.166 F 
ENDBRANCH  18  19
ENDBRANCH   4  13
BRANCH   1  23
ATOM     23  C   UNL     1      -1.337  -0.678  -0.080  0.00  0.00    +0.141 C 
BRANCH  23  25
ATOM     24  C   UNL     1       0.029   1.346  -0.100  0.00  0.00    +0.005 C 
ATOM     25  C   UNL     1      -0.011   0.038  -0.044  0.00  0.00    -0.015 C 
ENDBRANCH  23  25
ENDBRANCH   1  23
BRANCH  10  26
ATOM     26  C   UNL     1      -3.070   0.822  -5.302  0.00  0.00    +0.167 C 
BRANCH  26  27
ATOM     27  C   UNL     1      -2.085   0.991  -6.430  0.00  0.00    +0.235 C 
ATOM     28  O   UNL     1      -1.053   0.354  -6.434  0.00  0.00    -0.274 OA
ATOM     29  N   UNL     1      -2.351   1.850  -7.434  0.00  0.00    -0.303 N 
ATOM     30  H   UNL     1      -3.177   2.359  -7.430  0.00  0.00    +0.150 HD
BRANCH  29  31
ATOM     31  C   UNL     1      -1.394   2.014  -8.530  0.00  0.00    +0.193 C 
BRANCH  31  32
ATOM     32  C   UNL     1      -1.914   3.001  -9.492  0.00  0.00    -0.087 C 
ATOM     33  C   UNL     1      -2.328   3.788 -10.258  0.00  0.00    +0.005 C 
ENDBRANCH  31  32
ENDBRANCH  29  31
ENDBRANCH  26  27
BRANCH  26  34
ATOM     34  C   UNL     1      -4.407   0.333  -5.861  0.00  0.00    +0.067 C 
BRANCH  34  35
ATOM     35  C   UNL     1      -5.427   0.281  -4.753  0.00  0.00    -0.045 A 
ATOM     36  C   UNL     1      -5.576  -0.871  -4.004  0.00  0.00    +0.004 A 
ATOM     37  C   UNL     1      -6.511  -0.919  -2.987  0.00  0.00    +0.000 A 
ATOM     38  C   UNL     1      -7.297   0.186  -2.718  0.00  0.00    +0.000 A 
ATOM     39  C   UNL     1      -7.147   1.339  -3.466  0.00  0.00    +0.000 A 
ATOM     40  C   UNL     1      -6.208   1.388  -4.480  0.00  0.00    +0.004 A 
ENDBRANCH  34  35
ENDBRANCH  26  34
ENDBRANCH  10  26
TORSDOF 10
