REMARK  Name = ZINC62038706
REMARK  10 active torsions:
REMARK  status: ('A' for Active; 'I' for Inactive)
REMARK    1  A    between atoms: C_1  and  C_2
REMARK    2  A    between atoms: C_6  and  C_9
REMARK    3  A    between atoms: C_12  and  O_15
REMARK    4  A    between atoms: O_15  and  C_16
REMARK    5  A    between atoms: C_17  and  S_19
REMARK    6  A    between atoms: S_19  and  C_20
REMARK    7  A    between atoms: C_20  and  C_22
REMARK    8  A    between atoms: C_20  and  C_23
REMARK    9  A    between atoms: N_25  and  C_26
REMARK   10  A    between atoms: C_31  and  O_32
REMARK                            x       y       z     vdW  Elec       q    Type
REMARK                         _______ _______ _______ _____ _____    ______ ____
ROOT
ATOM      1  C   UNL     1       0.599   1.361   0.025  0.00  0.00    +0.088 C 
ATOM      2  C   UNL     1       0.489  -0.142  -0.013  0.00  0.00    +0.128 A 
ATOM      3  N   UNL     1       0.338  -0.749  -1.174  0.00  0.00    -0.225 NA
ATOM      4  C   UNL     1       0.240  -2.063  -1.232  0.00  0.00    +0.113 A 
ATOM      5  C   UNL     1       0.294  -2.857  -0.068  0.00  0.00    +0.047 A 
ATOM      6  C   UNL     1       0.171  -4.292  -0.296  0.00  0.00    +0.001 A 
ATOM      7  C   UNL     1       0.020  -4.740  -1.565  0.00  0.00    +0.056 A 
ATOM      8  S   UNL     1       0.034  -3.246  -2.537  0.00  0.00    -0.076 S 
ATOM      9  C   UNL     1       0.458  -2.143   1.150  0.00  0.00    +0.110 A 
ATOM     10  N   UNL     1       0.553  -0.822   1.117  0.00  0.00    -0.225 NA
ENDROOT
BRANCH   6  11
ATOM     11  C   UNL     1       0.211  -5.244   0.840  0.00  0.00    -0.016 A 
ATOM     12  C   UNL     1      -0.725  -5.144   1.869  0.00  0.00    +0.012 A 
ATOM     13  C   UNL     1      -0.684  -6.030   2.924  0.00  0.00    +0.046 A 
ATOM     14  C   UNL     1       0.287  -7.021   2.964  0.00  0.00    +0.120 A 
ATOM     15  C   UNL     1       1.220  -7.123   1.942  0.00  0.00    +0.046 A 
ATOM     16  C   UNL     1       1.182  -6.244   0.880  0.00  0.00    +0.012 A 
BRANCH  14  17
ATOM     17  O   UNL     1       0.324  -7.893   4.006  0.00  0.00    -0.495 OA
ATOM     18  C   UNL     1       1.350  -8.888   3.983  0.00  0.00    +0.277 C 
ENDBRANCH  14  17
ENDBRANCH   6  11
BRANCH   9  19
ATOM     19  S   UNL     1       0.541  -3.005   2.684  0.00  0.00    -0.093 S 
BRANCH  19  20
ATOM     20  C   UNL     1       0.749  -1.690   3.916  0.00  0.00    +0.136 C 
ATOM     21  C   UNL     1       2.094  -0.994   3.697  0.00  0.00    +0.029 C 
BRANCH  20  22
ATOM     22  C   UNL     1       0.711  -2.286   5.299  0.00  0.00    +0.230 C 
ATOM     23  O   UNL     1       1.012  -3.449   5.466  0.00  0.00    -0.274 OA
ATOM     24  N   UNL     1       0.344  -1.528   6.351  0.00  0.00    -0.282 N 
ATOM     25  H   UNL     1       0.037  -0.618   6.209  0.00  0.00    +0.155 HD
BRANCH  24  26
ATOM     26  C   UNL     1       0.405  -2.052   7.649  0.00  0.00    +0.077 A 
ATOM     27  C   UNL     1       1.396  -2.962   7.985  0.00  0.00    +0.047 A 
ATOM     28  C   UNL     1       1.454  -3.478   9.267  0.00  0.00    +0.043 A 
ATOM     29  C   UNL     1       0.525  -3.089  10.215  0.00  0.00    +0.023 A 
ATOM     30  C   UNL     1      -0.466  -2.183   9.886  0.00  0.00    +0.049 A 
ATOM     31  C   UNL     1      -0.527  -1.657   8.606  0.00  0.00    +0.138 A 
ATOM     32 CL   UNL     1       2.695  -4.617   9.686  0.00  0.00    -0.083 Cl
BRANCH  31  33
ATOM     33  O   UNL     1      -1.497  -0.760   8.283  0.00  0.00    -0.505 OA
ATOM     34  H   UNL     1      -2.309  -1.164   7.947  0.00  0.00    +0.292 HD
ENDBRANCH  31  33
ENDBRANCH  24  26
ENDBRANCH  20  22
ENDBRANCH  19  20
ENDBRANCH   9  19
TORSDOF 7
