REMARK  Name = ZINC08822854
REMARK  7 active torsions:
REMARK  status: ('A' for Active; 'I' for Inactive)
REMARK    1  A    between atoms: C_1  and  C_2
REMARK    2  A    between atoms: C_8  and  C_10
REMARK    3  A    between atoms: C_10  and  S_11
REMARK    4  A    between atoms: S_11  and  C_12
REMARK    5  A    between atoms: C_18  and  C_20
REMARK    6  A    between atoms: C_21  and  C_32
REMARK    7  A    between atoms: C_24  and  C_25
REMARK                            x       y       z     vdW  Elec       q    Type
REMARK                         _______ _______ _______ _____ _____    ______ ____
ROOT
ATOM      1  C   UNL     1      -7.894   3.878   6.588  0.00  0.00    +0.160 A 
ATOM      2  N   UNL     1      -8.636   3.944   5.498  0.00  0.00    -0.133 NA
ATOM      3  N   UNL     1      -9.973   4.255   5.599  0.00  0.00    -0.125 NA
ATOM      4  C   UNL     1     -10.506   4.484   6.783  0.00  0.00    +0.189 A 
ATOM      5  S   UNL     1      -9.096   4.257   7.855  0.00  0.00    -0.024 S 
ATOM      6  N   UNL     1     -11.819   4.810   7.110  0.00  0.00    -0.259 N 
ATOM      7  C   UNL     1     -12.746   4.929   6.139  0.00  0.00    +0.255 C 
ATOM      8  O   UNL     1     -12.435   4.752   4.976  0.00  0.00    -0.270 OA
ATOM      9  H   UNL     1     -12.068   4.951   8.037  0.00  0.00    +0.157 HD
ENDROOT
BRANCH   7  10
ATOM     10  C   UNL     1     -14.135   5.273   6.485  0.00  0.00    +0.106 A 
ATOM     11  C   UNL     1     -14.732   6.509   6.501  0.00  0.00    +0.147 A 
ATOM     12  O   UNL     1     -15.999   6.315   6.876  0.00  0.00    -0.359 OA
ATOM     13  N   UNL     1     -16.261   5.158   7.097  0.00  0.00    -0.077 NA
ATOM     14  C   UNL     1     -15.230   4.375   6.908  0.00  0.00    +0.127 A 
ATOM     15  C   UNL     1     -14.086   7.826   6.158  0.00  0.00    +0.090 C 
BRANCH  14  16
ATOM     16  C   UNL     1     -15.173   2.903   7.079  0.00  0.00    +0.023 A 
ATOM     17  C   UNL     1     -14.591   2.106   6.094  0.00  0.00    +0.011 A 
ATOM     18  C   UNL     1     -14.540   0.737   6.259  0.00  0.00    +0.001 A 
ATOM     19  C   UNL     1     -15.066   0.154   7.399  0.00  0.00    +0.001 A 
ATOM     20  C   UNL     1     -15.644   0.938   8.379  0.00  0.00    +0.020 A 
ATOM     21  C   UNL     1     -15.696   2.311   8.228  0.00  0.00    +0.050 A 
ATOM     22 CL   UNL     1     -16.415   3.295   9.464  0.00  0.00    -0.083 Cl
ENDBRANCH  14  16
ENDBRANCH   7  10
BRANCH   1  23
ATOM     23  S   UNL     1      -6.180   3.507   6.751  0.00  0.00    -0.088 S 
BRANCH  23  24
ATOM     24  C   UNL     1      -5.628   3.226   5.046  0.00  0.00    +0.172 C 
BRANCH  24  32
ATOM     25  C   UNL     1       0.782   1.488   1.846  0.00  0.00    +0.066 C 
ATOM     26  C   UNL     1      -0.106   1.796   3.023  0.00  0.00    +0.047 A 
ATOM     27  C   UNL     1       0.391   1.801   4.284  0.00  0.00    +0.071 A 
ATOM     28  S   UNL     1      -1.076   2.217   5.217  0.00  0.00    -0.060 S 
ATOM     29  C   UNL     1      -2.170   2.340   3.874  0.00  0.00    +0.165 A 
ATOM     30  N   UNL     1      -1.383   2.074   2.850  0.00  0.00    -0.230 NA
ATOM     31  N   UNL     1      -3.526   2.645   3.878  0.00  0.00    -0.264 N 
ATOM     32  C   UNL     1      -4.158   2.894   5.042  0.00  0.00    +0.229 C 
ATOM     33  O   UNL     1      -3.543   2.852   6.087  0.00  0.00    -0.275 OA
ATOM     34  H   UNL     1      -4.018   2.679   3.042  0.00  0.00    +0.157 HD
ENDBRANCH  24  32
ENDBRANCH  23  24
ENDBRANCH   1  23
TORSDOF 5
