REMARK  Name = ZINC32594701
REMARK  10 active torsions:
REMARK  status: ('A' for Active; 'I' for Inactive)
REMARK    1  A    between atoms: C_1  and  C_2
REMARK    2  A    between atoms: C_2  and  O_3
REMARK    3  A    between atoms: O_3  and  C_4
REMARK    4  A    between atoms: C_4  and  C_6
REMARK    5  A    between atoms: C_9  and  N_12
REMARK    6  A    between atoms: C_17  and  C_31
REMARK    7  A    between atoms: C_31  and  O_33
REMARK    8  A    between atoms: O_33  and  C_34
REMARK    9  A    between atoms: C_34  and  C_35
REMARK   10  A    between atoms: C_34  and  C_36
REMARK                            x       y       z     vdW  Elec       q    Type
REMARK                         _______ _______ _______ _____ _____    ______ ____
ROOT
ATOM      1  N   UNL     1      -6.683  -4.065   0.045  0.00  0.00    -0.209 N 
ATOM      2  C   UNL     1      -6.917  -5.403   0.051  0.00  0.00    +0.232 C 
ATOM      3  O   UNL     1      -6.109  -6.284   0.252  0.00  0.00    -0.274 OA
ATOM      4  C   UNL     1      -8.375  -5.570  -0.242  0.00  0.00    +0.117 C 
ATOM      5  C   UNL     1      -9.121  -6.729   0.370  0.00  0.00    +0.150 C 
ATOM      6  C   UNL     1     -10.575  -6.604   0.009  0.00  0.00    +0.039 A 
ATOM      7  C   UNL     1     -11.269  -5.518  -0.396  0.00  0.00    +0.088 A 
ATOM      8  N   UNL     1     -12.595  -5.744  -0.669  0.00  0.00    -0.311 N 
ATOM      9  H   UNL     1     -13.158  -5.017  -0.976  0.00  0.00    +0.170 HD
ATOM     10  C   UNL     1     -13.114  -6.977  -0.509  0.00  0.00    +0.289 A 
ATOM     11  O   UNL     1     -14.259  -7.345  -0.701  0.00  0.00    -0.260 OA
ATOM     12  S   UNL     1     -11.800  -7.886   0.018  0.00  0.00    -0.030 S 
ATOM     13  S   UNL     1     -10.481  -3.920  -0.538  0.00  0.00    -0.093 S 
ATOM     14  C   UNL     1      -8.941  -4.256   0.375  0.00  0.00    +0.152 C 
ATOM     15  C   UNL     1      -7.814  -3.314   0.055  0.00  0.00    +0.240 C 
ATOM     16  O   UNL     1      -7.899  -2.123  -0.155  0.00  0.00    -0.274 OA
ENDROOT
BRANCH   1  20
ATOM     17  C   UNL     1      -2.852  -2.419   0.016  0.00  0.00    +0.059 A 
ATOM     18  C   UNL     1      -3.973  -1.584   0.026  0.00  0.00    +0.017 A 
ATOM     19  C   UNL     1      -5.237  -2.132   0.035  0.00  0.00    +0.025 A 
ATOM     20  C   UNL     1      -5.398  -3.513   0.035  0.00  0.00    +0.044 A 
ATOM     21  C   UNL     1      -4.285  -4.347   0.025  0.00  0.00    +0.025 A 
ATOM     22  C   UNL     1      -3.019  -3.807   0.010  0.00  0.00    +0.017 A 
BRANCH  17  23
ATOM     23  C   UNL     1      -1.497  -1.837   0.006  0.00  0.00    +0.339 C 
ATOM     24  O   UNL     1      -0.523  -2.564  -0.007  0.00  0.00    -0.245 OA
BRANCH  23  25
ATOM     25  O   UNL     1      -1.339  -0.499   0.012  0.00  0.00    -0.461 OA
BRANCH  25  27
ATOM     26  C   UNL     1      -0.019   1.526   0.010  0.00  0.00    +0.048 C 
ATOM     27  C   UNL     1       0.002  -0.004   0.002  0.00  0.00    +0.229 C 
ENDBRANCH  25  27
ENDBRANCH  23  25
ENDBRANCH  17  23
ENDBRANCH   1  20
BRANCH   5  28
ATOM     28  C   UNL     1      -8.572  -8.025  -0.166  0.00  0.00    +0.316 C 
ATOM     29  O   UNL     1      -7.666  -8.013  -0.965  0.00  0.00    -0.250 OA
BRANCH  28  30
ATOM     30  O   UNL     1      -9.089  -9.194   0.244  0.00  0.00    -0.461 OA
BRANCH  30  31
ATOM     31  C   UNL     1      -8.520 -10.384  -0.306  0.00  0.00    +0.170 C 
ATOM     32  C   UNL     1      -8.634 -11.521   0.711  0.00  0.00    +0.052 C 
ATOM     33  C   UNL     1      -9.270 -10.765  -1.583  0.00  0.00    +0.052 C 
ENDBRANCH  30  31
ENDBRANCH  28  30
ENDBRANCH   5  28
TORSDOF 7
