REMARK  Name = ZINC20875695
REMARK  10 active torsions:
REMARK  status: ('A' for Active; 'I' for Inactive)
REMARK    1  A    between atoms: C_1  and  C_2
REMARK    2  A    between atoms: C_2  and  C_4
REMARK    3  A    between atoms: C_2  and  O_23
REMARK    4  A    between atoms: C_4  and  N_5
REMARK    5  A    between atoms: N_5  and  C_6
REMARK    6  A    between atoms: C_6  and  C_7
REMARK    7  A    between atoms: C_7  and  N_8
REMARK    8  A    between atoms: N_8  and  C_9
REMARK    9  A    between atoms: C_9  and  C_10
REMARK   10  A    between atoms: C_13  and  C_15
REMARK                            x       y       z     vdW  Elec       q    Type
REMARK                         _______ _______ _______ _____ _____    ______ ____
ROOT
ATOM      1  C   UNL     1       1.379   3.503   0.008  0.00  0.00    -0.007 C 
ENDROOT
BRANCH   1   2
ATOM      2  C   UNL     1       2.806   3.987  -0.003  0.00  0.00    +0.089 A 
ATOM      3  C   UNL     1       3.541   4.240  -1.104  0.00  0.00    +0.043 A 
ATOM      4  C   UNL     1       4.809   4.670  -0.663  0.00  0.00    +0.050 A 
ATOM      5  C   UNL     1       4.779   4.648   0.696  0.00  0.00    +0.136 A 
ATOM      6  O   UNL     1       3.558   4.232   1.082  0.00  0.00    -0.462 OA
BRANCH   5   7
ATOM      7  C   UNL     1       5.894   5.017   1.594  0.00  0.00    +0.036 A 
ATOM      8  C   UNL     1       7.162   4.467   1.399  0.00  0.00    +0.014 A 
ATOM      9  C   UNL     1       8.200   4.819   2.236  0.00  0.00    +0.016 A 
ATOM     10  C   UNL     1       7.984   5.707   3.276  0.00  0.00    +0.019 A 
ATOM     11  C   UNL     1       6.728   6.252   3.479  0.00  0.00    +0.036 A 
ATOM     12  C   UNL     1       5.682   5.912   2.644  0.00  0.00    +0.053 A 
ATOM     13 CL   UNL     1       4.107   6.596   2.900  0.00  0.00    -0.083 Cl
ATOM     14 BR   UNL     1       9.411   6.178   4.424  0.00  0.00    -0.050 Br
ENDBRANCH   5   7
ENDBRANCH   1   2
BRANCH   1  15
ATOM     15  N   UNL     1       1.359   2.034   0.000  0.00  0.00    +0.383 N 
ATOM     16  H   UNL     1       1.891   1.670   0.891  0.00  0.00    -0.085 HD
ATOM     17  H   UNL     1       1.874   1.679  -0.905  0.00  0.00    -0.085 HD
BRANCH  15  18
ATOM     18  C   UNL     1      -0.019   1.526   0.010  0.00  0.00    -0.102 C 
BRANCH  18  19
ATOM     19  C   UNL     1       0.002  -0.004   0.002  0.00  0.00    -0.102 C 
BRANCH  19  20
ATOM     20  N   UNL     1      -1.376  -0.512   0.012  0.00  0.00    +0.379 N 
ATOM     21  H   UNL     1      -1.898  -0.134  -0.879  0.00  0.00    -0.086 HD
ATOM     22  H   UNL     1      -1.881  -0.144   0.917  0.00  0.00    -0.086 HD
BRANCH  20  23
ATOM     23  C   UNL     1      -1.395  -1.981   0.005  0.00  0.00    -0.051 C 
BRANCH  23  25
ATOM     24  C   UNL     1      -2.865  -3.998   0.134  0.00  0.00    +0.035 C 
ATOM     25  C   UNL     1      -2.844  -2.473   0.016  0.00  0.00    +0.095 C 
BRANCH  25  26
ATOM     26  O   UNL     1      -3.490  -2.080  -1.197  0.00  0.00    -0.394 OA
ATOM     27  H   UNL     1      -3.573  -1.014  -1.456  0.00  0.00    +0.210 HD
ENDBRANCH  25  26
ENDBRANCH  23  25
ENDBRANCH  20  23
ENDBRANCH  19  20
ENDBRANCH  18  19
ENDBRANCH  15  18
ENDBRANCH   1  15
TORSDOF 9
