REMARK  Name = ZINC34688246
REMARK  12 active torsions:
REMARK  status: ('A' for Active; 'I' for Inactive)
REMARK    1  A    between atoms: C_1  and  C_2
REMARK    2  A    between atoms: C_2  and  C_3
REMARK    3  A    between atoms: C_3  and  C_5
REMARK    4  A    between atoms: C_3  and  O_6
REMARK    5  A    between atoms: O_6  and  C_7
REMARK    6  A    between atoms: C_7  and  C_9
REMARK    7  A    between atoms: C_10  and  C_39
REMARK    8  A    between atoms: C_14  and  C_16
REMARK    9  A    between atoms: C_29  and  C_35
REMARK   10  A    between atoms: C_31  and  C_34
REMARK   11  A    between atoms: C_35  and  O_37
REMARK   12  A    between atoms: O_37  and  C_38
REMARK                            x       y       z     vdW  Elec       q    Type
REMARK                         _______ _______ _______ _____ _____    ______ ____
ROOT
ATOM      1  C   UNL     1       0.344   0.317   4.832  0.00  0.00    +0.065 C 
ATOM      2  C   UNL     1       1.058   0.514   5.954  0.00  0.00    +0.016 C 
ATOM      3  N   UNL     1       0.429   0.805   7.132  0.00  0.00    -0.321 N 
ATOM      4  C   UNL     1      -0.853   1.286   7.140  0.00  0.00    +0.016 C 
ATOM      5  C   UNL     1      -1.651   1.125   6.063  0.00  0.00    +0.025 C 
ATOM      6  C   UNL     1      -1.154   0.407   4.836  0.00  0.00    +0.099 C 
ATOM      7  C   UNL     1      -2.964   1.628   6.052  0.00  0.00    +0.176 C 
ATOM      8  O   UNL     1      -3.659   1.459   5.070  0.00  0.00    -0.291 OA
ATOM      9  C   UNL     1      -3.524   2.371   7.234  0.00  0.00    +0.171 C 
ATOM     10  C   UNL     1      -2.376   3.057   7.982  0.00  0.00    +0.013 C 
ATOM     11  C   UNL     1      -1.349   1.993   8.377  0.00  0.00    +0.055 C 
ATOM     12  C   UNL     1      -1.720   4.099   7.073  0.00  0.00    +0.009 C 
ATOM     13  C   UNL     1       2.561   0.414   5.912  0.00  0.00    +0.061 C 
ATOM     14  H   UNL     1       0.896   0.669   7.972  0.00  0.00    +0.152 HD
ENDROOT
BRANCH   6  15
ATOM     15  C   UNL     1      -1.733  -0.984   4.814  0.00  0.00    +0.047 A 
ATOM     16  C   UNL     1      -2.527  -1.371   3.800  0.00  0.00    +0.204 A 
ATOM     17  O   UNL     1      -3.070  -2.591   3.727  0.00  0.00    -0.462 OA
ATOM     18  C   UNL     1      -2.860  -3.532   4.670  0.00  0.00    +0.138 A 
ATOM     19  C   UNL     1      -3.438  -4.792   4.565  0.00  0.00    +0.047 A 
ATOM     20  C   UNL     1      -3.209  -5.737   5.542  0.00  0.00    +0.004 A 
ATOM     21  C   UNL     1      -2.405  -5.446   6.634  0.00  0.00    +0.001 A 
ATOM     22  C   UNL     1      -1.823  -4.204   6.758  0.00  0.00    +0.015 A 
ATOM     23  C   UNL     1      -2.046  -3.239   5.776  0.00  0.00    +0.064 A 
ATOM     24  C   UNL     1      -1.440  -1.897   5.862  0.00  0.00    +0.197 A 
ATOM     25  O   UNL     1      -0.720  -1.583   6.795  0.00  0.00    -0.287 OA
ENDBRANCH   6  15
BRANCH   1  26
ATOM     26  C   UNL     1       1.018   0.024   3.623  0.00  0.00    +0.338 C 
ATOM     27  O   UNL     1       2.232   0.095   3.571  0.00  0.00    -0.245 OA
BRANCH  26  28
ATOM     28  O   UNL     1       0.315  -0.333   2.528  0.00  0.00    -0.458 OA
BRANCH  28  29
ATOM     29  C   UNL     1       1.061  -0.614   1.342  0.00  0.00    +0.173 C 
ATOM     30  C   UNL     1       1.424  -2.100   1.309  0.00  0.00    +0.052 C 
BRANCH  29  32
ATOM     31  C   UNL     1      -0.043   1.240   0.082  0.00  0.00    +0.007 C 
ATOM     32  C   UNL     1       0.216  -0.268   0.115  0.00  0.00    +0.041 C 
ENDBRANCH  29  32
ENDBRANCH  28  29
ENDBRANCH  26  28
ENDBRANCH   1  26
BRANCH   9  33
ATOM     33  C   UNL     1      -4.508   3.408   6.757  0.00  0.00    +0.318 C 
ATOM     34  O   UNL     1      -4.308   4.000   5.723  0.00  0.00    -0.250 OA
BRANCH  33  35
ATOM     35  O   UNL     1      -5.607   3.674   7.481  0.00  0.00    -0.467 OA
ATOM     36  C   UNL     1      -6.496   4.669   6.969  0.00  0.00    +0.280 C 
ENDBRANCH  33  35
ENDBRANCH   9  33
TORSDOF 7
