REMARK  Name = ZINC03034066
REMARK  11 active torsions:
REMARK  status: ('A' for Active; 'I' for Inactive)
REMARK    1  A    between atoms: C_1  and  C_2
REMARK    2  A    between atoms: C_2  and  N_58
REMARK    3  A    between atoms: C_3  and  C_4
REMARK    4  A    between atoms: C_3  and  N_58
REMARK    5  A    between atoms: C_5  and  C_6
REMARK    6  A    between atoms: C_5  and  N_58
REMARK    7  A    between atoms: C_6  and  N_7
REMARK    8  A    between atoms: N_12  and  C_24
REMARK    9  A    between atoms: C_13  and  S_15
REMARK   10  A    between atoms: S_15  and  C_16
REMARK   11  A    between atoms: C_16  and  C_17
REMARK                            x       y       z     vdW  Elec       q    Type
REMARK                         _______ _______ _______ _____ _____    ______ ____
ROOT
ATOM      1  N   UNL     1       6.667   4.083  -0.036  0.00  0.00    -0.315 N 
ATOM      2  C   UNL     1       5.412   3.575   0.182  0.00  0.00    +0.157 A 
ATOM      3  C   UNL     1       5.323   2.186   0.295  0.00  0.00    +0.122 A 
ATOM      4  C   UNL     1       4.113   1.544   0.516  0.00  0.00    +0.275 A 
ATOM      5  O   UNL     1       4.057   0.328   0.611  0.00  0.00    -0.266 OA
ATOM      6  N   UNL     1       2.995   2.302   0.623  0.00  0.00    -0.255 N 
ATOM      7  C   UNL     1       3.103   3.657   0.504  0.00  0.00    +0.178 A 
ATOM      8  N   UNL     1       4.248   4.260   0.301  0.00  0.00    -0.204 NA
ATOM      9  S   UNL     1       7.004   1.655   0.090  0.00  0.00    -0.055 S 
ATOM     10  C   UNL     1       7.737   3.268  -0.133  0.00  0.00    +0.128 A 
ATOM     11  S   UNL     1       9.378   3.676  -0.400  0.00  0.00    -0.025 S 
ENDROOT
BRANCH   6  12
ATOM     12  C   UNL     1       1.748   1.704   0.847  0.00  0.00    +0.052 A 
ATOM     13  C   UNL     1       1.126   0.990  -0.169  0.00  0.00    +0.026 A 
ATOM     14  C   UNL     1      -0.103   0.402   0.054  0.00  0.00    +0.002 A 
ATOM     15  C   UNL     1      -0.716   0.523   1.288  0.00  0.00    +0.000 A 
ATOM     16  C   UNL     1      -0.100   1.234   2.302  0.00  0.00    +0.002 A 
ATOM     17  C   UNL     1       1.130   1.824   2.085  0.00  0.00    +0.026 A 
ENDBRANCH   6  12
BRANCH   1  18
ATOM     18  C   UNL     1       6.847   5.532  -0.167  0.00  0.00    +0.106 C 
BRANCH  18  19
ATOM     19  C   UNL     1       7.117   6.138   1.212  0.00  0.00    -0.057 C 
BRANCH  19  20
ATOM     20  N   UNL     1       7.317   7.595   1.061  0.00  0.00    +0.380 N 
ATOM     21  H   UNL     1       8.026   7.760   0.337  0.00  0.00    -0.082 HD
BRANCH  20  23
ATOM     22  C   UNL     1       4.984   8.061   1.732  0.00  0.00    -0.017 C 
ATOM     23  C   UNL     1       6.052   8.239   0.651  0.00  0.00    -0.082 C 
ENDBRANCH  20  23
BRANCH  20  24
ATOM     24  C   UNL     1       7.790   8.174   2.336  0.00  0.00    -0.082 C 
ATOM     25  C   UNL     1       8.166   9.639   2.104  0.00  0.00    -0.017 C 
ENDBRANCH  20  24
ENDBRANCH  19  20
ENDBRANCH  18  19
ENDBRANCH   1  18
BRANCH   7  26
ATOM     26  S   UNL     1       1.645   4.637   0.637  0.00  0.00    -0.083 S 
BRANCH  26  27
ATOM     27  C   UNL     1       2.352   6.287   0.410  0.00  0.00    +0.112 C 
BRANCH  27  28
ATOM     28  C   UNL     1       1.256   7.319   0.488  0.00  0.00    -0.037 A 
ATOM     29  C   UNL     1       0.589   7.705  -0.660  0.00  0.00    +0.006 A 
ATOM     30  C   UNL     1      -0.420   8.647  -0.589  0.00  0.00    +0.020 A 
ATOM     31  C   UNL     1      -0.755   9.211   0.630  0.00  0.00    +0.041 A 
ATOM     32  C   UNL     1      -0.083   8.828   1.777  0.00  0.00    +0.020 A 
ATOM     33  C   UNL     1       0.922   7.882   1.705  0.00  0.00    +0.006 A 
ATOM     34 CL   UNL     1      -2.018  10.399   0.719  0.00  0.00    -0.084 Cl
ENDBRANCH  27  28
ENDBRANCH  26  27
ENDBRANCH   7  26
TORSDOF 9
