REMARK  Name = ZINC13065283
REMARK  13 active torsions:
REMARK  status: ('A' for Active; 'I' for Inactive)
REMARK    1  A    between atoms: C_1  and  C_2
REMARK    2  A    between atoms: C_2  and  C_3
REMARK    3  A    between atoms: C_3  and  C_5
REMARK    4  A    between atoms: C_3  and  N_69
REMARK    5  A    between atoms: N_9  and  C_10
REMARK    6  A    between atoms: C_10  and  C_11
REMARK    7  A    between atoms: C_16  and  C_17
REMARK    8  A    between atoms: C_16  and  N_69
REMARK    9  A    between atoms: C_17  and  C_18
REMARK   10  A    between atoms: C_24  and  C_25
REMARK   11  A    between atoms: C_24  and  N_69
REMARK   12  A    between atoms: C_28  and  C_38
REMARK   13  A    between atoms: C_31  and  C_37
REMARK                            x       y       z     vdW  Elec       q    Type
REMARK                         _______ _______ _______ _____ _____    ______ ____
ROOT
ATOM      1  N   UNL     1       1.212   1.977  -0.044  0.00  0.00    +0.389 N 
ATOM      2  H   UNL     1       1.435   1.773   0.938  0.00  0.00    -0.080 HD
ENDROOT
BRANCH   1   3
ATOM      3  C   UNL     1      -0.123   1.425  -0.358  0.00  0.00    +0.003 C 
BRANCH   3   4
ATOM      4  C   UNL     1      -0.292   0.124   0.383  0.00  0.00    +0.139 A 
ATOM      5  N   UNL     1       0.582  -0.850   0.464  0.00  0.00    -0.115 NA
ATOM      6  N   UNL     1       0.068  -1.786   1.185  0.00  0.00    -0.023 NA
ATOM      7  N   UNL     1      -1.113  -1.438   1.560  0.00  0.00    -0.044 NA
ATOM      8  N   UNL     1      -1.372  -0.267   1.085  0.00  0.00    -0.223 N 
BRANCH   8   9
ATOM      9  C   UNL     1      -2.608   0.495   1.275  0.00  0.00    +0.221 C 
BRANCH   9  10
ATOM     10  C   UNL     1      -3.578   0.162   0.171  0.00  0.00    +0.126 A 
ATOM     11  C   UNL     1      -4.489  -0.827   0.195  0.00  0.00    +0.046 A 
ATOM     12  C   UNL     1      -5.181  -0.778  -1.037  0.00  0.00    +0.041 A 
ATOM     13  C   UNL     1      -4.646   0.234  -1.744  0.00  0.00    +0.195 A 
ATOM     14  O   UNL     1      -3.676   0.800  -1.008  0.00  0.00    -0.466 OA
ENDBRANCH   9  10
ENDBRANCH   8   9
ENDBRANCH   3   4
BRANCH   3  16
ATOM     15  C   UNL     1      -0.229   2.515  -2.603  0.00  0.00    +0.002 C 
ATOM     16  C   UNL     1      -0.258   1.177  -1.861  0.00  0.00    -0.011 C 
ENDBRANCH   3  16
ENDBRANCH   1   3
BRANCH   1  17
ATOM     17  C   UNL     1       2.234   1.350  -0.908  0.00  0.00    -0.073 C 
BRANCH  17  18
ATOM     18  C   UNL     1       3.618   1.640  -0.323  0.00  0.00    +0.016 C 
BRANCH  18  19
ATOM     19  C   UNL     1       4.677   1.086  -1.240  0.00  0.00    -0.049 A 
ATOM     20  C   UNL     1       5.063  -0.237  -1.132  0.00  0.00    +0.003 A 
ATOM     21  C   UNL     1       6.031  -0.746  -1.978  0.00  0.00    +0.000 A 
ATOM     22  C   UNL     1       6.621   0.071  -2.924  0.00  0.00    +0.000 A 
ATOM     23  C   UNL     1       6.240   1.396  -3.028  0.00  0.00    +0.000 A 
ATOM     24  C   UNL     1       5.268   1.903  -2.187  0.00  0.00    +0.003 A 
ENDBRANCH  18  19
ENDBRANCH  17  18
ENDBRANCH   1  17
BRANCH   1  25
ATOM     25  C   UNL     1       1.212   3.442  -0.242  0.00  0.00    -0.037 C 
BRANCH  25  26
ATOM     26  C   UNL     1       0.587   4.091   0.965  0.00  0.00    +0.001 A 
ATOM     27  C   UNL     1       1.367   4.479   2.005  0.00  0.00    +0.017 A 
ATOM     28  C   UNL     1       0.728   5.112   3.160  0.00  0.00    +0.002 A 
ATOM     29  C   UNL     1       1.481   5.538   4.260  0.00  0.00    -0.041 A 
ATOM     30  C   UNL     1       0.854   6.121   5.324  0.00  0.00    +0.004 A 
ATOM     31  C   UNL     1      -0.523   6.294   5.325  0.00  0.00    +0.005 A 
ATOM     32  C   UNL     1      -1.285   5.882   4.253  0.00  0.00    -0.026 A 
ATOM     33  C   UNL     1      -0.669   5.286   3.158  0.00  0.00    +0.052 A 
ATOM     34  N   UNL     1      -1.406   4.865   2.071  0.00  0.00    -0.322 N 
ATOM     35  H   UNL     1      -2.368   4.986   2.071  0.00  0.00    +0.169 HD
ATOM     36  C   UNL     1      -0.810   4.289   1.012  0.00  0.00    +0.251 A 
ATOM     37  O   UNL     1      -1.493   3.928   0.070  0.00  0.00    -0.268 OA
ATOM     38  C   UNL     1      -2.779   6.076   4.268  0.00  0.00    +0.046 C 
ATOM     39  C   UNL     1       2.977   5.355   4.269  0.00  0.00    +0.044 C 
ENDBRANCH  25  26
ENDBRANCH   1  25
TORSDOF 10
