REMARK  Name = ZINC24982809
REMARK  7 active torsions:
REMARK  status: ('A' for Active; 'I' for Inactive)
REMARK    1  A    between atoms: C_1  and  N_2
REMARK    2  A    between atoms: N_2  and  C_3
REMARK    3  A    between atoms: N_2  and  C_4
REMARK    4  A    between atoms: C_4  and  C_11
REMARK    5  A    between atoms: C_11  and  N_12
REMARK    6  A    between atoms: C_13  and  C_15
REMARK    7  A    between atoms: C_15  and  N_16
REMARK                            x       y       z     vdW  Elec       q    Type
REMARK                         _______ _______ _______ _____ _____    ______ ____
ROOT
ATOM      1  N   UNL     1      -5.729   2.411   1.112  0.00  0.00    -0.315 N 
ATOM      2  C   UNL     1      -4.746   3.120   0.523  0.00  0.00    +0.233 C 
ATOM      3  O   UNL     1      -3.652   3.188   1.042  0.00  0.00    -0.274 OA
ATOM      4  H   UNL     1      -6.721   2.349   0.642  0.00  0.00    +0.149 HD
ENDROOT
BRANCH   1   5
ATOM      5  C   UNL     1      -5.476   1.722   2.380  0.00  0.00    +0.092 C 
BRANCH   5   6
ATOM      6  C   UNL     1      -6.778   1.105   2.895  0.00  0.00    -0.050 C 
ATOM      7  C   UNL     1      -6.840   1.232   4.393  0.00  0.00    -0.010 C 
ATOM      8  C   UNL     1      -5.443   1.326   5.035  0.00  0.00    -0.001 C 
ATOM      9  C   UNL     1      -4.429   0.351   4.405  0.00  0.00    -0.000 C 
ATOM     10  C   UNL     1      -5.024  -1.005   4.138  0.00  0.00    -0.000 C 
ATOM     11  C   UNL     1      -5.529  -1.040   2.681  0.00  0.00    -0.001 C 
ATOM     12  C   UNL     1      -6.824  -0.392   2.527  0.00  0.00    -0.010 C 
BRANCH   6  14
ATOM     13  C   UNL     1      -9.189   1.160   2.679  0.00  0.00    -0.096 C 
ATOM     14  N   UNL     1      -7.924   1.797   2.289  0.00  0.00    +0.381 N 
ATOM     15  C   UNL     1      -7.923   3.224   2.640  0.00  0.00    -0.096 C 
ATOM     16  H   UNL     1      -7.828   1.717   1.196  0.00  0.00    -0.082 HD
ENDBRANCH   6  14
ENDBRANCH   5   6
ENDBRANCH   1   5
BRANCH   2  17
ATOM     17  C   UNL     1      -5.007   3.829  -0.781  0.00  0.00    +0.218 C 
BRANCH  17  18
ATOM     18  N   UNL     1      -3.790   4.523  -1.212  0.00  0.00    -0.331 N 
ATOM     19  C   UNL     1      -2.892   3.850  -2.011  0.00  0.00    +0.054 A 
ATOM     20  C   UNL     1      -3.150   2.537  -2.401  0.00  0.00    +0.026 A 
ATOM     21  C   UNL     1      -2.248   1.865  -3.195  0.00  0.00    +0.002 A 
ATOM     22  C   UNL     1      -1.083   2.484  -3.625  0.00  0.00    +0.001 A 
ATOM     23  C   UNL     1      -0.810   3.778  -3.259  0.00  0.00    +0.014 A 
ATOM     24  C   UNL     1      -1.711   4.473  -2.450  0.00  0.00    +0.046 A 
ATOM     25  C   UNL     1      -1.439   5.864  -2.043  0.00  0.00    +0.197 A 
ATOM     26  O   UNL     1      -0.428   6.440  -2.401  0.00  0.00    -0.287 OA
ATOM     27  C   UNL     1      -2.438   6.530  -1.187  0.00  0.00    +0.046 A 
ATOM     28  C   UNL     1      -3.588   5.822  -0.801  0.00  0.00    +0.054 A 
ATOM     29  C   UNL     1      -4.532   6.454   0.008  0.00  0.00    +0.026 A 
ATOM     30  C   UNL     1      -4.328   7.753   0.419  0.00  0.00    +0.002 A 
ATOM     31  C   UNL     1      -3.189   8.447   0.035  0.00  0.00    +0.001 A 
ATOM     32  C   UNL     1      -2.248   7.846  -0.762  0.00  0.00    +0.014 A 
ENDBRANCH  17  18
ENDBRANCH   2  17
TORSDOF 5
