REMARK  Name = ZINC09823765
REMARK  6 active torsions:
REMARK  status: ('A' for Active; 'I' for Inactive)
REMARK    1  A    between atoms: C_7  and  C_15
REMARK    2  A    between atoms: N_17  and  C_18
REMARK    3  A    between atoms: C_18  and  C_19
REMARK    4  A    between atoms: C_19  and  N_20
REMARK    5  A    between atoms: N_27  and  C_30
REMARK    6  A    between atoms: C_30  and  C_31
REMARK                            x       y       z     vdW  Elec       q    Type
REMARK                         _______ _______ _______ _____ _____    ______ ____
ROOT
ATOM      1  C   UNL     1      -0.019   1.526   0.010  0.00  0.00    +0.127 C 
ENDROOT
BRANCH   1   4
ATOM      2  C   UNL     1       1.584   3.361   0.005  0.00  0.00    +0.225 C 
ATOM      3  O   UNL     1       0.652   4.137   0.018  0.00  0.00    -0.275 OA
ATOM      4  N   UNL     1       1.356   2.033   0.000  0.00  0.00    -0.313 N 
ATOM      5  H   UNL     1       2.102   1.413  -0.010  0.00  0.00    +0.149 HD
BRANCH   2  12
ATOM      6  C   UNL     1       2.670   7.439  -1.212  0.00  0.00    +0.001 A 
ATOM      7  C   UNL     1       2.916   8.157  -0.056  0.00  0.00    +0.004 A 
ATOM      8  C   UNL     1       3.190   7.493   1.123  0.00  0.00    +0.046 A 
ATOM      9  C   UNL     1       3.219   6.103   1.150  0.00  0.00    +0.133 A 
ATOM     10  C   UNL     1       2.972   5.387  -0.010  0.00  0.00    +0.011 A 
ATOM     11  C   UNL     1       2.698   6.058  -1.188  0.00  0.00    +0.008 A 
ATOM     12  C   UNL     1       2.998   3.883  -0.006  0.00  0.00    +0.142 C 
ATOM     13  C   UNL     1       3.725   3.372   1.208  0.00  0.00    +0.011 A 
ATOM     14  C   UNL     1       4.188   2.067   1.222  0.00  0.00    +0.008 A 
ATOM     15  C   UNL     1       4.859   1.579   2.327  0.00  0.00    +0.001 A 
ATOM     16  C   UNL     1       5.070   2.394   3.425  0.00  0.00    +0.004 A 
ATOM     17  C   UNL     1       4.609   3.695   3.416  0.00  0.00    +0.046 A 
ATOM     18  C   UNL     1       3.934   4.189   2.306  0.00  0.00    +0.133 A 
ATOM     19  O   UNL     1       3.490   5.469   2.316  0.00  0.00    -0.455 OA
ENDBRANCH   2  12
ENDBRANCH   1   4
BRANCH   1  20
ATOM     20  C   UNL     1       0.002  -0.004   0.002  0.00  0.00    +0.164 C 
BRANCH  20  21
ATOM     21  N   UNL     1      -1.372  -0.511   0.012  0.00  0.00    -0.245 N 
ATOM     22  C   UNL     1      -2.129  -0.781  -1.083  0.00  0.00    +0.165 A 
ATOM     23  C   UNL     1      -3.368  -1.242  -0.611  0.00  0.00    +0.103 A 
ATOM     24  C   UNL     1      -3.309  -1.232   0.795  0.00  0.00    +0.150 A 
ATOM     25  N   UNL     1      -2.129  -0.807   1.153  0.00  0.00    -0.177 NA
ATOM     26  C   UNL     1      -4.387  -1.610  -1.594  0.00  0.00    +0.265 A 
ATOM     27  O   UNL     1      -5.481  -2.018  -1.247  0.00  0.00    -0.267 OA
ATOM     28  N   UNL     1      -4.068  -1.480  -2.903  0.00  0.00    -0.294 N 
ATOM     29  C   UNL     1      -2.843  -1.024  -3.267  0.00  0.00    +0.204 A 
ATOM     30  N   UNL     1      -1.925  -0.693  -2.407  0.00  0.00    -0.218 NA
BRANCH  28  31
ATOM     31  C   UNL     1      -5.050  -1.834  -3.931  0.00  0.00    +0.161 C 
BRANCH  31  32
ATOM     32  C   UNL     1      -4.894  -3.288  -4.296  0.00  0.00    -0.028 A 
ATOM     33  C   UNL     1      -4.041  -3.656  -5.319  0.00  0.00    +0.007 A 
ATOM     34  C   UNL     1      -3.894  -4.990  -5.650  0.00  0.00    +0.020 A 
ATOM     35  C   UNL     1      -4.609  -5.955  -4.964  0.00  0.00    +0.041 A 
ATOM     36  C   UNL     1      -5.467  -5.586  -3.943  0.00  0.00    +0.020 A 
ATOM     37  C   UNL     1      -5.609  -4.252  -3.610  0.00  0.00    +0.007 A 
ATOM     38 CL   UNL     1      -4.429  -7.630  -5.383  0.00  0.00    -0.084 Cl
ENDBRANCH  31  32
ENDBRANCH  28  31
ENDBRANCH  20  21
ENDBRANCH   1  20
TORSDOF 6
