REMARK  Name = ZINC08913160
REMARK  9 active torsions:
REMARK  status: ('A' for Active; 'I' for Inactive)
REMARK    1  A    between atoms: C_1  and  C_2
REMARK    2  A    between atoms: C_3  and  C_14
REMARK    3  A    between atoms: C_5  and  C_7
REMARK    4  A    between atoms: C_14  and  N_15
REMARK    5  A    between atoms: C_23  and  S_24
REMARK    6  A    between atoms: S_24  and  C_25
REMARK    7  A    between atoms: C_25  and  C_26
REMARK    8  A    between atoms: C_29  and  O_32
REMARK    9  A    between atoms: O_32  and  C_33
REMARK                            x       y       z     vdW  Elec       q    Type
REMARK                         _______ _______ _______ _____ _____    ______ ____
ROOT
ATOM      1  N   UNL     1       4.198   0.783  -0.982  0.00  0.00    -0.311 N 
ATOM      2  C   UNL     1       4.549  -0.370  -1.663  0.00  0.00    +0.088 A 
ATOM      3  C   UNL     1       4.428  -1.726  -1.415  0.00  0.00    +0.138 A 
ATOM      4  N   UNL     1       4.878  -2.604  -2.292  0.00  0.00    -0.261 NA
ATOM      5  C   UNL     1       5.454  -2.240  -3.425  0.00  0.00    +0.113 A 
ATOM      6  C   UNL     1       5.609  -0.923  -3.755  0.00  0.00    +0.049 A 
ATOM      7  C   UNL     1       5.154   0.055  -2.862  0.00  0.00    +0.093 A 
ATOM      8  N   UNL     1       5.153   1.407  -2.855  0.00  0.00    -0.222 NA
ATOM      9  C   UNL     1       4.591   1.841  -1.751  0.00  0.00    +0.171 A 
ENDROOT
BRANCH   1  10
ATOM     10  C   UNL     1       3.534   0.854   0.322  0.00  0.00    +0.183 C 
BRANCH  10  13
ATOM     11  C   UNL     1       1.466  -1.490   0.372  0.00  0.00    +0.088 C 
ATOM     12  C   UNL     1       1.157  -0.032   0.144  0.00  0.00    +0.127 A 
ATOM     13  C   UNL     1       2.045   0.978   0.122  0.00  0.00    +0.102 A 
ATOM     14  N   UNL     1       1.371   2.114  -0.109  0.00  0.00    -0.212 NA
ATOM     15  C   UNL     1       0.096   1.828  -0.229  0.00  0.00    +0.228 A 
ATOM     16  O   UNL     1      -0.061   0.502  -0.076  0.00  0.00    -0.440 OA
BRANCH  15  17
ATOM     17  C   UNL     1      -0.986   2.800  -0.490  0.00  0.00    +0.037 A 
ATOM     18  C   UNL     1      -0.691   4.158  -0.624  0.00  0.00    +0.014 A 
ATOM     19  C   UNL     1      -1.704   5.060  -0.873  0.00  0.00    +0.021 A 
ATOM     20  C   UNL     1      -3.014   4.623  -0.978  0.00  0.00    +0.041 A 
ATOM     21  C   UNL     1      -3.314   3.278  -0.840  0.00  0.00    +0.021 A 
ATOM     22  C   UNL     1      -2.309   2.366  -0.596  0.00  0.00    +0.014 A 
ATOM     23 CL   UNL     1      -4.285   5.766  -1.283  0.00  0.00    -0.084 Cl
ENDBRANCH  15  17
ENDBRANCH  10  13
ENDBRANCH   1  10
BRANCH   9  24
ATOM     24  S   UNL     1       4.375   3.537  -1.324  0.00  0.00    -0.083 S 
BRANCH  24  25
ATOM     25  C   UNL     1       5.117   4.324  -2.776  0.00  0.00    +0.112 C 
BRANCH  25  26
ATOM     26  C   UNL     1       5.044   5.822  -2.628  0.00  0.00    -0.037 A 
ATOM     27  C   UNL     1       3.945   6.510  -3.110  0.00  0.00    +0.008 A 
ATOM     28  C   UNL     1       3.873   7.882  -2.971  0.00  0.00    +0.046 A 
ATOM     29  C   UNL     1       4.909   8.571  -2.357  0.00  0.00    +0.120 A 
ATOM     30  C   UNL     1       6.013   7.879  -1.880  0.00  0.00    +0.046 A 
ATOM     31  C   UNL     1       6.077   6.506  -2.016  0.00  0.00    +0.008 A 
BRANCH  29  32
ATOM     32  O   UNL     1       4.843   9.922  -2.224  0.00  0.00    -0.495 OA
ATOM     33  C   UNL     1       3.677  10.569  -2.739  0.00  0.00    +0.277 C 
ENDBRANCH  29  32
ENDBRANCH  25  26
ENDBRANCH  24  25
ENDBRANCH   9  24
TORSDOF 7
