REMARK  Name = ZINC04502027
REMARK  6 active torsions:
REMARK  status: ('A' for Active; 'I' for Inactive)
REMARK    1  A    between atoms: C_1  and  C_2
REMARK    2  A    between atoms: C_4  and  C_24
REMARK    3  A    between atoms: C_6  and  N_8
REMARK    4  A    between atoms: C_9  and  C_11
REMARK    5  A    between atoms: C_11  and  C_22
REMARK    6  A    between atoms: C_12  and  C_13
REMARK                            x       y       z     vdW  Elec       q    Type
REMARK                         _______ _______ _______ _____ _____    ______ ____
ROOT
ATOM      1  C   UNL     1       4.862   4.256   0.121  0.00  0.00    +0.114 C 
ATOM      2  C   UNL     1       4.824   5.588  -0.228  0.00  0.00    +0.032 C 
ENDROOT
BRANCH   2   3
ATOM      3  C   UNL     1       3.552   6.313  -0.213  0.00  0.00    -0.020 A 
ATOM      4  C   UNL     1       2.393   5.712  -0.723  0.00  0.00    +0.012 A 
ATOM      5  C   UNL     1       1.198   6.394  -0.703  0.00  0.00    +0.050 A 
ATOM      6  C   UNL     1       1.136   7.684  -0.188  0.00  0.00    +0.166 A 
ATOM      7  C   UNL     1       2.288   8.293   0.318  0.00  0.00    +0.167 A 
ATOM      8  C   UNL     1       3.489   7.614   0.307  0.00  0.00    +0.057 A 
ATOM      9  O   UNL     1       1.960   9.543   0.759  0.00  0.00    -0.453 OA
ATOM     10  C   UNL     1       0.527   9.539   0.894  0.00  0.00    +0.466 C 
ATOM     11  O   UNL     1       0.094   8.554  -0.062  0.00  0.00    -0.453 OA
ENDBRANCH   2   3
BRANCH   1  13
ATOM     12  N   UNL     1       3.673   2.299   0.971  0.00  0.00    -0.281 N 
ATOM     13  C   UNL     1       3.698   3.631   0.768  0.00  0.00    +0.259 C 
ATOM     14  O   UNL     1       2.756   4.318   1.119  0.00  0.00    -0.269 OA
ATOM     15  H   UNL     1       4.452   1.762   0.755  0.00  0.00    +0.155 HD
BRANCH  12  21
ATOM     16  C   UNL     1       0.623  -1.552   1.123  0.00  0.00    +0.044 C 
ATOM     17  C   UNL     1       1.022  -0.173   1.581  0.00  0.00    -0.048 A 
ATOM     18  C   UNL     1       0.257   0.491   2.523  0.00  0.00    +0.006 A 
ATOM     19  C   UNL     1       0.624   1.754   2.949  0.00  0.00    -0.048 A 
ATOM     20  C   UNL     1       1.756   2.357   2.437  0.00  0.00    +0.026 A 
ATOM     21  C   UNL     1       2.526   1.692   1.492  0.00  0.00    +0.034 A 
ATOM     22  C   UNL     1       2.156   0.424   1.065  0.00  0.00    +0.026 A 
ATOM     23  C   UNL     1      -0.214   2.474   3.975  0.00  0.00    +0.044 C 
ENDBRANCH  12  21
ENDBRANCH   1  13
BRANCH   1  24
ATOM     24  C   UNL     1       6.035   3.479  -0.146  0.00  0.00    +0.104 C 
ATOM     25  N   UNL     1       6.965   2.863  -0.357  0.00  0.00    -0.191 NA
ENDBRANCH   1  24
TORSDOF 4
