REMARK  Name = ZINC28717474
REMARK  9 active torsions:
REMARK  status: ('A' for Active; 'I' for Inactive)
REMARK    1  A    between atoms: C_1  and  C_2
REMARK    2  A    between atoms: C_6  and  C_8
REMARK    3  A    between atoms: N_10  and  C_11
REMARK    4  A    between atoms: C_11  and  C_13
REMARK    5  A    between atoms: C_11  and  C_16
REMARK    6  A    between atoms: C_13  and  C_14
REMARK    7  A    between atoms: C_13  and  C_15
REMARK    8  A    between atoms: N_18  and  N_19
REMARK    9  A    between atoms: C_20  and  C_22
REMARK                            x       y       z     vdW  Elec       q    Type
REMARK                         _______ _______ _______ _____ _____    ______ ____
ROOT
ATOM      1  C   UNL     1       1.098   7.459   0.008  0.00  0.00    +0.163 C 
ENDROOT
BRANCH   1   4
ATOM      2  C   UNL     1       0.374   5.240  -0.691  0.00  0.00    +0.245 C 
ATOM      3  O   UNL     1      -0.775   5.636  -0.654  0.00  0.00    -0.270 OA
ATOM      4  N   UNL     1       1.385   6.075  -0.378  0.00  0.00    -0.300 N 
ATOM      5  H   UNL     1       2.424   5.717  -0.411  0.00  0.00    +0.150 HD
BRANCH   2  11
ATOM      6  C   UNL     1      -1.231   0.741  -2.133  0.00  0.00    +0.044 C 
ATOM      7  C   UNL     1      -0.105   1.676  -1.774  0.00  0.00    -0.050 A 
ATOM      8  C   UNL     1       1.203   1.227  -1.810  0.00  0.00    +0.003 A 
ATOM      9  C   UNL     1       2.243   2.081  -1.488  0.00  0.00    +0.001 A 
ATOM     10  C   UNL     1       1.980   3.386  -1.124  0.00  0.00    +0.013 A 
ATOM     11  C   UNL     1       0.662   3.843  -1.080  0.00  0.00    +0.037 A 
ATOM     12  C   UNL     1      -0.382   2.976  -1.406  0.00  0.00    +0.016 A 
ENDBRANCH   2  11
ENDBRANCH   1   4
BRANCH   1  13
ATOM     13  C   UNL     1       2.300   8.320  -0.285  0.00  0.00    +0.250 C 
ATOM     14  O   UNL     1       3.412   7.836  -0.271  0.00  0.00    -0.272 OA
ATOM     15  N   UNL     1       2.139   9.629  -0.563  0.00  0.00    -0.233 N 
ATOM     16  H   UNL     1       1.141  10.087  -0.495  0.00  0.00    +0.173 HD
BRANCH  15  17
ATOM     17  N   UNL     1       3.243  10.407  -0.937  0.00  0.00    -0.229 N 
ATOM     18  C   UNL     1       3.082  11.716  -1.215  0.00  0.00    +0.276 C 
ATOM     19  O   UNL     1       1.978  12.223  -1.140  0.00  0.00    -0.267 OA
ATOM     20  H   UNL     1       4.240   9.949  -1.005  0.00  0.00    +0.173 HD
BRANCH  18  21
ATOM     21  C   UNL     1       4.237  12.530  -1.607  0.00  0.00    +0.104 A 
ATOM     22  C   UNL     1       4.219  13.872  -1.924  0.00  0.00    +0.047 A 
ATOM     23  C   UNL     1       5.532  14.239  -2.233  0.00  0.00    +0.036 A 
ATOM     24  C   UNL     1       6.311  13.137  -2.112  0.00  0.00    +0.098 A 
ATOM     25  N   UNL     1       5.536  12.092  -1.732  0.00  0.00    -0.356 N 
ATOM     26  H   UNL     1       5.783  11.039  -1.530  0.00  0.00    +0.166 HD
ATOM     27 BR   UNL     1       6.116  15.965  -2.738  0.00  0.00    -0.049 Br
ENDBRANCH  18  21
ENDBRANCH  15  17
ENDBRANCH   1  13
BRANCH   1  28
ATOM     28  C   UNL     1       0.782   7.517   1.503  0.00  0.00    +0.012 C 
ATOM     29  C   UNL     1       0.435   8.954   1.896  0.00  0.00    +0.009 C 
ATOM     30  C   UNL     1      -0.408   6.604   1.808  0.00  0.00    +0.009 C 
ENDBRANCH   1  28
TORSDOF 6
