REMARK  Name = ZINC59370637
REMARK  5 active torsions:
REMARK  status: ('A' for Active; 'I' for Inactive)
REMARK    1  A    between atoms: C_1  and  C_2
REMARK    2  A    between atoms: C_2  and  C_3
REMARK    3  A    between atoms: C_6  and  C_9
REMARK    4  A    between atoms: C_9  and  C_11
REMARK    5  A    between atoms: C_13  and  C_26
REMARK                            x       y       z     vdW  Elec       q    Type
REMARK                         _______ _______ _______ _____ _____    ______ ____
ROOT
ATOM      1  C   UNL     1       4.219  -1.990  -4.922  0.00  0.00    +0.091 C 
ATOM      2  C   UNL     1       4.704  -3.372  -5.368  0.00  0.00    +0.053 C 
ATOM      3  C   UNL     1       5.108  -2.128  -6.156  0.00  0.00    +0.114 C 
ATOM      4  C   UNL     1       4.572  -1.868  -7.540  0.00  0.00    +0.179 C 
ATOM      5  O   UNL     1       3.459  -2.129  -7.942  0.00  0.00    -0.291 OA
ATOM      6  C   UNL     1       5.658  -1.236  -8.313  0.00  0.00    +0.029 A 
ATOM      7  C   UNL     1       5.694  -0.793  -9.638  0.00  0.00    +0.012 A 
ATOM      8  C   UNL     1       6.845  -0.224 -10.147  0.00  0.00    +0.001 A 
ATOM      9  C   UNL     1       7.969  -0.086  -9.352  0.00  0.00    +0.001 A 
ATOM     10  C   UNL     1       7.955  -0.517  -8.039  0.00  0.00    +0.012 A 
ATOM     11  C   UNL     1       6.802  -1.096  -7.504  0.00  0.00    +0.029 A 
ATOM     12  C   UNL     1       6.530  -1.628  -6.156  0.00  0.00    +0.179 C 
ATOM     13  O   UNL     1       7.304  -1.658  -5.224  0.00  0.00    -0.291 OA
ENDROOT
BRANCH   2  14
ATOM     14  C   UNL     1       3.692  -4.296  -5.995  0.00  0.00    -0.042 A 
ATOM     15  C   UNL     1       3.825  -4.671  -7.319  0.00  0.00    +0.004 A 
ATOM     16  C   UNL     1       2.897  -5.519  -7.894  0.00  0.00    +0.000 A 
ATOM     17  C   UNL     1       1.835  -5.991  -7.145  0.00  0.00    +0.000 A 
ATOM     18  C   UNL     1       1.703  -5.617  -5.821  0.00  0.00    +0.000 A 
ATOM     19  C   UNL     1       2.634  -4.773  -5.245  0.00  0.00    +0.004 A 
ENDBRANCH   2  14
BRANCH   1  20
ATOM     20  C   UNL     1       2.767  -1.657  -5.145  0.00  0.00    +0.168 C 
ATOM     21  O   UNL     1       2.172  -2.137  -6.087  0.00  0.00    -0.292 OA
BRANCH  20  25
ATOM     22  C   UNL     1       0.758   0.958  -2.477  0.00  0.00    -0.048 A 
ATOM     23  C   UNL     1       0.076   0.413  -3.551  0.00  0.00    +0.004 A 
ATOM     24  C   UNL     1       0.722  -0.438  -4.423  0.00  0.00    +0.011 A 
ATOM     25  C   UNL     1       2.070  -0.750  -4.219  0.00  0.00    +0.018 A 
ATOM     26  C   UNL     1       2.752  -0.195  -3.132  0.00  0.00    +0.011 A 
ATOM     27  C   UNL     1       2.094   0.658  -2.272  0.00  0.00    +0.004 A 
BRANCH  22  29
ATOM     28  C   UNL     1       0.180   3.326  -2.026  0.00  0.00    +0.009 C 
ATOM     29  C   UNL     1       0.044   1.886  -1.528  0.00  0.00    +0.032 C 
ENDBRANCH  22  29
ENDBRANCH  20  25
ENDBRANCH   1  20
TORSDOF 4
