REMARK  Name = ZINC41079963
REMARK  3 active torsions:
REMARK  status: ('A' for Active; 'I' for Inactive)
REMARK    1  A    between atoms: C_3  and  N_19
REMARK    2  A    between atoms: C_4  and  C_16
REMARK    3  A    between atoms: C_6  and  N_7
REMARK                            x       y       z     vdW  Elec       q    Type
REMARK                         _______ _______ _______ _____ _____    ______ ____
ROOT
ATOM      1  C   UNL     1      -0.029   1.363   0.034  0.00  0.00    +0.025 A 
ATOM      2  C   UNL     1       1.137   2.100   0.006  0.00  0.00    +0.025 A 
ATOM      3  C   UNL     1       2.367   1.457  -0.034  0.00  0.00    +0.037 A 
ATOM      4  C   UNL     1       2.422   0.055  -0.045  0.00  0.00    +0.059 A 
ATOM      5  C   UNL     1       1.236  -0.683  -0.016  0.00  0.00    +0.038 A 
ATOM      6  C   UNL     1       0.018  -0.028   0.023  0.00  0.00    +0.031 A 
ENDROOT
BRANCH   6   7
ATOM      7  N   UNL     1      -1.172  -0.766   0.052  0.00  0.00    -0.325 N 
ATOM      8  C   UNL     1      -2.473  -0.087  -0.032  0.00  0.00    +0.110 C 
ATOM      9  C   UNL     1      -3.158  -0.515  -1.339  0.00  0.00    +0.061 C 
ATOM     10  C   UNL     1      -2.978  -1.988  -1.513  0.00  0.00    -0.004 A 
ATOM     11  C   UNL     1      -2.092  -2.804  -0.878  0.00  0.00    -0.020 A 
ATOM     12  C   UNL     1      -2.120  -4.152  -1.230  0.00  0.00    +0.013 A 
ATOM     13  C   UNL     1      -3.002  -4.592  -2.157  0.00  0.00    +0.046 A 
ATOM     14  S   UNL     1      -3.859  -3.086  -2.592  0.00  0.00    -0.101 S 
ATOM     15  C   UNL     1      -1.136  -2.231   0.160  0.00  0.00    +0.141 C 
ENDBRANCH   6   7
BRANCH   4  16
ATOM     16  C   UNL     1       3.724  -0.635  -0.087  0.00  0.00    +0.243 C 
ATOM     17  O   UNL     1       4.754   0.004  -0.003  0.00  0.00    -0.270 OA
ATOM     18  N   UNL     1       3.771  -1.976  -0.220  0.00  0.00    -0.325 N 
ATOM     19  H   UNL     1       2.949  -2.486  -0.287  0.00  0.00    +0.145 HD
ATOM     20  H   UNL     1       4.628  -2.430  -0.247  0.00  0.00    +0.145 HD
ENDBRANCH   4  16
BRANCH   3  21
ATOM     21  N   UNL     1       3.543   2.202  -0.062  0.00  0.00    -0.357 N 
ATOM     22  H   UNL     1       3.503   3.168  -0.136  0.00  0.00    +0.142 HD
ATOM     23  H   UNL     1       4.402   1.754  -0.009  0.00  0.00    +0.142 HD
ENDBRANCH   3  21
TORSDOF 3
