REMARK  Name = ZINC06300577
REMARK  10 active torsions:
REMARK  status: ('A' for Active; 'I' for Inactive)
REMARK    1  A    between atoms: C_1  and  C_2
REMARK    2  A    between atoms: C_4  and  C_35
REMARK    3  A    between atoms: C_9  and  C_14
REMARK    4  A    between atoms: C_14  and  N_64
REMARK    5  A    between atoms: C_15  and  C_16
REMARK    6  A    between atoms: C_15  and  N_64
REMARK    7  A    between atoms: N_20  and  C_21
REMARK    8  A    between atoms: C_21  and  C_22
REMARK    9  A    between atoms: C_28  and  C_29
REMARK   10  A    between atoms: C_28  and  N_64
REMARK                            x       y       z     vdW  Elec       q    Type
REMARK                         _______ _______ _______ _____ _____    ______ ____
ROOT
ATOM      1  N   UNL     1      -1.521  -1.378   2.270  0.00  0.00    +0.389 N 
ATOM      2  H   UNL     1      -1.369  -1.285   3.281  0.00  0.00    -0.081 HD
ENDROOT
BRANCH   1   3
ATOM      3  C   UNL     1      -2.237  -2.644   2.006  0.00  0.00    -0.037 C 
BRANCH   3  12
ATOM      4  C   UNL     1      -9.444  -1.876   3.760  0.00  0.00    +0.044 C 
ATOM      5  C   UNL     1      -8.037  -2.273   4.127  0.00  0.00    -0.050 A 
ATOM      6  C   UNL     1      -7.771  -2.767   5.396  0.00  0.00    +0.008 A 
ATOM      7  C   UNL     1      -6.492  -3.136   5.753  0.00  0.00    -0.026 A 
ATOM      8  C   UNL     1      -5.456  -3.013   4.833  0.00  0.00    +0.052 A 
ATOM      9  C   UNL     1      -5.730  -2.512   3.547  0.00  0.00    -0.001 A 
ATOM     10  C   UNL     1      -7.036  -2.143   3.207  0.00  0.00    +0.013 A 
ATOM     11  C   UNL     1      -4.633  -2.387   2.585  0.00  0.00    +0.017 A 
ATOM     12  C   UNL     1      -3.388  -2.760   2.971  0.00  0.00    +0.001 A 
ATOM     13  C   UNL     1      -3.167  -3.261   4.272  0.00  0.00    +0.251 A 
ATOM     14  O   UNL     1      -2.041  -3.595   4.597  0.00  0.00    -0.268 OA
ATOM     15  N   UNL     1      -4.167  -3.374   5.163  0.00  0.00    -0.322 N 
ATOM     16  H   UNL     1      -3.980  -3.720   6.050  0.00  0.00    +0.169 HD
ATOM     17  C   UNL     1      -6.217  -3.670   7.136  0.00  0.00    +0.046 C 
ENDBRANCH   3  12
ENDBRANCH   1   3
BRANCH   1  18
ATOM     18  C   UNL     1      -2.329  -0.233   1.799  0.00  0.00    +0.001 C 
BRANCH  18  19
ATOM     19  C   UNL     1      -1.686   1.044   2.274  0.00  0.00    +0.135 A 
ATOM     20  N   UNL     1      -1.911   1.659   3.410  0.00  0.00    -0.115 NA
ATOM     21  N   UNL     1      -1.171   2.713   3.446  0.00  0.00    -0.023 NA
ATOM     22  N   UNL     1      -0.476   2.783   2.365  0.00  0.00    -0.044 NA
ATOM     23  N   UNL     1      -0.769   1.776   1.615  0.00  0.00    -0.227 N 
BRANCH  23  24
ATOM     24  C   UNL     1      -0.205   1.480   0.295  0.00  0.00    +0.182 C 
BRANCH  24  25
ATOM     25  C   UNL     1      -1.051   2.129  -0.770  0.00  0.00    -0.026 A 
ATOM     26  C   UNL     1      -2.109   1.437  -1.329  0.00  0.00    +0.005 A 
ATOM     27  C   UNL     1      -2.888   2.034  -2.302  0.00  0.00    +0.000 A 
ATOM     28  C   UNL     1      -2.603   3.320  -2.724  0.00  0.00    +0.000 A 
ATOM     29  C   UNL     1      -1.541   4.009  -2.169  0.00  0.00    +0.000 A 
ATOM     30  C   UNL     1      -0.765   3.414  -1.192  0.00  0.00    +0.005 A 
ENDBRANCH  24  25
ENDBRANCH  23  24
ENDBRANCH  18  19
ENDBRANCH   1  18
BRANCH   1  31
ATOM     31  C   UNL     1      -0.211  -1.386   1.585  0.00  0.00    -0.046 C 
BRANCH  31  32
ATOM     32  C   UNL     1       0.734  -2.321   2.344  0.00  0.00    +0.102 C 
ATOM     33  C   UNL     1       2.161  -2.233   1.760  0.00  0.00    +0.032 C 
ATOM     34  C   UNL     1       2.688  -3.683   1.837  0.00  0.00    +0.030 C 
ATOM     35  C   UNL     1       1.517  -4.476   2.459  0.00  0.00    +0.160 C 
ATOM     36  O   UNL     1       0.340  -3.697   2.151  0.00  0.00    -0.378 OA
ENDBRANCH  31  32
ENDBRANCH   1  31
TORSDOF 8
