REMARK  Name = ZINC09448278
REMARK  10 active torsions:
REMARK  status: ('A' for Active; 'I' for Inactive)
REMARK    1  A    between atoms: C_1  and  C_2
REMARK    2  A    between atoms: C_2  and  C_30
REMARK    3  A    between atoms: C_9  and  S_22
REMARK    4  A    between atoms: C_11  and  N_15
REMARK    5  A    between atoms: C_12  and  C_13
REMARK    6  A    between atoms: N_15  and  C_16
REMARK    7  A    between atoms: S_22  and  C_23
REMARK    8  A    between atoms: C_23  and  C_24
REMARK    9  A    between atoms: C_24  and  O_26
REMARK   10  A    between atoms: O_26  and  C_27
REMARK                            x       y       z     vdW  Elec       q    Type
REMARK                         _______ _______ _______ _____ _____    ______ ____
ROOT
ATOM      1  C   UNL     1      -0.573   1.164  -2.846  0.00  0.00    +0.041 C 
ATOM      2  C   UNL     1      -0.541   0.039  -1.810  0.00  0.00    +0.068 C 
ATOM      3  C   UNL     1      -1.757  -0.870  -1.999  0.00  0.00    +0.071 C 
ATOM      4  C   UNL     1      -1.591  -2.124  -1.180  0.00  0.00    -0.015 A 
ATOM      5  C   UNL     1      -0.387  -2.502  -0.697  0.00  0.00    +0.027 A 
ATOM      6  C   UNL     1      -0.281  -3.696   0.059  0.00  0.00    +0.169 A 
ATOM      7  N   UNL     1       0.739  -4.301   0.637  0.00  0.00    -0.128 NA
ATOM      8  N   UNL     1       0.335  -5.377   1.216  0.00  0.00    -0.122 NA
ATOM      9  C   UNL     1      -0.959  -5.529   1.047  0.00  0.00    +0.198 A 
ATOM     10  N   UNL     1      -1.396  -4.466   0.306  0.00  0.00    -0.256 N 
ATOM     11  C   UNL     1      -2.619  -4.089  -0.173  0.00  0.00    +0.129 A 
ATOM     12  C   UNL     1      -2.739  -2.923  -0.918  0.00  0.00    +0.094 A 
ATOM     13  C   UNL     1       0.855  -1.683  -0.932  0.00  0.00    +0.199 C 
ATOM     14  O   UNL     1       0.643  -0.748  -1.989  0.00  0.00    -0.369 OA
ATOM     15  C   UNL     1      -0.556   0.634  -0.401  0.00  0.00    +0.041 C 
ENDROOT
BRANCH  12  16
ATOM     16  C   UNL     1      -4.018  -2.524  -1.422  0.00  0.00    +0.103 C 
ATOM     17  N   UNL     1      -5.033  -2.208  -1.822  0.00  0.00    -0.191 NA
ENDBRANCH  12  16
BRANCH  11  18
ATOM     18  N   UNL     1      -3.726  -4.861   0.080  0.00  0.00    -0.299 N 
ATOM     19  H   UNL     1      -4.268  -4.689   0.866  0.00  0.00    +0.154 HD
BRANCH  18  20
ATOM     20  C   UNL     1      -4.073  -5.895  -0.795  0.00  0.00    +0.032 A 
ATOM     21  C   UNL     1      -3.239  -6.214  -1.859  0.00  0.00    +0.023 A 
ATOM     22  C   UNL     1      -3.582  -7.239  -2.719  0.00  0.00    +0.002 A 
ATOM     23  C   UNL     1      -4.759  -7.940  -2.527  0.00  0.00    +0.000 A 
ATOM     24  C   UNL     1      -5.593  -7.621  -1.472  0.00  0.00    +0.002 A 
ATOM     25  C   UNL     1      -5.254  -6.600  -0.606  0.00  0.00    +0.023 A 
ENDBRANCH  18  20
ENDBRANCH  11  18
BRANCH   9  26
ATOM     26  S   UNL     1      -1.945  -6.853   1.661  0.00  0.00    -0.074 S 
BRANCH  26  27
ATOM     27  C   UNL     1      -0.794  -7.827   2.670  0.00  0.00    +0.197 C 
BRANCH  27  28
ATOM     28  C   UNL     1      -1.545  -8.937   3.358  0.00  0.00    +0.317 C 
ATOM     29  O   UNL     1      -2.713  -9.121   3.110  0.00  0.00    -0.250 OA
BRANCH  28  30
ATOM     30  O   UNL     1      -0.916  -9.723   4.246  0.00  0.00    -0.467 OA
ATOM     31  C   UNL     1      -1.702 -10.773   4.870  0.00  0.00    +0.280 C 
ENDBRANCH  28  30
ENDBRANCH  27  28
ENDBRANCH  26  27
ENDBRANCH   9  26
TORSDOF 7
