REMARK  Name = ZINC13923826
REMARK  8 active torsions:
REMARK  status: ('A' for Active; 'I' for Inactive)
REMARK    1  A    between atoms: C_4  and  C_7
REMARK    2  A    between atoms: C_7  and  C_9
REMARK    3  A    between atoms: C_11  and  N_35
REMARK    4  A    between atoms: C_14  and  N_15
REMARK    5  A    between atoms: C_16  and  C_18
REMARK    6  A    between atoms: C_18  and  N_19
REMARK    7  A    between atoms: N_22  and  C_25
REMARK    8  A    between atoms: C_25  and  C_26
REMARK                            x       y       z     vdW  Elec       q    Type
REMARK                         _______ _______ _______ _____ _____    ______ ____
ROOT
ATOM      1  N   UNL     1       6.003  -2.271   0.042  0.00  0.00    -0.284 N 
ATOM      2  C   UNL     1       7.151  -2.974  -0.017  0.00  0.00    +0.231 C 
ATOM      3  O   UNL     1       7.118  -4.186  -0.064  0.00  0.00    -0.274 OA
ATOM      4  H   UNL     1       6.030  -1.307   0.150  0.00  0.00    +0.155 HD
ENDROOT
BRANCH   1  10
ATOM      5  C   UNL     1       3.691  -2.304  -0.683  0.00  0.00    +0.046 A 
ATOM      6  C   UNL     1       2.469  -2.976  -0.775  0.00  0.00    +0.046 A 
ATOM      7  C   UNL     1       2.338  -4.239  -0.243  0.00  0.00    +0.127 A 
ATOM      8  C   UNL     1       3.413  -4.850   0.385  0.00  0.00    +0.034 A 
ATOM      9  C   UNL     1       4.626  -4.199   0.484  0.00  0.00    +0.026 A 
ATOM     10  C   UNL     1       4.779  -2.927  -0.051  0.00  0.00    +0.044 A 
BRANCH   7  11
ATOM     11  N   UNL     1       1.043  -4.950  -0.341  0.00  0.00    +0.056 N 
ATOM     12  O   UNL     1       0.103  -4.420  -0.887  0.00  0.00    -0.126 OA
ATOM     13  O   UNL     1       0.924  -6.059   0.125  0.00  0.00    -0.126 OA
ENDBRANCH   7  11
BRANCH   5  14
ATOM     14  C   UNL     1       3.838  -0.951  -1.251  0.00  0.00    +0.195 C 
ATOM     15  O   UNL     1       3.361   0.006  -0.673  0.00  0.00    -0.287 OA
BRANCH  14  19
ATOM     16  C   UNL     1       5.929  -0.399  -4.907  0.00  0.00    +0.000 A 
ATOM     17  C   UNL     1       5.300   0.676  -4.303  0.00  0.00    +0.001 A 
ATOM     18  C   UNL     1       4.620   0.504  -3.116  0.00  0.00    +0.012 A 
ATOM     19  C   UNL     1       4.565  -0.759  -2.523  0.00  0.00    +0.022 A 
ATOM     20  C   UNL     1       5.201  -1.840  -3.138  0.00  0.00    +0.012 A 
ATOM     21  C   UNL     1       5.879  -1.654  -4.324  0.00  0.00    +0.001 A 
ENDBRANCH  14  19
ENDBRANCH   5  14
ENDBRANCH   1  10
BRANCH   2  22
ATOM     22  C   UNL     1       8.476  -2.256  -0.025  0.00  0.00    +0.180 C 
BRANCH  22  23
ATOM     23  N   UNL     1       9.565  -3.239  -0.093  0.00  0.00    -0.298 NA
ATOM     24  C   UNL     1       9.552  -3.951  -1.379  0.00  0.00    +0.066 C 
ATOM     25  C   UNL     1      10.662  -5.005  -1.386  0.00  0.00    -0.063 C 
ATOM     26  N   UNL     1      11.961  -4.349  -1.183  0.00  0.00    +0.384 N 
ATOM     27  C   UNL     1      11.967  -3.663   0.115  0.00  0.00    -0.063 C 
ATOM     28  C   UNL     1      10.868  -2.598   0.135  0.00  0.00    +0.066 C 
ATOM     29  H   UNL     1      12.117  -3.677  -1.920  0.00  0.00    -0.081 HD
BRANCH  26  30
ATOM     30  C   UNL     1      13.028  -5.358  -1.209  0.00  0.00    -0.043 C 
BRANCH  30  31
ATOM     31  C   UNL     1      14.368  -4.674  -1.124  0.00  0.00    -0.060 A 
ATOM     32  C   UNL     1      15.018  -4.285  -2.280  0.00  0.00    +0.005 A 
ATOM     33  C   UNL     1      16.248  -3.656  -2.208  0.00  0.00    +0.050 A 
ATOM     34  C   UNL     1      16.832  -3.416  -0.975  0.00  0.00    +0.166 A 
ATOM     35  C   UNL     1      16.177  -3.809   0.190  0.00  0.00    +0.166 A 
ATOM     36  C   UNL     1      14.943  -4.433   0.110  0.00  0.00    +0.051 A 
ATOM     37  O   UNL     1      16.949  -3.465   1.262  0.00  0.00    -0.453 OA
ATOM     38  C   UNL     1      18.265  -3.227   0.727  0.00  0.00    +0.466 C 
ATOM     39  O   UNL     1      18.014  -2.826  -0.633  0.00  0.00    -0.453 OA
ENDBRANCH  30  31
ENDBRANCH  26  30
ENDBRANCH  22  23
ENDBRANCH   2  22
TORSDOF 8
