REMARK  Name = ZINC67292435
REMARK  4 active torsions:
REMARK  status: ('A' for Active; 'I' for Inactive)
REMARK    1  A    between atoms: C_3  and  N_9
REMARK    2  A    between atoms: C_11  and  C_21
REMARK    3  A    between atoms: N_23  and  C_24
REMARK    4  A    between atoms: C_24  and  C_25
REMARK                            x       y       z     vdW  Elec       q    Type
REMARK                         _______ _______ _______ _____ _____    ______ ____
ROOT
ATOM      1  N   UNL     1       3.568   2.123  -0.068  0.00  0.00    -0.324 N 
ATOM      2  C   UNL     1       3.689   3.200   0.677  0.00  0.00    +0.212 A 
ATOM      3  C   UNL     1       4.981   3.905   0.790  0.00  0.00    +0.097 A 
ATOM      4  C   UNL     1       4.937   5.262   1.083  0.00  0.00    +0.030 A 
ATOM      5  C   UNL     1       3.616   5.871   1.253  0.00  0.00    +0.019 A 
ATOM      6  C   UNL     1       3.467   7.263   1.283  0.00  0.00    +0.026 A 
ATOM      7  C   UNL     1       2.213   7.811   1.441  0.00  0.00    +0.019 A 
ATOM      8  C   UNL     1       1.101   6.991   1.569  0.00  0.00    +0.019 A 
ATOM      9  C   UNL     1       1.232   5.617   1.543  0.00  0.00    +0.048 A 
ATOM     10  C   UNL     1       2.485   5.044   1.387  0.00  0.00    +0.137 A 
ATOM     11  O   UNL     1       2.628   3.699   1.362  0.00  0.00    -0.439 OA
ATOM     12 BR   UNL     1       2.007   9.690   1.482  0.00  0.00    -0.050 Br
ATOM     13  H   UNL     1       4.330   1.790  -0.567  0.00  0.00    +0.169 HD
ENDROOT
BRANCH   1  16
ATOM     14  C   UNL     1      -0.032   1.539  -0.277  0.00  0.00    +0.040 A 
ATOM     15  C   UNL     1       1.177   2.201  -0.204  0.00  0.00    +0.030 A 
ATOM     16  C   UNL     1       2.366   1.472  -0.140  0.00  0.00    +0.061 A 
ATOM     17  C   UNL     1       2.324   0.075  -0.150  0.00  0.00    +0.067 A 
ATOM     18  C   UNL     1       1.109  -0.575  -0.223  0.00  0.00    +0.060 A 
ATOM     19  C   UNL     1      -0.068   0.154  -0.286  0.00  0.00    +0.125 A 
ATOM     20  F   UNL     1      -1.254  -0.487  -0.357  0.00  0.00    -0.205 F 
ATOM     21 CL   UNL     1       3.797  -0.840  -0.071  0.00  0.00    -0.081 Cl
ENDBRANCH   1  16
BRANCH   3  22
ATOM     22  C   UNL     1       6.260   3.201   0.600  0.00  0.00    +0.249 C 
ATOM     23  O   UNL     1       6.267   2.029   0.274  0.00  0.00    -0.270 OA
ATOM     24  N   UNL     1       7.424   3.855   0.786  0.00  0.00    -0.309 N 
ATOM     25  H   UNL     1       7.420   4.764   1.124  0.00  0.00    +0.149 HD
BRANCH  24  26
ATOM     26  C   UNL     1       8.694   3.194   0.478  0.00  0.00    +0.136 C 
BRANCH  26  27
ATOM     27  C   UNL     1       9.852   4.148   0.776  0.00  0.00    +0.135 C 
ATOM     28  C   UNL     1      11.204   3.479   0.423  0.00  0.00    +0.035 C 
ATOM     29  C   UNL     1      12.093   4.728   0.171  0.00  0.00    +0.031 C 
ATOM     30  C   UNL     1      11.091   5.724  -0.450  0.00  0.00    +0.160 C 
ATOM     31  O   UNL     1       9.773   5.307  -0.069  0.00  0.00    -0.375 OA
ENDBRANCH  26  27
ENDBRANCH  24  26
ENDBRANCH   3  22
TORSDOF 4
