REMARK  Name = ZINC09298243
REMARK  7 active torsions:
REMARK  status: ('A' for Active; 'I' for Inactive)
REMARK    1  A    between atoms: C_1  and  C_2
REMARK    2  A    between atoms: C_2  and  O_3
REMARK    3  A    between atoms: O_3  and  C_4
REMARK    4  A    between atoms: C_7  and  C_9
REMARK    5  A    between atoms: C_13  and  N_14
REMARK    6  A    between atoms: C_15  and  C_17
REMARK    7  A    between atoms: C_27  and  C_31
REMARK                            x       y       z     vdW  Elec       q    Type
REMARK                         _______ _______ _______ _____ _____    ______ ____
ROOT
ATOM      1  C   UNL     1      -3.426   7.778   0.070  0.00  0.00    +0.069 A 
ATOM      2  C   UNL     1      -3.494   9.229   0.082  0.00  0.00    -0.023 A 
ATOM      3  C   UNL     1      -2.301   9.862   0.073  0.00  0.00    -0.004 A 
ATOM      4  S   UNL     1      -1.099   8.562   0.056  0.00  0.00    -0.077 S 
ATOM      5  C   UNL     1      -2.164   7.196   0.060  0.00  0.00    +0.085 A 
ATOM      6  C   UNL     1      -2.063  11.341   0.078  0.00  0.00    +0.046 C 
ATOM      7  C   UNL     1      -3.372  12.040   0.472  0.00  0.00    -0.009 C 
ATOM      8  C   UNL     1      -4.516  11.449  -0.356  0.00  0.00    +0.008 C 
ATOM      9  C   UNL     1      -4.800  10.015   0.097  0.00  0.00    +0.037 C 
ATOM     10  C   UNL     1      -3.256  13.540   0.194  0.00  0.00    +0.008 C 
ENDROOT
BRANCH   1  14
ATOM     11  C   UNL     1      -6.322   5.836  -1.095  0.00  0.00    +0.407 C 
ATOM     12  O   UNL     1      -6.821   5.491  -0.042  0.00  0.00    -0.226 OA
ATOM     13  N   UNL     1      -5.205   6.589  -1.096  0.00  0.00    -0.217 N 
ATOM     14  C   UNL     1      -4.641   6.959   0.071  0.00  0.00    +0.255 C 
ATOM     15  O   UNL     1      -5.140   6.614   1.125  0.00  0.00    -0.270 OA
ATOM     16  H   UNL     1      -4.806   6.864  -1.936  0.00  0.00    +0.161 HD
BRANCH  11  17
ATOM     17  O   UNL     1      -6.886   5.466  -2.260  0.00  0.00    -0.450 OA
BRANCH  17  19
ATOM     18  C   UNL     1      -8.580   4.336  -3.596  0.00  0.00    +0.048 C 
ATOM     19  C   UNL     1      -8.088   4.655  -2.182  0.00  0.00    +0.230 C 
ENDBRANCH  17  19
ENDBRANCH  11  17
ENDBRANCH   1  14
BRANCH   5  20
ATOM     20  N   UNL     1      -1.838   5.850   0.051  0.00  0.00    -0.274 N 
ATOM     21  C   UNL     1      -0.545   5.471   0.036  0.00  0.00    +0.274 C 
ATOM     22  O   UNL     1       0.335   6.310   0.031  0.00  0.00    -0.268 OA
ATOM     23  H   UNL     1      -2.540   5.181   0.054  0.00  0.00    +0.156 HD
BRANCH  21  24
ATOM     24  C   UNL     1      -0.196   4.035   0.026  0.00  0.00    +0.164 A 
ATOM     25  N   UNL     1       0.993   3.474   0.011  0.00  0.00    -0.234 NA
ATOM     26  C   UNL     1       1.169   2.149   0.002  0.00  0.00    +0.079 A 
ATOM     27  C   UNL     1       2.389   1.427  -0.014  0.00  0.00    +0.029 A 
ATOM     28  C   UNL     1       2.393   0.069  -0.021  0.00  0.00    +0.002 A 
ATOM     29  C   UNL     1       1.214  -0.666  -0.013  0.00  0.00    +0.001 A 
ATOM     30  C   UNL     1       0.002  -0.004   0.002  0.00  0.00    +0.017 A 
ATOM     31  C   UNL     1      -0.017   1.371   0.010  0.00  0.00    +0.040 A 
ATOM     32  S   UNL     1      -1.283   2.616   0.021  0.00  0.00    -0.063 S 
ENDBRANCH  21  24
ENDBRANCH   5  20
TORSDOF 5
