REMARK  Name = ZINC15949357
REMARK  9 active torsions:
REMARK  status: ('A' for Active; 'I' for Inactive)
REMARK    1  A    between atoms: C_1  and  C_2
REMARK    2  A    between atoms: C_5  and  N_8
REMARK    3  A    between atoms: C_9  and  C_11
REMARK    4  A    between atoms: C_14  and  S_17
REMARK    5  A    between atoms: S_17  and  N_20
REMARK    6  A    between atoms: N_20  and  C_21
REMARK    7  A    between atoms: C_23  and  N_29
REMARK    8  A    between atoms: C_26  and  O_27
REMARK    9  A    between atoms: O_27  and  C_28
REMARK                            x       y       z     vdW  Elec       q    Type
REMARK                         _______ _______ _______ _____ _____    ______ ____
ROOT
ATOM      1  C   UNL     1      -4.632   0.312   5.215  0.00  0.00    +0.037 A 
ATOM      2  C   UNL     1      -5.886   0.313   4.603  0.00  0.00    +0.015 A 
ATOM      3  C   UNL     1      -5.985   0.125   3.240  0.00  0.00    +0.029 A 
ATOM      4  C   UNL     1      -4.845  -0.066   2.480  0.00  0.00    +0.109 A 
ATOM      5  C   UNL     1      -3.599  -0.073   3.082  0.00  0.00    +0.029 A 
ATOM      6  C   UNL     1      -3.486   0.120   4.443  0.00  0.00    +0.015 A 
ENDROOT
BRANCH   1   8
ATOM      7  N   UNL     1      -3.306   0.511   7.264  0.00  0.00    -0.308 N 
ATOM      8  C   UNL     1      -4.519   0.513   6.676  0.00  0.00    +0.244 C 
ATOM      9  O   UNL     1      -5.519   0.680   7.346  0.00  0.00    -0.270 OA
ATOM     10  H   UNL     1      -2.508   0.378   6.729  0.00  0.00    +0.149 HD
BRANCH   7  15
ATOM     11  C   UNL     1       0.506   2.878   8.125  0.00  0.00    +0.007 C 
ATOM     12  C   UNL     1      -0.688   2.225   8.824  0.00  0.00    -0.014 C 
ATOM     13  C   UNL     1      -0.703   0.726   8.515  0.00  0.00    +0.005 C 
ATOM     14  C   UNL     1      -1.897   0.073   9.214  0.00  0.00    +0.022 C 
ATOM     15  C   UNL     1      -3.193   0.711   8.711  0.00  0.00    +0.073 C 
ATOM     16  C   UNL     1      -3.179   2.209   9.020  0.00  0.00    +0.022 C 
ATOM     17  C   UNL     1      -1.985   2.862   8.321  0.00  0.00    +0.005 C 
ENDBRANCH   7  15
ENDBRANCH   1   8
BRANCH   4  18
ATOM     18  S   UNL     1      -4.980  -0.307   0.740  0.00  0.00    +0.072 S 
ATOM     19  O   UNL     1      -6.289  -0.807   0.500  0.00  0.00    -0.150 OA
ATOM     20  O   UNL     1      -3.812  -1.006   0.335  0.00  0.00    -0.150 OA
BRANCH  18  21
ATOM     21  N   UNL     1      -4.907   1.188   0.031  0.00  0.00    -0.213 N 
ATOM     22  H   UNL     1      -5.652   1.509  -0.501  0.00  0.00    +0.174 HD
BRANCH  21  23
ATOM     23  C   UNL     1      -3.771   1.987   0.200  0.00  0.00    +0.092 A 
ATOM     24  C   UNL     1      -2.513   1.404   0.265  0.00  0.00    +0.061 A 
ATOM     25  C   UNL     1      -1.393   2.196   0.431  0.00  0.00    +0.128 A 
ATOM     26  C   UNL     1      -1.521   3.568   0.539  0.00  0.00    +0.036 A 
ATOM     27  C   UNL     1      -2.771   4.157   0.469  0.00  0.00    +0.050 A 
ATOM     28  C   UNL     1      -3.899   3.371   0.303  0.00  0.00    +0.142 A 
BRANCH  25  29
ATOM     29  N   UNL     1      -0.052   1.573   0.500  0.00  0.00    +0.056 N 
ATOM     30  O   UNL     1       0.062   0.363   0.411  0.00  0.00    -0.126 OA
ATOM     31  O   UNL     1       0.937   2.269   0.642  0.00  0.00    -0.126 OA
ENDBRANCH  25  29
BRANCH  28  32
ATOM     32  O   UNL     1      -5.129   3.948   0.240  0.00  0.00    -0.493 OA
ATOM     33  C   UNL     1      -5.184   5.371   0.352  0.00  0.00    +0.277 C 
ENDBRANCH  28  32
ENDBRANCH  21  23
ENDBRANCH  18  21
ENDBRANCH   4  18
TORSDOF 7
