REMARK  Name = ZINC08919532
REMARK  13 active torsions:
REMARK  status: ('A' for Active; 'I' for Inactive)
REMARK    1  A    between atoms: C_1  and  C_2
REMARK    2  A    between atoms: C_2  and  C_3
REMARK    3  A    between atoms: C_3  and  C_4
REMARK    4  A    between atoms: C_3  and  C_5
REMARK    5  A    between atoms: C_3  and  C_6
REMARK    6  A    between atoms: C_15  and  O_39
REMARK    7  A    between atoms: C_17  and  C_20
REMARK    8  A    between atoms: C_23  and  O_26
REMARK    9  A    between atoms: O_26  and  C_27
REMARK   10  A    between atoms: C_27  and  C_29
REMARK   11  A    between atoms: C_30  and  C_31
REMARK   12  A    between atoms: C_34  and  O_37
REMARK   13  A    between atoms: O_37  and  C_38
REMARK                            x       y       z     vdW  Elec       q    Type
REMARK                         _______ _______ _______ _____ _____    ______ ____
ROOT
ATOM      1  C   UNL     1      -7.840   5.239  -7.060  0.00  0.00    -0.000 C 
ATOM      2  C   UNL     1      -7.955   3.788  -6.582  0.00  0.00    +0.009 C 
ATOM      3  C   UNL     1      -8.507   3.752  -5.156  0.00  0.00    +0.037 C 
ATOM      4  C   UNL     1      -7.664   4.671  -4.280  0.00  0.00    -0.023 A 
ATOM      5  C   UNL     1      -6.876   5.624  -4.831  0.00  0.00    -0.004 A 
ATOM      6  S   UNL     1      -6.102   6.429  -3.453  0.00  0.00    -0.078 S 
ATOM      7  C   UNL     1      -6.810   5.525  -2.184  0.00  0.00    +0.080 A 
ATOM      8  C   UNL     1      -7.639   4.599  -2.829  0.00  0.00    +0.068 A 
ATOM      9  C   UNL     1      -8.395   3.650  -1.972  0.00  0.00    +0.220 C 
ATOM     10  N   UNL     1      -8.092   3.603  -0.704  0.00  0.00    -0.223 NA
ATOM     11  C   UNL     1      -6.999   4.340  -0.082  0.00  0.00    +0.224 C 
ATOM     12  N   UNL     1      -6.692   5.580  -0.818  0.00  0.00    -0.313 N 
ATOM     13  C   UNL     1      -6.705   5.924  -6.287  0.00  0.00    +0.046 C 
ATOM     14  H   UNL     1      -6.420   6.391  -0.362  0.00  0.00    +0.149 HD
ENDROOT
BRANCH  11  15
ATOM     15  C   UNL     1      -5.771   3.467  -0.055  0.00  0.00    -0.005 A 
ATOM     16  C   UNL     1      -5.903   2.092   0.010  0.00  0.00    +0.011 A 
ATOM     17  C   UNL     1      -4.779   1.290   0.035  0.00  0.00    +0.047 A 
ATOM     18  C   UNL     1      -3.517   1.865  -0.005  0.00  0.00    +0.132 A 
ATOM     19  C   UNL     1      -3.387   3.245  -0.064  0.00  0.00    +0.047 A 
ATOM     20  C   UNL     1      -4.515   4.042  -0.095  0.00  0.00    +0.011 A 
BRANCH  18  21
ATOM     21  O   UNL     1      -2.409   1.077   0.019  0.00  0.00    -0.423 OA
BRANCH  21  22
ATOM     22  C   UNL     1      -2.062   0.438  -1.117  0.00  0.00    +0.337 C 
ATOM     23  O   UNL     1      -2.781   0.503  -2.096  0.00  0.00    -0.245 OA
BRANCH  22  24
ATOM     24  C   UNL     1      -0.858  -0.310  -1.170  0.00  0.00    +0.092 C 
ATOM     25  C   UNL     1      -0.513  -0.955  -2.305  0.00  0.00    +0.015 C 
BRANCH  25  26
ATOM     26  C   UNL     1       0.731  -1.735  -2.358  0.00  0.00    -0.025 A 
ATOM     27  C   UNL     1       1.563  -1.807  -1.235  0.00  0.00    +0.011 A 
ATOM     28  C   UNL     1       2.725  -2.544  -1.288  0.00  0.00    +0.046 A 
ATOM     29  C   UNL     1       3.078  -3.206  -2.458  0.00  0.00    +0.120 A 
ATOM     30  C   UNL     1       2.258  -3.134  -3.578  0.00  0.00    +0.046 A 
ATOM     31  C   UNL     1       1.091  -2.404  -3.534  0.00  0.00    +0.011 A 
BRANCH  29  32
ATOM     32  O   UNL     1       4.228  -3.926  -2.507  0.00  0.00    -0.495 OA
ATOM     33  C   UNL     1       5.024  -3.959  -1.321  0.00  0.00    +0.277 C 
ENDBRANCH  29  32
ENDBRANCH  25  26
ENDBRANCH  22  24
ENDBRANCH  21  22
ENDBRANCH  18  21
ENDBRANCH  11  15
BRANCH   1  34
ATOM     34  C   UNL     1      -7.528   5.262  -8.558  0.00  0.00    -0.032 C 
ATOM     35  C   UNL     1      -6.207   4.535  -8.815  0.00  0.00    +0.011 C 
ATOM     36  C   UNL     1      -8.652   4.561  -9.324  0.00  0.00    +0.011 C 
BRANCH  34  38
ATOM     37  C   UNL     1      -7.102   6.735 -10.530  0.00  0.00    +0.004 C 
ATOM     38  C   UNL     1      -7.414   6.712  -9.033  0.00  0.00    +0.003 C 
ENDBRANCH  34  38
ENDBRANCH   1  34
BRANCH   9  39
ATOM     39  O   UNL     1      -9.366   2.862  -2.489  0.00  0.00    -0.492 OA
ATOM     40  H   UNL     1      -9.791   2.284  -1.840  0.00  0.00    +0.294 HD
ENDBRANCH   9  39
TORSDOF 9
