REMARK  Name = ZINC06120025
REMARK  8 active torsions:
REMARK  status: ('A' for Active; 'I' for Inactive)
REMARK    1  A    between atoms: C_1  and  C_2
REMARK    2  A    between atoms: C_5  and  C_8
REMARK    3  A    between atoms: C_11  and  C_14
REMARK    4  A    between atoms: C_19  and  C_21
REMARK    5  A    between atoms: C_21  and  O_22
REMARK    6  A    between atoms: O_22  and  C_23
REMARK    7  A    between atoms: C_23  and  C_25
REMARK    8  A    between atoms: C_29  and  O_31
REMARK                            x       y       z     vdW  Elec       q    Type
REMARK                         _______ _______ _______ _____ _____    ______ ____
ROOT
ATOM      1  C   UNL     1      -1.944   2.383   0.620  0.00  0.00    +0.069 C 
ATOM      2  N   UNL     1      -1.865   2.330  -0.665  0.00  0.00    -0.181 NA
ATOM      3  N   UNL     1      -0.778   1.600  -1.139  0.00  0.00    -0.179 N 
ATOM      4  C   UNL     1      -0.013   1.086   0.008  0.00  0.00    +0.173 C 
ATOM      5  C   UNL     1      -0.791   1.611   1.231  0.00  0.00    +0.090 C 
ATOM      6  C   UNL     1      -0.476   1.397  -2.437  0.00  0.00    +0.273 C 
ATOM      7  O   UNL     1       0.500   0.742  -2.738  0.00  0.00    -0.270 OA
ENDROOT
BRANCH   1  12
ATOM      8  C   UNL     1      -6.034   5.131   3.585  0.00  0.00    +0.044 C 
ATOM      9  C   UNL     1      -4.962   4.412   2.808  0.00  0.00    -0.050 A 
ATOM     10  C   UNL     1      -4.986   4.427   1.425  0.00  0.00    +0.004 A 
ATOM     11  C   UNL     1      -4.008   3.770   0.707  0.00  0.00    +0.010 A 
ATOM     12  C   UNL     1      -2.992   3.088   1.380  0.00  0.00    -0.002 A 
ATOM     13  C   UNL     1      -2.978   3.072   2.777  0.00  0.00    +0.010 A 
ATOM     14  C   UNL     1      -3.959   3.738   3.482  0.00  0.00    +0.004 A 
ENDBRANCH   1  12
BRANCH   4  15
ATOM     15  C   UNL     1       1.391   1.634  -0.003  0.00  0.00    +0.128 A 
ATOM     16  C   UNL     1       2.499   0.967   0.369  0.00  0.00    +0.046 A 
ATOM     17  C   UNL     1       3.587   1.854   0.201  0.00  0.00    +0.041 A 
ATOM     18  C   UNL     1       3.079   3.010  -0.263  0.00  0.00    +0.195 A 
ATOM     19  O   UNL     1       1.749   2.869  -0.390  0.00  0.00    -0.466 OA
ENDBRANCH   4  15
BRANCH   6  20
ATOM     20  C   UNL     1      -1.350   1.984  -3.515  0.00  0.00    +0.330 C 
BRANCH  20  21
ATOM     21  O   UNL     1      -0.818   1.628  -4.818  0.00  0.00    -0.452 OA
BRANCH  21  22
ATOM     22  C   UNL     1      -1.488   2.078  -5.896  0.00  0.00    +0.340 C 
ATOM     23  O   UNL     1      -2.490   2.750  -5.752  0.00  0.00    -0.245 OA
BRANCH  22  24
ATOM     24  C   UNL     1      -1.005   1.754  -7.254  0.00  0.00    +0.062 A 
ATOM     25  C   UNL     1       0.149   0.986  -7.423  0.00  0.00    +0.015 A 
ATOM     26  C   UNL     1       0.594   0.681  -8.693  0.00  0.00    +0.004 A 
ATOM     27  C   UNL     1      -0.093   1.143  -9.800  0.00  0.00    +0.045 A 
ATOM     28  C   UNL     1      -1.238   1.911  -9.643  0.00  0.00    +0.118 A 
ATOM     29  C   UNL     1      -1.697   2.219  -8.373  0.00  0.00    +0.060 A 
BRANCH  28  30
ATOM     30  O   UNL     1      -1.909   2.362 -10.735  0.00  0.00    -0.507 OA
ATOM     31  H   UNL     1      -1.611   3.226 -11.052  0.00  0.00    +0.292 HD
ENDBRANCH  28  30
ENDBRANCH  22  24
ENDBRANCH  21  22
ENDBRANCH  20  21
ENDBRANCH   6  20
TORSDOF 7
