REMARK  Name = ZINC40486681
REMARK  5 active torsions:
REMARK  status: ('A' for Active; 'I' for Inactive)
REMARK    1  A    between atoms: C_4  and  CA_7
REMARK    2  A    between atoms: CA_7  and  C_9
REMARK    3  A    between atoms: CA_7  and  N_12
REMARK    4  A    between atoms: C_13  and  C_15
REMARK    5  A    between atoms: C_15  and  N_21
REMARK                            x       y       z     vdW  Elec       q    Type
REMARK                         _______ _______ _______ _____ _____    ______ ____
ROOT
ATOM      1  N   UNL     1       2.886  -1.926  -2.535  0.00  0.00    -0.303 N 
ATOM      2  C   UNL     1       2.989  -2.592  -3.702  0.00  0.00    +0.202 C 
ATOM      3  O   UNL     1       3.066  -1.979  -4.745  0.00  0.00    -0.277 OA
ATOM      4  H   UNL     1       2.825  -2.417  -1.700  0.00  0.00    +0.149 HD
ENDROOT
BRANCH   2   5
ATOM      5  C   UNL     1       3.010  -4.099  -3.710  0.00  0.00    +0.007 C 
ATOM      6  C   UNL     1       1.581  -4.629  -3.574  0.00  0.00    -0.004 C 
ATOM      7  C   UNL     1       0.736  -4.124  -4.745  0.00  0.00    -0.001 C 
ATOM      8  C   UNL     1       1.340  -4.619  -6.060  0.00  0.00    -0.000 C 
ATOM      9  C   UNL     1       2.768  -4.089  -6.197  0.00  0.00    -0.001 C 
ATOM     10  C   UNL     1       3.614  -4.594  -5.026  0.00  0.00    -0.004 C 
BRANCH   5  11
ATOM     11  N   UNL     1       3.821  -4.584  -2.586  0.00  0.00    +0.388 N 
ATOM     12  H   UNL     1       3.423  -4.258  -1.718  0.00  0.00    -0.089 HD
ATOM     13  H   UNL     1       3.835  -5.593  -2.591  0.00  0.00    -0.089 HD
ATOM     14  H   UNL     1       4.764  -4.234  -2.676  0.00  0.00    -0.089 HD
ENDBRANCH   5  11
ENDBRANCH   2   5
BRANCH   1  15
ATOM     15  CA  UNL     1       2.866  -0.461  -2.527  0.00  0.00    +0.189 C 
BRANCH  15  19
ATOM     16  C   UNL     1      -0.030   1.526   0.001  0.00  0.00    +0.000 C 
ATOM     17  C   UNL     1       1.405   2.055  -0.005  0.00  0.00    +0.000 C 
ATOM     18  C   UNL     1       2.125   1.562  -1.262  0.00  0.00    +0.006 C 
ATOM     19  C   UNL     1       2.146   0.032  -1.270  0.00  0.00    +0.020 C 
ATOM     20  C   UNL     1       0.711  -0.498  -1.264  0.00  0.00    +0.006 C 
ATOM     21  C   UNL     1      -0.009  -0.004  -0.007  0.00  0.00    +0.000 C 
ENDBRANCH  15  19
BRANCH  15  22
ATOM     22  C   UNL     1       4.280   0.060  -2.533  0.00  0.00    +0.376 C 
ATOM     23  O   UNL     1       5.172  -0.590  -2.014  0.00  0.00    -0.244 OA
ATOM     24  OXT UNL     1       4.532   1.132  -3.057  0.00  0.00    -0.244 OA
ENDBRANCH  15  22
ENDBRANCH   1  15
TORSDOF 5
