REMARK  Name = ZINC39665806
REMARK  9 active torsions:
REMARK  status: ('A' for Active; 'I' for Inactive)
REMARK    1  A    between atoms: C_1  and  C_2
REMARK    2  A    between atoms: C_2  and  C_4
REMARK    3  A    between atoms: C_2  and  O_30
REMARK    4  A    between atoms: C_4  and  N_5
REMARK    5  A    between atoms: C_6  and  C_8
REMARK    6  A    between atoms: C_19  and  C_21
REMARK    7  A    between atoms: O_30  and  C_31
REMARK    8  A    between atoms: C_34  and  O_37
REMARK    9  A    between atoms: O_37  and  C_38
REMARK                            x       y       z     vdW  Elec       q    Type
REMARK                         _______ _______ _______ _____ _____    ______ ____
ROOT
ATOM      1  C   UNL     1      -2.844  -4.024   0.082  0.00  0.00    +0.100 C 
ATOM      2  C   UNL     1      -2.418  -4.485   1.494  0.00  0.00    +0.121 C 
ATOM      3  N   UNL     1      -3.693  -4.713   2.214  0.00  0.00    -0.296 N 
ATOM      4  C   UNL     1      -4.581  -5.335   1.204  0.00  0.00    +0.115 C 
ATOM      5  C   UNL     1      -4.263  -4.586  -0.106  0.00  0.00    -0.004 C 
ATOM      6  C   UNL     1      -5.258  -3.449  -0.318  0.00  0.00    -0.010 C 
ATOM      7  C   UNL     1      -6.652  -4.035  -0.559  0.00  0.00    -0.082 C 
ATOM      8  N   UNL     1      -6.619  -4.910  -1.737  0.00  0.00    +0.379 N 
ATOM      9  C   UNL     1      -5.730  -6.051  -1.490  0.00  0.00    -0.082 C 
ATOM     10  C   UNL     1      -4.297  -5.550  -1.288  0.00  0.00    -0.010 C 
ATOM     11  C   UNL     1      -3.980  -4.420   3.498  0.00  0.00    +0.248 C 
ATOM     12  O   UNL     1      -3.175  -3.811   4.178  0.00  0.00    -0.270 OA
ATOM     13  H   UNL     1      -7.551  -5.247  -1.930  0.00  0.00    -0.086 HD
ATOM     14  H   UNL     1      -6.282  -4.389  -2.532  0.00  0.00    -0.086 HD
ENDROOT
BRANCH  11  15
ATOM     15  C   UNL     1      -5.263  -4.835   4.076  0.00  0.00    +0.052 A 
ATOM     16  C   UNL     1      -5.943  -5.902   3.580  0.00  0.00    +0.059 A 
ATOM     17  S   UNL     1      -7.330  -6.022   4.516  0.00  0.00    -0.096 S 
ATOM     18  C   UNL     1      -7.081  -4.660   5.621  0.00  0.00    +0.020 A 
ATOM     19  C   UNL     1      -5.848  -4.117   5.211  0.00  0.00    +0.001 A 
ATOM     20  C   UNL     1      -5.369  -2.999   5.919  0.00  0.00    +0.010 A 
ATOM     21  C   UNL     1      -6.088  -2.479   6.966  0.00  0.00    +0.001 A 
ATOM     22  C   UNL     1      -7.298  -3.035   7.354  0.00  0.00    +0.001 A 
ATOM     23  C   UNL     1      -7.798  -4.127   6.670  0.00  0.00    +0.015 A 
ENDBRANCH  11  15
BRANCH   1  25
ATOM     24  N   UNL     1      -2.792  -1.904  -1.192  0.00  0.00    -0.312 N 
ATOM     25  C   UNL     1      -2.861  -2.519   0.005  0.00  0.00    +0.218 C 
ATOM     26  O   UNL     1      -2.937  -1.861   1.021  0.00  0.00    -0.275 OA
ATOM     27  H   UNL     1      -2.731  -2.431  -2.005  0.00  0.00    +0.149 HD
BRANCH  24  28
ATOM     28  C   UNL     1      -2.809  -0.441  -1.267  0.00  0.00    +0.148 C 
BRANCH  28  30
ATOM     29  C   UNL     1      -2.612   1.520  -2.802  0.00  0.00    +0.053 C 
ATOM     30  C   UNL     1      -2.720  -0.004  -2.730  0.00  0.00    +0.187 C 
BRANCH  30  31
ATOM     31  O   UNL     1      -3.892  -0.432  -3.427  0.00  0.00    -0.488 OA
BRANCH  31  32
ATOM     32  C   UNL     1      -3.783  -0.603  -4.772  0.00  0.00    +0.121 A 
ATOM     33  C   UNL     1      -4.905  -0.914  -5.525  0.00  0.00    +0.049 A 
ATOM     34  C   UNL     1      -4.794  -1.087  -6.891  0.00  0.00    +0.049 A 
ATOM     35  C   UNL     1      -3.561  -0.949  -7.510  0.00  0.00    +0.120 A 
ATOM     36  C   UNL     1      -2.438  -0.637  -6.757  0.00  0.00    +0.049 A 
ATOM     37  C   UNL     1      -2.550  -0.460  -5.391  0.00  0.00    +0.049 A 
BRANCH  35  38
ATOM     38  O   UNL     1      -3.451  -1.121  -8.854  0.00  0.00    -0.495 OA
ATOM     39  C   UNL     1      -2.150  -0.964  -9.424  0.00  0.00    +0.277 C 
ENDBRANCH  35  38
ENDBRANCH  31  32
ENDBRANCH  30  31
ENDBRANCH  28  30
ENDBRANCH  24  28
ENDBRANCH   1  25
TORSDOF 7
