REMARK  Name = ZINC38785817
REMARK  6 active torsions:
REMARK  status: ('A' for Active; 'I' for Inactive)
REMARK    1  A    between atoms: C_1  and  C_2
REMARK    2  A    between atoms: N_14  and  C_17
REMARK    3  A    between atoms: C_17  and  C_18
REMARK    4  A    between atoms: C_18  and  N_19
REMARK    5  A    between atoms: C_20  and  C_22
REMARK    6  A    between atoms: C_26  and  N_31
REMARK                            x       y       z     vdW  Elec       q    Type
REMARK                         _______ _______ _______ _____ _____    ______ ____
ROOT
ATOM      1  C   UNL     1      -0.018   1.503   0.010  0.00  0.00    +0.046 C 
ATOM      2  C   UNL     1       0.002  -0.004   0.002  0.00  0.00    -0.024 A 
ATOM      3  C   UNL     1       0.005  -0.675  -1.193  0.00  0.00    +0.007 A 
ATOM      4  C   UNL     1       0.024  -2.061  -1.246  0.00  0.00    +0.021 A 
ATOM      5  C   UNL     1       0.039  -2.784  -0.066  0.00  0.00    +0.057 A 
ATOM      6  C   UNL     1       0.036  -2.120   1.135  0.00  0.00    +0.059 A 
ATOM      7  C   UNL     1       0.023  -0.710   1.227  0.00  0.00    +0.085 A 
ATOM      8  N   UNL     1       0.028  -0.204   2.480  0.00  0.00    -0.224 NA
ATOM      9  C   UNL     1       0.049  -0.968   3.549  0.00  0.00    +0.162 A 
ATOM     10  S   UNL     1       0.051  -2.610   2.843  0.00  0.00    -0.051 S 
ATOM     11  N   UNL     1       0.056  -0.598   4.878  0.00  0.00    -0.313 N 
ATOM     12  C   UNL     1       0.035   0.821   5.268  0.00  0.00    +0.088 C 
ATOM     13  C   UNL     1       1.161   1.064   6.278  0.00  0.00    -0.059 C 
ATOM     14  N   UNL     1       1.024   0.126   7.399  0.00  0.00    +0.383 N 
ATOM     15  C   UNL     1       1.210  -1.251   6.923  0.00  0.00    -0.059 C 
ATOM     16  C   UNL     1       0.080  -1.609   5.945  0.00  0.00    +0.088 C 
ATOM     17 CL   UNL     1       0.061  -4.519  -0.105  0.00  0.00    -0.082 Cl
ATOM     18  H   UNL     1       0.104   0.219   7.803  0.00  0.00    -0.082 HD
ENDROOT
BRANCH  14  19
ATOM     19  C   UNL     1       2.036   0.431   8.418  0.00  0.00    -0.060 C 
BRANCH  19  20
ATOM     20  C   UNL     1       1.816  -0.463   9.639  0.00  0.00    +0.086 C 
BRANCH  20  21
ATOM     21  N   UNL     1       2.826  -0.158  10.656  0.00  0.00    -0.313 N 
ATOM     22  C   UNL     1       2.828  -0.828  11.826  0.00  0.00    +0.251 C 
ATOM     23  O   UNL     1       1.991  -1.685  12.038  0.00  0.00    -0.270 OA
ATOM     24  H   UNL     1       3.493   0.525  10.487  0.00  0.00    +0.149 HD
BRANCH  22  25
ATOM     25  C   UNL     1       3.842  -0.522  12.846  0.00  0.00    +0.075 A 
ATOM     26  C   UNL     1       4.008  -1.087  14.071  0.00  0.00    +0.029 A 
ATOM     27  C   UNL     1       5.049  -0.651  14.910  0.00  0.00    -0.008 A 
ATOM     28  C   UNL     1       5.381  -1.112  16.210  0.00  0.00    +0.041 A 
ATOM     29  C   UNL     1       6.429  -0.578  16.890  0.00  0.00    +0.127 A 
ATOM     30  C   UNL     1       7.212   0.433  16.345  0.00  0.00    +0.034 A 
ATOM     31  C   UNL     1       6.924   0.911  15.083  0.00  0.00    +0.018 A 
ATOM     32  C   UNL     1       5.864   0.378  14.380  0.00  0.00    +0.020 A 
ATOM     33  S   UNL     1       5.162   0.677  12.778  0.00  0.00    -0.084 S 
BRANCH  29  34
ATOM     34  N   UNL     1       6.744  -1.085  18.244  0.00  0.00    +0.056 N 
ATOM     35  O   UNL     1       6.073  -1.964  18.732  0.00  0.00    -0.126 OA
ATOM     36  O   UNL     1       7.673  -0.620  18.862  0.00  0.00    -0.126 OA
ENDBRANCH  29  34
ENDBRANCH  22  25
ENDBRANCH  20  21
ENDBRANCH  19  20
ENDBRANCH  14  19
TORSDOF 5
