REMARK  Name = ZINC12855457
REMARK  6 active torsions:
REMARK  status: ('A' for Active; 'I' for Inactive)
REMARK    1  A    between atoms: N_13  and  C_17
REMARK    2  A    between atoms: C_17  and  C_18
REMARK    3  A    between atoms: C_18  and  C_20
REMARK    4  A    between atoms: C_18  and  O_29
REMARK    5  A    between atoms: C_20  and  O_21
REMARK    6  A    between atoms: O_21  and  C_22
REMARK                            x       y       z     vdW  Elec       q    Type
REMARK                         _______ _______ _______ _____ _____    ______ ____
ROOT
ATOM      1  C   UNL     1      -1.942   8.008  -1.245  0.00  0.00    +0.001 A 
ATOM      2  C   UNL     1      -2.120   9.306  -1.686  0.00  0.00    +0.004 A 
ATOM      3  C   UNL     1      -1.031  10.143  -1.822  0.00  0.00    +0.046 A 
ATOM      4  C   UNL     1       0.246   9.685  -1.517  0.00  0.00    +0.126 A 
ATOM      5  C   UNL     1       0.421   8.384  -1.072  0.00  0.00    +0.027 A 
ATOM      6  C   UNL     1      -0.676   7.550  -0.940  0.00  0.00    +0.010 A 
ATOM      7  C   UNL     1       1.787   7.859  -0.727  0.00  0.00    +0.144 C 
ATOM      8  C   UNL     1       2.874   8.753  -1.317  0.00  0.00    +0.081 C 
ATOM      9  C   UNL     1       2.520  10.213  -1.005  0.00  0.00    +0.232 C 
ATOM     10  O   UNL     1       1.296  10.534  -1.667  0.00  0.00    -0.492 OA
ATOM     11  C   UNL     1       1.951   6.441  -1.220  0.00  0.00    +0.251 C 
ATOM     12  O   UNL     1       1.902   6.051  -2.367  0.00  0.00    -0.272 OA
ATOM     13  N   UNL     1       2.162   5.697  -0.114  0.00  0.00    -0.221 N 
ATOM     14  C   UNL     1       2.160   6.450   0.993  0.00  0.00    +0.310 C 
ATOM     15  O   UNL     1       2.334   6.007   2.112  0.00  0.00    -0.252 OA
ATOM     16  N   UNL     1       1.944   7.753   0.729  0.00  0.00    -0.281 N 
ATOM     17  H   UNL     1       1.900   8.477   1.372  0.00  0.00    +0.152 HD
ENDROOT
BRANCH  13  18
ATOM     18  C   UNL     1       2.374   4.248  -0.123  0.00  0.00    +0.152 C 
BRANCH  18  19
ATOM     19  C   UNL     1       1.027   3.535   0.011  0.00  0.00    +0.170 C 
BRANCH  19  20
ATOM     20  O   UNL     1       0.406   3.917   1.240  0.00  0.00    -0.387 OA
ATOM     21  H   UNL     1       0.925   3.699   2.027  0.00  0.00    +0.210 HD
ENDBRANCH  19  20
BRANCH  19  22
ATOM     22  C   UNL     1       1.248   2.021   0.001  0.00  0.00    +0.261 C 
BRANCH  22  23
ATOM     23  O   UNL     1      -0.016   1.355   0.009  0.00  0.00    -0.489 OA
BRANCH  23  24
ATOM     24  C   UNL     1       0.002  -0.004   0.002  0.00  0.00    +0.121 A 
ATOM     25  C   UNL     1       1.212  -0.682  -0.019  0.00  0.00    +0.047 A 
ATOM     26  C   UNL     1       1.229  -2.063  -0.021  0.00  0.00    +0.019 A 
ATOM     27  C   UNL     1       0.040  -2.771  -0.014  0.00  0.00    +0.018 A 
ATOM     28  C   UNL     1      -1.168  -2.096   0.002  0.00  0.00    +0.019 A 
ATOM     29  C   UNL     1      -1.189  -0.715   0.010  0.00  0.00    +0.047 A 
ATOM     30 BR   UNL     1       0.065  -4.661  -0.025  0.00  0.00    -0.050 Br
ENDBRANCH  23  24
ENDBRANCH  22  23
ENDBRANCH  19  22
ENDBRANCH  18  19
ENDBRANCH  13  18
TORSDOF 6
