REMARK  Name = ZINC27562854
REMARK  15 active torsions:
REMARK  status: ('A' for Active; 'I' for Inactive)
REMARK    1  A    between atoms: C_1  and  C_2
REMARK    2  A    between atoms: C_2  and  O_3
REMARK    3  A    between atoms: O_3  and  C_4
REMARK    4  A    between atoms: C_4  and  C_6
REMARK    5  A    between atoms: N_9  and  C_12
REMARK    6  A    between atoms: C_12  and  C_13
REMARK    7  A    between atoms: C_13  and  C_14
REMARK    8  A    between atoms: C_14  and  N_15
REMARK    9  A    between atoms: C_16  and  C_18
REMARK   10  A    between atoms: C_19  and  C_39
REMARK   11  A    between atoms: C_21  and  C_38
REMARK   12  A    between atoms: C_22  and  C_34
REMARK   13  A    between atoms: C_23  and  C_25
REMARK   14  A    between atoms: C_28  and  N_31
REMARK   15  A    between atoms: N_36  and  C_37
REMARK                            x       y       z     vdW  Elec       q    Type
REMARK                         _______ _______ _______ _____ _____    ______ ____
ROOT
ATOM      1  C   UNL     1     -10.447   6.357   6.143  0.00  0.00    +0.043 C 
ATOM      2  C   UNL     1     -10.818   5.151   6.603  0.00  0.00    +0.014 C 
ATOM      3  N   UNL     1     -12.113   4.723   6.483  0.00  0.00    -0.321 N 
ATOM      4  C   UNL     1     -13.116   5.617   6.221  0.00  0.00    +0.014 C 
ATOM      5  C   UNL     1     -12.839   6.840   5.740  0.00  0.00    +0.043 C 
ATOM      6  C   UNL     1     -11.426   7.271   5.462  0.00  0.00    +0.092 C 
ATOM      7  C   UNL     1     -14.548   5.225   6.476  0.00  0.00    +0.061 C 
ATOM      8  C   UNL     1      -9.798   4.261   7.265  0.00  0.00    +0.061 C 
ATOM      9  H   UNL     1     -12.352   3.655   6.596  0.00  0.00    +0.152 HD
ENDROOT
BRANCH   6  10
ATOM     10  C   UNL     1     -11.182   7.242   3.976  0.00  0.00    -0.035 A 
ATOM     11  C   UNL     1     -11.285   6.052   3.281  0.00  0.00    +0.007 A 
ATOM     12  C   UNL     1     -11.065   6.026   1.917  0.00  0.00    +0.033 A 
ATOM     13  C   UNL     1     -10.732   7.189   1.248  0.00  0.00    +0.126 A 
ATOM     14  C   UNL     1     -10.623   8.379   1.944  0.00  0.00    +0.033 A 
ATOM     15  C   UNL     1     -10.848   8.406   3.308  0.00  0.00    +0.007 A 
BRANCH  13  16
ATOM     16  N   UNL     1     -10.492   7.161  -0.212  0.00  0.00    +0.056 N 
ATOM     17  O   UNL     1     -10.197   8.186  -0.801  0.00  0.00    -0.126 OA
ATOM     18  O   UNL     1     -10.588   6.113  -0.825  0.00  0.00    -0.126 OA
ENDBRANCH  13  16
ENDBRANCH   6  10
BRANCH   5  19
ATOM     19  C   UNL     1     -13.901   7.743   5.488  0.00  0.00    +0.242 C 
ATOM     20  O   UNL     1     -15.044   7.432   5.770  0.00  0.00    -0.270 OA
ATOM     21  N   UNL     1     -13.646   8.946   4.937  0.00  0.00    -0.315 N 
ATOM     22  C   UNL     1     -14.745   9.880   4.677  0.00  0.00    +0.128 C 
ATOM     23  H   UNL     1     -12.614   9.227   4.682  0.00  0.00    +0.149 HD
ENDBRANCH   5  19
BRANCH   1  25
ATOM     24  N   UNL     1      -8.148   6.288   5.479  0.00  0.00    -0.312 N 
ATOM     25  C   UNL     1      -9.102   6.774   6.297  0.00  0.00    +0.242 C 
ATOM     26  O   UNL     1      -8.809   7.572   7.169  0.00  0.00    -0.270 OA
ATOM     27  H   UNL     1      -8.413   5.567   4.692  0.00  0.00    +0.149 HD
BRANCH  24  28
ATOM     28  C   UNL     1      -6.757   6.719   5.639  0.00  0.00    +0.102 C 
BRANCH  28  29
ATOM     29  C   UNL     1      -5.884   6.023   4.593  0.00  0.00    +0.000 C 
BRANCH  29  30
ATOM     30  C   UNL     1      -4.431   6.473   4.760  0.00  0.00    -0.077 C 
BRANCH  30  34
ATOM     31  C   UNL     1      -1.368   4.250   2.772  0.00  0.00    +0.094 C 
ATOM     32  C   UNL     1      -2.786   3.678   2.847  0.00  0.00    -0.004 C 
ATOM     33  C   UNL     1      -3.544   4.356   3.991  0.00  0.00    -0.078 C 
ATOM     34  N   UNL     1      -3.593   5.805   3.756  0.00  0.00    +0.380 N 
ATOM     35  C   UNL     1      -2.244   6.384   3.727  0.00  0.00    -0.078 C 
ATOM     36  C   UNL     1      -1.447   5.766   2.576  0.00  0.00    -0.004 C 
ATOM     37  H   UNL     1      -4.049   5.970   2.768  0.00  0.00    -0.082 HD
BRANCH  31  38
ATOM     38  C   UNL     1      -0.635   3.629   1.611  0.00  0.00    +0.310 C 
ATOM     39  O   UNL     1      -0.219   4.326   0.717  0.00  0.00    -0.251 OA
BRANCH  38  40
ATOM     40  O   UNL     1      -0.446   2.300   1.569  0.00  0.00    -0.465 OA
BRANCH  40  42
ATOM     41  C   UNL     1       0.386   0.252   0.549  0.00  0.00    +0.048 C 
ATOM     42  C   UNL     1       0.268   1.772   0.421  0.00  0.00    +0.229 C 
ENDBRANCH  40  42
ENDBRANCH  38  40
ENDBRANCH  31  38
ENDBRANCH  30  34
ENDBRANCH  29  30
ENDBRANCH  28  29
ENDBRANCH  24  28
ENDBRANCH   1  25
TORSDOF 11
