REMARK  Name = ZINC16292761
REMARK  11 active torsions:
REMARK  status: ('A' for Active; 'I' for Inactive)
REMARK    1  A    between atoms: C_1  and  C_2
REMARK    2  A    between atoms: C_5  and  N_8
REMARK    3  A    between atoms: C_11  and  C_16
REMARK    4  A    between atoms: C_13  and  C_15
REMARK    5  A    between atoms: C_16  and  C_17
REMARK    6  A    between atoms: C_16  and  C_27
REMARK    7  A    between atoms: C_19  and  N_24
REMARK    8  A    between atoms: C_22  and  O_23
REMARK    9  A    between atoms: C_29  and  C_41
REMARK   10  A    between atoms: N_31  and  C_34
REMARK   11  A    between atoms: C_37  and  C_40
REMARK                            x       y       z     vdW  Elec       q    Type
REMARK                         _______ _______ _______ _____ _____    ______ ____
ROOT
ATOM      1  C   UNL     1       1.345  -7.100   1.046  0.00  0.00    +0.058 C 
ENDROOT
BRANCH   1   5
ATOM      2  N   UNL     1      -1.805  -5.919   1.120  0.00  0.00    -0.160 N 
ATOM      3  C   UNL     1      -1.093  -6.890   0.509  0.00  0.00    +0.249 C 
ATOM      4  O   UNL     1      -1.472  -7.999   0.198  0.00  0.00    -0.273 OA
ATOM      5  C   UNL     1       0.284  -6.291   0.297  0.00  0.00    +0.131 C 
ATOM      6  C   UNL     1       0.160  -4.899   0.881  0.00  0.00    +0.047 C 
ATOM      7  N   UNL     1      -1.035  -4.776   1.310  0.00  0.00    -0.181 NA
ATOM      8  C   UNL     1       1.244  -3.853   0.939  0.00  0.00    +0.063 C 
BRANCH   2  13
ATOM      9  C   UNL     1      -7.236  -6.426   2.682  0.00  0.00    +0.044 C 
ATOM     10  C   UNL     1      -5.794  -6.292   2.267  0.00  0.00    -0.050 A 
ATOM     11  C   UNL     1      -5.115  -5.110   2.503  0.00  0.00    +0.005 A 
ATOM     12  C   UNL     1      -3.793  -4.983   2.124  0.00  0.00    +0.026 A 
ATOM     13  C   UNL     1      -3.145  -6.045   1.505  0.00  0.00    +0.060 A 
ATOM     14  C   UNL     1      -3.829  -7.230   1.270  0.00  0.00    +0.026 A 
ATOM     15  C   UNL     1      -5.149  -7.352   1.657  0.00  0.00    +0.005 A 
ENDBRANCH   2  13
ENDBRANCH   1   5
BRANCH   1  16
ATOM     16  C   UNL     1       1.290  -8.559   0.589  0.00  0.00    +0.131 C 
ATOM     17  C   UNL     1       2.493  -9.324   1.100  0.00  0.00    +0.047 C 
ATOM     18  N   UNL     1       3.137  -9.739   0.080  0.00  0.00    -0.181 NA
ATOM     19  N   UNL     1       2.548  -9.370  -1.126  0.00  0.00    -0.160 N 
ATOM     20  C   UNL     1       1.420  -8.652  -0.919  0.00  0.00    +0.249 C 
ATOM     21  O   UNL     1       0.675  -8.184  -1.755  0.00  0.00    -0.273 OA
ATOM     22  C   UNL     1       2.862  -9.551   2.543  0.00  0.00    +0.063 C 
BRANCH  19  23
ATOM     23  C   UNL     1       3.055  -9.699  -2.389  0.00  0.00    +0.060 A 
ATOM     24  C   UNL     1       2.396  -9.277  -3.536  0.00  0.00    +0.026 A 
ATOM     25  C   UNL     1       2.900  -9.604  -4.779  0.00  0.00    +0.005 A 
ATOM     26  C   UNL     1       4.059 -10.350  -4.884  0.00  0.00    -0.050 A 
ATOM     27  C   UNL     1       4.718 -10.772  -3.743  0.00  0.00    +0.005 A 
ATOM     28  C   UNL     1       4.223 -10.444  -2.497  0.00  0.00    +0.026 A 
ATOM     29  C   UNL     1       4.605 -10.705  -6.243  0.00  0.00    +0.044 C 
ENDBRANCH  19  23
ENDBRANCH   1  16
BRANCH   1  30
ATOM     30  C   UNL     1       1.079  -7.027   2.527  0.00  0.00    +0.001 A 
ATOM     31  C   UNL     1      -0.115  -7.497   3.039  0.00  0.00    +0.040 A 
ATOM     32  C   UNL     1      -0.359  -7.430   4.398  0.00  0.00    +0.127 A 
ATOM     33  C   UNL     1       0.590  -6.893   5.249  0.00  0.00    +0.036 A 
ATOM     34  C   UNL     1       1.785  -6.422   4.742  0.00  0.00    +0.048 A 
ATOM     35  C   UNL     1       2.035  -6.494   3.378  0.00  0.00    +0.120 A 
BRANCH  32  36
ATOM     36  N   UNL     1      -1.640  -7.933   4.944  0.00  0.00    +0.056 N 
ATOM     37  O   UNL     1      -2.471  -8.402   4.202  0.00  0.00    -0.126 OA
ATOM     38  O   UNL     1      -1.855  -7.875   6.133  0.00  0.00    -0.126 OA
ENDBRANCH  32  36
BRANCH  35  39
ATOM     39  O   UNL     1       3.213  -6.036   2.878  0.00  0.00    -0.506 OA
ATOM     40  H   UNL     1       3.198  -5.101   2.630  0.00  0.00    +0.292 HD
ENDBRANCH  35  39
ENDBRANCH   1  30
TORSDOF 7
