REMARK  Name = ZINC35316362
REMARK  8 active torsions:
REMARK  status: ('A' for Active; 'I' for Inactive)
REMARK    1  A    between atoms: C_1  and  O_2
REMARK    2  A    between atoms: O_2  and  C_3
REMARK    3  A    between atoms: C_7  and  C_11
REMARK    4  A    between atoms: C_8  and  O_9
REMARK    5  A    between atoms: O_9  and  C_10
REMARK    6  A    between atoms: C_14  and  C_25
REMARK    7  A    between atoms: C_20  and  N_24
REMARK    8  A    between atoms: C_21  and  C_22
REMARK                            x       y       z     vdW  Elec       q    Type
REMARK                         _______ _______ _______ _____ _____    ______ ____
ROOT
ATOM      1  C   UNL     1       1.389  -4.178   2.201  0.00  0.00    +0.105 C 
ATOM      2  C   UNL     1       0.838  -4.635   3.527  0.00  0.00    +0.054 A 
ATOM      3  C   UNL     1      -0.487  -4.648   3.977  0.00  0.00    +0.101 A 
ATOM      4  N   UNL     1      -0.493  -5.132   5.206  0.00  0.00    -0.171 NA
ATOM      5  N   UNL     1       0.829  -5.438   5.566  0.00  0.00    -0.246 N 
ATOM      6  H   UNL     1       1.117  -5.808   6.415  0.00  0.00    +0.192 HD
ATOM      7  C   UNL     1       1.628  -5.127   4.524  0.00  0.00    +0.223 A 
ATOM      8  O   UNL     1       2.973  -5.248   4.400  0.00  0.00    -0.423 OA
ATOM      9  C   UNL     1       3.500  -5.127   3.165  0.00  0.00    +0.200 C 
ATOM     10  C   UNL     1       2.821  -4.642   2.101  0.00  0.00    +0.098 C 
ENDROOT
BRANCH   3  11
ATOM     11  C   UNL     1      -1.673  -4.199   3.211  0.00  0.00    +0.010 A 
ATOM     12  C   UNL     1      -1.877  -4.642   1.916  0.00  0.00    +0.011 A 
ATOM     13  C   UNL     1      -2.988  -4.225   1.191  0.00  0.00    +0.001 A 
ATOM     14  C   UNL     1      -3.903  -3.374   1.731  0.00  0.00    +0.008 A 
ATOM     15  C   UNL     1      -3.735  -2.900   3.044  0.00  0.00    -0.017 A 
ATOM     16  C   UNL     1      -2.612  -3.319   3.798  0.00  0.00    -0.009 A 
ATOM     17  C   UNL     1      -2.448  -2.849   5.109  0.00  0.00    +0.009 A 
ATOM     18  C   UNL     1      -3.372  -2.002   5.643  0.00  0.00    +0.001 A 
ATOM     19  C   UNL     1      -4.480  -1.593   4.904  0.00  0.00    +0.001 A 
ATOM     20  C   UNL     1      -4.665  -2.020   3.625  0.00  0.00    +0.008 A 
ENDBRANCH   3  11
BRANCH   1  25
ATOM     21  C   UNL     1       0.562  -0.674   1.032  0.00  0.00    +0.162 A 
ATOM     22  C   UNL     1       1.238   0.091   1.969  0.00  0.00    +0.049 A 
ATOM     23  C   UNL     1       1.958  -0.526   2.975  0.00  0.00    +0.004 A 
ATOM     24  C   UNL     1       2.006  -1.906   3.049  0.00  0.00    +0.008 A 
ATOM     25  C   UNL     1       1.334  -2.675   2.118  0.00  0.00    +0.011 A 
ATOM     26  C   UNL     1       0.605  -2.063   1.110  0.00  0.00    +0.166 A 
BRANCH  21  28
ATOM     27  C   UNL     1      -0.148   1.360   0.024  0.00  0.00    +0.277 C 
ATOM     28  O   UNL     1      -0.147  -0.069   0.042  0.00  0.00    -0.491 OA
ENDBRANCH  21  28
BRANCH  26  29
ATOM     29  O   UNL     1      -0.061  -2.818   0.196  0.00  0.00    -0.491 OA
ATOM     30  C   UNL     1       0.654  -3.188  -0.985  0.00  0.00    +0.277 C 
ENDBRANCH  26  29
ENDBRANCH   1  25
BRANCH   9  31
ATOM     31  N   UNL     1       4.802  -5.519   2.976  0.00  0.00    -0.328 N 
ATOM     32  H   UNL     1       5.316  -5.871   3.720  0.00  0.00    +0.145 HD
ATOM     33  H   UNL     1       5.209  -5.444   2.099  0.00  0.00    +0.145 HD
ENDBRANCH   9  31
BRANCH  10  34
ATOM     34  C   UNL     1       3.484  -4.564   0.834  0.00  0.00    +0.101 C 
ATOM     35  N   UNL     1       4.011  -4.503  -0.171  0.00  0.00    -0.191 NA
ENDBRANCH  10  34
TORSDOF 6
