REMARK  Name = ZINC39702996
REMARK  9 active torsions:
REMARK  status: ('A' for Active; 'I' for Inactive)
REMARK    1  A    between atoms: C_1  and  C_2
REMARK    2  A    between atoms: C_9  and  C_20
REMARK    3  A    between atoms: C_11  and  C_14
REMARK    4  A    between atoms: C_23  and  C_26
REMARK    5  A    between atoms: C_29  and  O_32
REMARK    6  A    between atoms: O_32  and  C_33
REMARK    7  A    between atoms: C_34  and  C_36
REMARK    8  A    between atoms: C_36  and  C_37
REMARK    9  A    between atoms: C_37  and  C_38
REMARK                            x       y       z     vdW  Elec       q    Type
REMARK                         _______ _______ _______ _____ _____    ______ ____
ROOT
ATOM      1  C   UNL     1       1.219  -4.853   3.021  0.00  0.00    +0.055 C 
ATOM      2  N   UNL     1       2.199  -4.156   3.427  0.00  0.00    -0.185 NA
ATOM      3  N   UNL     1       3.188  -4.880   4.091  0.00  0.00    -0.185 N 
ATOM      4  C   UNL     1       2.790  -6.297   4.128  0.00  0.00    +0.137 C 
ATOM      5  C   UNL     1       1.431  -6.302   3.400  0.00  0.00    +0.083 C 
ATOM      6  C   UNL     1       4.320  -4.368   4.613  0.00  0.00    +0.236 C 
ATOM      7  O   UNL     1       5.114  -5.096   5.171  0.00  0.00    -0.274 OA
ENDROOT
BRANCH   1  16
ATOM      8  C   UNL     1       0.171   1.502   0.011  0.00  0.00    +0.044 C 
ATOM      9  C   UNL     1       0.140  -0.004   0.003  0.00  0.00    -0.050 A 
ATOM     10  C   UNL     1       0.142  -0.680  -1.215  0.00  0.00    +0.005 A 
ATOM     11  C   UNL     1       0.115  -2.040  -1.283  0.00  0.00    +0.024 A 
ATOM     12  C   UNL     1       0.084  -2.801  -0.101  0.00  0.00    +0.041 A 
ATOM     13  N   UNL     1       0.058  -4.136  -0.168  0.00  0.00    -0.284 N 
ATOM     14  C   UNL     1       0.028  -4.919   0.892  0.00  0.00    +0.230 C 
ATOM     15  O   UNL     1       0.006  -6.128   0.755  0.00  0.00    -0.274 OA
ATOM     16  C   UNL     1       0.022  -4.317   2.279  0.00  0.00    +0.152 C 
ATOM     17  C   UNL     1       0.051  -2.804   2.381  0.00  0.00    -0.014 C 
ATOM     18  C   UNL     1       0.082  -2.088   1.181  0.00  0.00    +0.001 A 
ATOM     19  C   UNL     1       0.116  -0.677   1.185  0.00  0.00    +0.013 A 
ATOM     20  H   UNL     1       0.061  -4.551  -1.045  0.00  0.00    +0.155 HD
BRANCH  17  21
ATOM     21  C   UNL     1       0.048  -2.147   3.637  0.00  0.00    -0.020 A 
ATOM     22  C   UNL     1       1.136  -1.344   4.018  0.00  0.00    +0.008 A 
ATOM     23  C   UNL     1       1.123  -0.710   5.240  0.00  0.00    +0.001 A 
ATOM     24  C   UNL     1       0.041  -0.861   6.093  0.00  0.00    +0.000 A 
ATOM     25  C   UNL     1      -1.037  -1.650   5.726  0.00  0.00    +0.001 A 
ATOM     26  C   UNL     1      -1.046  -2.288   4.506  0.00  0.00    +0.008 A 
ENDBRANCH  17  21
ENDBRANCH   1  16
BRANCH   4  27
ATOM     27  C   UNL     1       3.796  -7.151   3.399  0.00  0.00    -0.024 A 
ATOM     28  C   UNL     1       4.384  -6.685   2.238  0.00  0.00    +0.009 A 
ATOM     29  C   UNL     1       5.306  -7.465   1.568  0.00  0.00    +0.046 A 
ATOM     30  C   UNL     1       5.642  -8.718   2.062  0.00  0.00    +0.120 A 
ATOM     31  C   UNL     1       5.050  -9.183   3.227  0.00  0.00    +0.046 A 
ATOM     32  C   UNL     1       4.133  -8.396   3.896  0.00  0.00    +0.009 A 
BRANCH  30  33
ATOM     33  O   UNL     1       6.548  -9.488   1.404  0.00  0.00    -0.495 OA
ATOM     34  C   UNL     1       6.845 -10.766   1.970  0.00  0.00    +0.277 C 
ENDBRANCH  30  33
ENDBRANCH   4  27
BRANCH   6  35
ATOM     35  C   UNL     1       4.600  -2.891   4.502  0.00  0.00    +0.109 C 
BRANCH  35  36
ATOM     36  C   UNL     1       5.940  -2.575   5.170  0.00  0.00    +0.134 C 
BRANCH  36  37
ATOM     37  C   UNL     1       6.220  -1.098   5.060  0.00  0.00    +0.356 C 
ATOM     38  O   UNL     1       5.422  -0.367   4.499  0.00  0.00    -0.246 OA
ATOM     39  O   UNL     1       7.244  -0.635   5.532  0.00  0.00    -0.246 OA
ENDBRANCH  36  37
ENDBRANCH  35  36
ENDBRANCH   6  35
TORSDOF 7
