REMARK  Name = ZINC39359946
REMARK  2 active torsions:
REMARK  status: ('A' for Active; 'I' for Inactive)
REMARK    1  A    between atoms: C_6  and  C_10
REMARK    2  A    between atoms: C_18  and  C_22
REMARK                            x       y       z     vdW  Elec       q    Type
REMARK                         _______ _______ _______ _____ _____    ______ ____
ROOT
ATOM      1  C   UNL     1       0.295  -2.913   1.359  0.00  0.00    +0.265 C 
ATOM      2  O   UNL     1      -0.633  -2.859   0.575  0.00  0.00    -0.268 OA
ATOM      3  N   UNL     1       0.609  -4.082   1.952  0.00  0.00    -0.292 N 
ATOM      4  C   UNL     1       1.640  -4.149   2.998  0.00  0.00    +0.114 C 
ATOM      5  C   UNL     1       0.997  -4.583   4.320  0.00  0.00    +0.076 C 
ATOM      6  C   UNL     1       0.082  -5.760   4.058  0.00  0.00    +0.067 C 
ATOM      7  C   UNL     1      -0.381  -6.074   2.843  0.00  0.00    -0.003 C 
ATOM      8  C   UNL     1      -0.077  -5.334   1.577  0.00  0.00    +0.143 C 
ATOM      9  C   UNL     1      -1.242  -7.292   3.056  0.00  0.00    +0.160 C 
ATOM     10  N   UNL     1      -1.127  -7.516   4.511  0.00  0.00    -0.179 NA
ATOM     11  N   UNL     1      -0.390  -6.638   4.971  0.00  0.00    -0.158 NA
ENDROOT
BRANCH   1  17
ATOM     12  C   UNL     1       4.429  -1.317  -0.066  0.00  0.00    +0.005 C 
ATOM     13  C   UNL     1       5.004  -0.534   1.116  0.00  0.00    +0.007 C 
ATOM     14  C   UNL     1       3.992   0.518   1.587  0.00  0.00    +0.057 C 
ATOM     15  C   UNL     1       2.662  -0.166   1.790  0.00  0.00    +0.067 A 
ATOM     16  C   UNL     1       2.358  -1.426   1.259  0.00  0.00    +0.005 A 
ATOM     17  C   UNL     1       1.076  -1.703   1.659  0.00  0.00    +0.124 A 
ATOM     18  N   UNL     1       0.671  -0.621   2.396  0.00  0.00    -0.272 N 
ATOM     19  H   UNL     1      -0.199  -0.525   2.815  0.00  0.00    +0.189 HD
ATOM     20  N   UNL     1       1.619   0.249   2.448  0.00  0.00    -0.178 NA
ATOM     21  C   UNL     1       3.306  -2.242   0.423  0.00  0.00    +0.039 C 
ENDBRANCH   1  17
BRANCH   9  22
ATOM     22  C   UNL     1      -0.695  -8.487   2.274  0.00  0.00    +0.020 C 
ATOM     23  C   UNL     1      -0.734  -8.191   0.760  0.00  0.00    +0.006 C 
ATOM     24  C   UNL     1      -1.111  -9.548   0.117  0.00  0.00    +0.000 C 
ATOM     25  C   UNL     1      -2.137 -10.129   1.122  0.00  0.00    +0.000 C 
ATOM     26  C   UNL     1      -1.587  -9.720   2.503  0.00  0.00    +0.006 C 
ENDBRANCH   9  22
TORSDOF 2
