REMARK  Name = ZINC09305938
REMARK  8 active torsions:
REMARK  status: ('A' for Active; 'I' for Inactive)
REMARK    1  A    between atoms: C_1  and  C_2
REMARK    2  A    between atoms: C_2  and  C_3
REMARK    3  A    between atoms: C_2  and  C_4
REMARK    4  A    between atoms: C_4  and  C_6
REMARK    5  A    between atoms: C_4  and  N_18
REMARK    6  A    between atoms: N_8  and  N_9
REMARK    7  A    between atoms: C_10  and  C_11
REMARK    8  A    between atoms: C_19  and  C_21
REMARK                            x       y       z     vdW  Elec       q    Type
REMARK                         _______ _______ _______ _____ _____    ______ ____
ROOT
ATOM      1  C   UNL     1       6.921  -1.921   2.997  0.00  0.00    +0.163 C 
ENDROOT
BRANCH   1   2
ATOM      2  C   UNL     1       7.449  -3.332   3.005  0.00  0.00    +0.253 C 
ATOM      3  O   UNL     1       6.829  -4.215   2.450  0.00  0.00    -0.272 OA
ATOM      4  N   UNL     1       8.610  -3.614   3.629  0.00  0.00    -0.205 N 
ATOM      5  H   UNL     1       9.142  -2.898   4.010  0.00  0.00    +0.177 HD
BRANCH   4   6
ATOM      6  N   UNL     1       9.049  -4.941   3.727  0.00  0.00    -0.188 NA
ATOM      7  C   UNL     1      10.166  -5.212   4.327  0.00  0.00    +0.138 C 
BRANCH   7   8
ATOM      8  C   UNL     1      10.628  -6.609   4.430  0.00  0.00    -0.005 A 
ATOM      9  C   UNL     1       9.862  -7.643   3.887  0.00  0.00    +0.010 A 
ATOM     10  C   UNL     1      10.302  -8.947   3.982  0.00  0.00    +0.016 A 
ATOM     11  C   UNL     1      11.495  -9.233   4.624  0.00  0.00    +0.018 A 
ATOM     12  C   UNL     1      12.257  -8.213   5.169  0.00  0.00    +0.016 A 
ATOM     13  C   UNL     1      11.831  -6.905   5.076  0.00  0.00    +0.010 A 
ATOM     14 BR   UNL     1      12.087 -11.024   4.756  0.00  0.00    -0.050 Br
ENDBRANCH   7   8
ENDBRANCH   4   6
ENDBRANCH   1   2
BRANCH   1  15
ATOM     15  N   UNL     1       5.936  -1.774   1.923  0.00  0.00    -0.300 N 
ATOM     16  C   UNL     1       5.700  -0.561   1.386  0.00  0.00    +0.245 C 
ATOM     17  O   UNL     1       6.305   0.412   1.792  0.00  0.00    -0.270 OA
ATOM     18  H   UNL     1       5.453  -2.550   1.599  0.00  0.00    +0.150 HD
BRANCH  16  19
ATOM     19  C   UNL     1       4.707  -0.413   0.304  0.00  0.00    +0.040 A 
ATOM     20  C   UNL     1       4.010  -1.530  -0.165  0.00  0.00    +0.017 A 
ATOM     21  C   UNL     1       3.083  -1.390  -1.174  0.00  0.00    +0.050 A 
ATOM     22  C   UNL     1       2.838  -0.141  -1.730  0.00  0.00    +0.166 A 
ATOM     23  C   UNL     1       3.530   0.978  -1.267  0.00  0.00    +0.167 A 
ATOM     24  C   UNL     1       4.461   0.844  -0.255  0.00  0.00    +0.062 A 
ATOM     25  O   UNL     1       3.111   2.071  -1.969  0.00  0.00    -0.453 OA
ATOM     26  C   UNL     1       1.867   1.681  -2.579  0.00  0.00    +0.466 C 
ATOM     27  O   UNL     1       1.987   0.253  -2.720  0.00  0.00    -0.453 OA
ENDBRANCH  16  19
ENDBRANCH   1  15
BRANCH   1  29
ATOM     28  C   UNL     1       5.826  -0.149   4.377  0.00  0.00    +0.009 C 
ATOM     29  C   UNL     1       6.259  -1.616   4.342  0.00  0.00    +0.012 C 
ATOM     30  C   UNL     1       5.033  -2.514   4.522  0.00  0.00    +0.009 C 
ENDBRANCH   1  29
TORSDOF 6
