REMARK  Name = ZINC05346002
REMARK  8 active torsions:
REMARK  status: ('A' for Active; 'I' for Inactive)
REMARK    1  A    between atoms: C_1  and  C_2
REMARK    2  A    between atoms: C_2  and  C_3
REMARK    3  A    between atoms: C_3  and  C_5
REMARK    4  A    between atoms: C_3  and  N_6
REMARK    5  A    between atoms: C_11  and  C_28
REMARK    6  A    between atoms: C_28  and  C_29
REMARK    7  A    between atoms: C_29  and  C_30
REMARK    8  A    between atoms: C_29  and  C_31
REMARK                            x       y       z     vdW  Elec       q    Type
REMARK                         _______ _______ _______ _____ _____    ______ ____
ROOT
ATOM      1  N   UNL     1       0.430   4.156   0.654  0.00  0.00    -0.239 N 
ATOM      2  C   UNL     1      -0.177   3.946  -0.520  0.00  0.00    +0.224 C 
ATOM      3  O   UNL     1      -1.107   4.591  -0.954  0.00  0.00    -0.275 OA
ATOM      4  C   UNL     1       0.479   2.779  -1.223  0.00  0.00    +0.073 C 
ATOM      5  C   UNL     1      -0.509   1.594  -1.271  0.00  0.00    -0.057 C 
ATOM      6  C   UNL     1       1.154   0.936   0.232  0.00  0.00    +0.050 C 
ATOM      7  C   UNL     1       1.586   2.335  -0.226  0.00  0.00    +0.088 C 
ATOM      8  C   UNL     1       1.450   3.309   0.923  0.00  0.00    +0.225 C 
ATOM      9  O   UNL     1       2.144   3.319   1.918  0.00  0.00    -0.275 OA
ATOM     10  C   UNL     1       1.509   0.693   1.671  0.00  0.00    -0.026 A 
ATOM     11  C   UNL     1       1.177   1.324   2.849  0.00  0.00    +0.004 A 
ATOM     12  C   UNL     1       1.675   0.854   4.052  0.00  0.00    +0.002 A 
ATOM     13  C   UNL     1       2.507  -0.251   4.067  0.00  0.00    +0.022 A 
ATOM     14  C   UNL     1       2.842  -0.887   2.889  0.00  0.00    +0.062 A 
ATOM     15  C   UNL     1       2.345  -0.419   1.674  0.00  0.00    +0.054 A 
ATOM     16  N   UNL     1       2.537  -0.882   0.370  0.00  0.00    -0.285 N 
ATOM     17  C   UNL     1       1.872  -0.139  -0.536  0.00  0.00    +0.211 C 
ATOM     18  O   UNL     1       1.856  -0.305  -1.738  0.00  0.00    -0.277 OA
ATOM     19 CL   UNL     1       3.885  -2.274   2.921  0.00  0.00    -0.082 Cl
ATOM     20  H   UNL     1       3.084  -1.651   0.143  0.00  0.00    +0.155 HD
ATOM     21  N   UNL     1      -0.278   0.888  -0.009  0.00  0.00    +0.394 N 
ATOM     22  H   UNL     1      -0.592  -0.086  -0.084  0.00  0.00    -0.083 HD
ATOM     23  H   UNL     1      -0.782   1.353   0.755  0.00  0.00    -0.083 HD
ENDROOT
BRANCH   1  24
ATOM     24  C   UNL     1       0.027   5.222   1.574  0.00  0.00    +0.081 C 
ATOM     25  C   UNL     1      -1.431   5.015   1.987  0.00  0.00    +0.028 C 
BRANCH  24  27
ATOM     26  C   UNL     1       1.651   6.839   0.578  0.00  0.00    +0.006 C 
ATOM     27  C   UNL     1       0.174   6.577   0.879  0.00  0.00    +0.019 C 
ENDBRANCH  24  27
ENDBRANCH   1  24
BRANCH   5  28
ATOM     28  C   UNL     1      -0.184   0.679  -2.454  0.00  0.00    -0.012 C 
BRANCH  28  29
ATOM     29  C   UNL     1      -1.013   1.102  -3.669  0.00  0.00    -0.019 C 
ATOM     30  C   UNL     1      -0.581   0.287  -4.889  0.00  0.00    +0.007 C 
ATOM     31  C   UNL     1      -2.496   0.853  -3.387  0.00  0.00    +0.007 C 
ENDBRANCH  28  29
ENDBRANCH   5  28
TORSDOF 4
