REMARK  Name = ZINC40346437
REMARK  5 active torsions:
REMARK  status: ('A' for Active; 'I' for Inactive)
REMARK    1  A    between atoms: C_3  and  C_9
REMARK    2  A    between atoms: C_4  and  N_8
REMARK    3  A    between atoms: C_6  and  N_7
REMARK    4  A    between atoms: N_11  and  C_12
REMARK    5  A    between atoms: C_12  and  C_13
REMARK                            x       y       z     vdW  Elec       q    Type
REMARK                         _______ _______ _______ _____ _____    ______ ____
ROOT
ATOM      1  C   UNL     1      -0.073   1.280   0.033  0.00  0.00    +0.023 A 
ATOM      2  C   UNL     1       1.026   2.088   0.007  0.00  0.00    +0.016 A 
ATOM      3  C   UNL     1       2.308   1.529  -0.033  0.00  0.00    +0.057 A 
ATOM      4  C   UNL     1       2.459   0.131  -0.044  0.00  0.00    +0.039 A 
ATOM      5  C   UNL     1       1.335  -0.679  -0.017  0.00  0.00    +0.046 A 
ATOM      6  C   UNL     1       0.070  -0.107   0.021  0.00  0.00    +0.026 A 
ENDROOT
BRANCH   3   7
ATOM      7  C   UNL     1       3.493   2.400  -0.062  0.00  0.00    +0.246 C 
ATOM      8  O   UNL     1       4.606   1.915   0.013  0.00  0.00    -0.270 OA
ATOM      9  N   UNL     1       3.346   3.735  -0.171  0.00  0.00    -0.311 N 
ATOM     10  H   UNL     1       2.458   4.122  -0.231  0.00  0.00    +0.149 HD
BRANCH   9  11
ATOM     11  C   UNL     1       4.526   4.603  -0.200  0.00  0.00    +0.109 C 
BRANCH  11  12
ATOM     12  C   UNL     1       4.083   6.062  -0.329  0.00  0.00    +0.029 C 
ATOM     13  C   UNL     1       3.422   6.285  -1.699  0.00  0.00    +0.029 C 
ATOM     14  C   UNL     1       3.264   7.801  -1.968  0.00  0.00    +0.166 C 
ATOM     15  S   UNL     1       4.650   8.529  -1.004  0.00  0.00    -0.031 S 
ATOM     16  O   UNL     1       4.116   9.364   0.014  0.00  0.00    -0.174 OA
ATOM     17  O   UNL     1       5.614   9.055  -1.906  0.00  0.00    -0.174 OA
ATOM     18  C   UNL     1       5.322   6.997  -0.232  0.00  0.00    +0.171 C 
ENDBRANCH  11  12
ENDBRANCH   9  11
ENDBRANCH   3   7
BRANCH   6  19
ATOM     19  N   UNL     1      -1.058  -0.920   0.048  0.00  0.00    -0.358 N 
ATOM     20  H   UNL     1      -1.942  -0.522   0.075  0.00  0.00    +0.142 HD
ATOM     21  H   UNL     1      -0.960  -1.885   0.040  0.00  0.00    +0.142 HD
ENDBRANCH   6  19
BRANCH   4  22
ATOM     22  N   UNL     1       3.727  -0.434  -0.084  0.00  0.00    -0.357 N 
ATOM     23  H   UNL     1       4.512   0.131  -0.022  0.00  0.00    +0.142 HD
ATOM     24  H   UNL     1       3.827  -1.395  -0.173  0.00  0.00    +0.142 HD
ENDBRANCH   4  22
TORSDOF 5
