REMARK  Name = ZINC09306596
REMARK  9 active torsions:
REMARK  status: ('A' for Active; 'I' for Inactive)
REMARK    1  A    between atoms: C_1  and  C_2
REMARK    2  A    between atoms: C_2  and  O_3
REMARK    3  A    between atoms: O_3  and  C_4
REMARK    4  A    between atoms: C_4  and  C_6
REMARK    5  A    between atoms: C_6  and  C_7
REMARK    6  A    between atoms: C_7  and  C_8
REMARK    7  A    between atoms: C_9  and  C_30
REMARK    8  A    between atoms: C_22  and  C_29
REMARK    9  A    between atoms: C_22  and  N_58
REMARK                            x       y       z     vdW  Elec       q    Type
REMARK                         _______ _______ _______ _____ _____    ______ ____
ROOT
ATOM      1  C   UNL     1       2.408  -2.691   0.377  0.00  0.00    +0.041 A 
ATOM      2  C   UNL     1       1.196  -2.084   0.288  0.00  0.00    -0.030 A 
ATOM      3  C   UNL     1       1.160  -0.624   0.186  0.00  0.00    +0.021 A 
ATOM      4  C   UNL     1      -0.056   0.063   0.090  0.00  0.00    +0.015 A 
ATOM      5  C   UNL     1      -0.059   1.423  -0.003  0.00  0.00    +0.046 A 
ATOM      6  C   UNL     1       1.140   2.139  -0.003  0.00  0.00    +0.123 A 
ATOM      7  C   UNL     1       2.350   1.476   0.093  0.00  0.00    +0.021 A 
ATOM      8  C   UNL     1       2.372   0.090   0.186  0.00  0.00    +0.144 A 
ATOM      9  O   UNL     1       3.544  -0.575   0.278  0.00  0.00    -0.422 OA
ATOM     10  C   UNL     1       3.584  -1.913   0.370  0.00  0.00    +0.341 A 
ATOM     11  O   UNL     1       4.665  -2.470   0.451  0.00  0.00    -0.245 OA
ATOM     12  C   UNL     1       3.651   2.237   0.101  0.00  0.00    -0.030 C 
ATOM     13  C   UNL     1       2.278   4.212   0.264  0.00  0.00    +0.158 C 
ATOM     14  O   UNL     1       1.097   3.494  -0.102  0.00  0.00    -0.509 OA
ATOM     15  C   UNL     1      -0.076  -2.891   0.292  0.00  0.00    +0.045 C 
ATOM     16  N   UNL     1       3.422   3.592  -0.434  0.00  0.00    +0.410 N 
ATOM     17  H   UNL     1       3.208   3.526  -1.436  0.00  0.00    -0.075 HD
ENDROOT
BRANCH  16  18
ATOM     18  C   UNL     1       4.636   4.421  -0.254  0.00  0.00    -0.042 C 
ATOM     19  C   UNL     1       4.389   5.772  -0.908  0.00  0.00    +0.012 C 
ATOM     20  C   UNL     1       4.531   6.970   0.059  0.00  0.00    +0.164 C 
ATOM     21  S   UNL     1       5.596   6.242   1.380  0.00  0.00    -0.032 S 
ATOM     22  O   UNL     1       6.955   6.292   0.969  0.00  0.00    -0.174 OA
ATOM     23  O   UNL     1       5.219   6.783   2.639  0.00  0.00    -0.174 OA
ATOM     24  C   UNL     1       4.979   4.510   1.250  0.00  0.00    +0.154 C 
ATOM     25  C   UNL     1       5.795   3.732  -0.978  0.00  0.00    -0.008 C 
ENDBRANCH  16  18
BRANCH   1  26
ATOM     26  C   UNL     1       2.496  -4.192   0.483  0.00  0.00    +0.054 C 
BRANCH  26  27
ATOM     27  C   UNL     1       2.583  -4.798  -0.919  0.00  0.00    +0.125 C 
BRANCH  27  28
ATOM     28  C   UNL     1       2.670  -6.298  -0.813  0.00  0.00    +0.307 C 
ATOM     29  O   UNL     1       2.664  -6.829   0.272  0.00  0.00    -0.251 OA
BRANCH  28  30
ATOM     30  O   UNL     1       2.755  -7.046  -1.925  0.00  0.00    -0.465 OA
BRANCH  30  32
ATOM     31  C   UNL     1       2.926  -9.163  -3.116  0.00  0.00    +0.048 C 
ATOM     32  C   UNL     1       2.836  -8.485  -1.748  0.00  0.00    +0.229 C 
ENDBRANCH  30  32
ENDBRANCH  28  30
ENDBRANCH  27  28
ENDBRANCH  26  27
ENDBRANCH   1  26
TORSDOF 6
