REMARK  Name = ZINC39037589
REMARK  5 active torsions:
REMARK  status: ('A' for Active; 'I' for Inactive)
REMARK    1  A    between atoms: C_1  and  C_2
REMARK    2  A    between atoms: C_4  and  C_12
REMARK    3  A    between atoms: C_13  and  C_14
REMARK    4  A    between atoms: N_25  and  C_26
REMARK    5  A    between atoms: C_26  and  C_27
REMARK                            x       y       z     vdW  Elec       q    Type
REMARK                         _______ _______ _______ _____ _____    ______ ____
ROOT
ATOM      1  C   UNL     1       0.870  -0.383  -4.990  0.00  0.00    +0.186 C 
ATOM      2  N   UNL     1       1.981   0.388  -5.563  0.00  0.00    -0.322 N 
ATOM      3  C   UNL     1       3.146  -0.285  -5.912  0.00  0.00    +0.041 A 
ATOM      4  C   UNL     1       4.386   0.329  -5.875  0.00  0.00    +0.024 A 
ATOM      5  C   UNL     1       5.514  -0.387  -6.229  0.00  0.00    +0.002 A 
ATOM      6  C   UNL     1       5.413  -1.714  -6.619  0.00  0.00    +0.001 A 
ATOM      7  C   UNL     1       4.184  -2.340  -6.662  0.00  0.00    +0.015 A 
ATOM      8  C   UNL     1       3.040  -1.630  -6.310  0.00  0.00    +0.058 A 
ATOM      9  C   UNL     1       1.702  -2.247  -6.346  0.00  0.00    +0.250 C 
ATOM     10  O   UNL     1       1.530  -3.310  -6.912  0.00  0.00    -0.270 OA
ATOM     11  N   UNL     1       0.673  -1.620  -5.745  0.00  0.00    -0.271 N 
ATOM     12  H   UNL     1       1.903   1.346  -5.695  0.00  0.00    +0.148 HD
ENDROOT
BRANCH   1  14
ATOM     13  C   UNL     1       0.379  -0.285  -2.573  0.00  0.00    +0.005 C 
ATOM     14  C   UNL     1       1.184  -0.719  -3.555  0.00  0.00    +0.015 C 
BRANCH  13  17
ATOM     15  C   UNL     1       1.362  -3.068  -1.388  0.00  0.00    +0.035 C 
ATOM     16  C   UNL     1       1.627  -1.700  -0.758  0.00  0.00    +0.107 C 
ATOM     17  C   UNL     1       0.606  -0.696  -1.244  0.00  0.00    -0.017 C 
ATOM     18  C   UNL     1      -0.063  -0.262  -0.106  0.00  0.00    +0.003 A 
ATOM     19  C   UNL     1      -1.114   0.665   0.090  0.00  0.00    +0.010 A 
ATOM     20  C   UNL     1      -1.580   0.897   1.342  0.00  0.00    +0.001 A 
ATOM     21  C   UNL     1      -1.048   0.242   2.457  0.00  0.00    +0.002 A 
ATOM     22  C   UNL     1      -0.041  -0.657   2.345  0.00  0.00    +0.026 A 
ATOM     23  C   UNL     1       0.501  -0.956   1.066  0.00  0.00    +0.043 A 
ATOM     24  N   UNL     1       1.464  -1.774   0.697  0.00  0.00    -0.378 N 
ATOM     25  H   UNL     1       1.984  -2.337   1.293  0.00  0.00    +0.160 HD
ENDBRANCH  13  17
ENDBRANCH   1  14
BRANCH  11  26
ATOM     26  C   UNL     1      -0.671  -2.193  -5.849  0.00  0.00    +0.145 C 
BRANCH  26  27
ATOM     27  C   UNL     1      -1.362  -1.632  -7.066  0.00  0.00    -0.030 A 
ATOM     28  C   UNL     1      -2.109  -0.473  -6.964  0.00  0.00    +0.005 A 
ATOM     29  C   UNL     1      -2.743   0.041  -8.079  0.00  0.00    +0.000 A 
ATOM     30  C   UNL     1      -2.630  -0.604  -9.297  0.00  0.00    +0.000 A 
ATOM     31  C   UNL     1      -1.883  -1.762  -9.399  0.00  0.00    +0.000 A 
ATOM     32  C   UNL     1      -1.245  -2.274  -8.284  0.00  0.00    +0.005 A 
ENDBRANCH  26  27
ENDBRANCH  11  26
TORSDOF 4
