REMARK  Name = ZINC35836948
REMARK  4 active torsions:
REMARK  status: ('A' for Active; 'I' for Inactive)
REMARK    1  A    between atoms: C_15  and  N_17
REMARK    2  A    between atoms: N_24  and  S_27
REMARK    3  A    between atoms: S_27  and  C_30
REMARK    4  A    between atoms: C_35  and  C_36
REMARK                            x       y       z     vdW  Elec       q    Type
REMARK                         _______ _______ _______ _____ _____    ______ ____
ROOT
ATOM      1  C   UNL     1      -0.998   0.089  -0.451  0.00  0.00    +0.000 A 
ATOM      2  C   UNL     1       0.054   0.985  -0.414  0.00  0.00    +0.000 A 
ATOM      3  C   UNL     1       1.350   0.515  -0.360  0.00  0.00    +0.005 A 
ATOM      4  C   UNL     1       1.605  -0.850  -0.339  0.00  0.00    -0.027 A 
ATOM      5  C   UNL     1       0.558  -1.743  -0.366  0.00  0.00    -0.041 A 
ATOM      6  C   UNL     1      -0.747  -1.267  -0.428  0.00  0.00    +0.004 A 
ATOM      7  C   UNL     1       0.755  -3.235  -0.316  0.00  0.00    +0.054 C 
ATOM      8  C   UNL     1       2.176  -3.610  -0.732  0.00  0.00    +0.113 C 
ATOM      9  N   UNL     1       3.108  -2.732  -0.005  0.00  0.00    -0.295 N 
ATOM     10  C   UNL     1       3.045  -1.296  -0.295  0.00  0.00    +0.143 C 
ATOM     11  C   UNL     1       4.008  -3.242   0.915  0.00  0.00    +0.220 A 
ATOM     12  N   UNL     1       4.032  -4.545   1.140  0.00  0.00    -0.219 NA
ATOM     13  C   UNL     1       4.883  -5.080   2.013  0.00  0.00    +0.054 A 
ATOM     14  C   UNL     1       5.752  -4.254   2.683  0.00  0.00    +0.030 A 
ATOM     15  C   UNL     1       5.700  -2.878   2.432  0.00  0.00    +0.131 A 
ATOM     16  N   UNL     1       4.827  -2.413   1.545  0.00  0.00    -0.199 NA
ATOM     17  C   UNL     1       6.767  -4.770   3.667  0.00  0.00    +0.149 C 
ATOM     18  N   UNL     1       6.479  -6.176   3.977  0.00  0.00    -0.172 NA
ATOM     19  C   UNL     1       6.146  -7.063   2.850  0.00  0.00    +0.116 C 
ATOM     20  C   UNL     1       4.841  -6.568   2.228  0.00  0.00    +0.073 C 
ENDROOT
BRANCH  15  21
ATOM     21  N   UNL     1       6.552  -2.011   3.096  0.00  0.00    -0.310 N 
ATOM     22  C   UNL     1       7.909  -1.748   2.592  0.00  0.00    +0.134 C 
ATOM     23  C   UNL     1       8.113  -0.230   2.522  0.00  0.00    +0.178 C 
ATOM     24  O   UNL     1       7.783   0.348   3.787  0.00  0.00    -0.377 OA
ATOM     25  C   UNL     1       6.418   0.171   4.173  0.00  0.00    +0.178 C 
ATOM     26  C   UNL     1       6.125  -1.321   4.324  0.00  0.00    +0.134 C 
ENDBRANCH  15  21
BRANCH  18  27
ATOM     27  S   UNL     1       6.527  -6.741   5.533  0.00  0.00    +0.062 S 
ATOM     28  O   UNL     1       6.626  -8.156   5.448  0.00  0.00    -0.153 OA
ATOM     29  O   UNL     1       7.484  -5.950   6.223  0.00  0.00    -0.153 OA
BRANCH  27  30
ATOM     30  C   UNL     1       4.962  -6.390   6.263  0.00  0.00    +0.123 A 
ATOM     31  C   UNL     1       4.861  -5.440   7.258  0.00  0.00    +0.030 A 
ATOM     32  C   UNL     1       3.634  -5.162   7.833  0.00  0.00    +0.002 A 
ATOM     33  C   UNL     1       2.499  -5.835   7.415  0.00  0.00    +0.001 A 
ATOM     34  C   UNL     1       2.585  -6.788   6.421  0.00  0.00    +0.021 A 
ATOM     35  C   UNL     1       3.820  -7.068   5.832  0.00  0.00    +0.078 A 
BRANCH  35  36
ATOM     36  C   UNL     1       3.916  -8.051   4.795  0.00  0.00    +0.101 C 
ATOM     37  N   UNL     1       3.992  -8.831   3.973  0.00  0.00    -0.191 NA
ENDBRANCH  35  36
ENDBRANCH  27  30
ENDBRANCH  18  27
TORSDOF 4
