REMARK  Name = ZINC13032308
REMARK  12 active torsions:
REMARK  status: ('A' for Active; 'I' for Inactive)
REMARK    1  A    between atoms: C_1  and  C_2
REMARK    2  A    between atoms: C_2  and  C_3
REMARK    3  A    between atoms: C_3  and  C_4
REMARK    4  A    between atoms: C_3  and  C_5
REMARK    5  A    between atoms: C_3  and  N_6
REMARK    6  A    between atoms: C_7  and  C_9
REMARK    7  A    between atoms: C_9  and  C_11
REMARK    8  A    between atoms: C_9  and  N_18
REMARK    9  A    between atoms: C_14  and  O_17
REMARK   10  A    between atoms: N_18  and  C_19
REMARK   11  A    between atoms: C_28  and  C_30
REMARK   12  A    between atoms: C_30  and  N_31
REMARK                            x       y       z     vdW  Elec       q    Type
REMARK                         _______ _______ _______ _____ _____    ______ ____
ROOT
ATOM      1  N   UNL     1      -5.558   3.846  -1.784  0.00  0.00    -0.254 N 
ATOM      2  C   UNL     1      -4.298   4.275  -1.569  0.00  0.00    +0.242 C 
ATOM      3  O   UNL     1      -3.452   4.125  -2.425  0.00  0.00    -0.273 OA
ENDROOT
BRANCH   1   4
ATOM      4  C   UNL     1      -6.558   4.112  -0.842  0.00  0.00    +0.038 A 
ATOM      5  C   UNL     1      -7.574   5.010  -1.139  0.00  0.00    +0.024 A 
ATOM      6  C   UNL     1      -8.560   5.265  -0.208  0.00  0.00    +0.006 A 
ATOM      7  C   UNL     1      -8.536   4.636   1.026  0.00  0.00    -0.044 A 
ATOM      8  C   UNL     1      -7.522   3.744   1.327  0.00  0.00    -0.042 A 
ATOM      9  C   UNL     1      -6.534   3.482   0.395  0.00  0.00    +0.027 A 
ATOM     10  C   UNL     1      -7.720   3.197   2.725  0.00  0.00    +0.036 C 
ATOM     11  C   UNL     1      -8.706   4.171   3.404  0.00  0.00    +0.009 C 
ATOM     12  C   UNL     1      -9.483   4.748   2.202  0.00  0.00    +0.036 C 
ENDBRANCH   1   4
BRANCH   1  13
ATOM     13  C   UNL     1      -5.880   3.102  -3.004  0.00  0.00    +0.197 C 
BRANCH  13  14
ATOM     14  C   UNL     1      -7.367   2.862  -3.068  0.00  0.00    -0.018 A 
ATOM     15  C   UNL     1      -8.008   2.221  -2.024  0.00  0.00    +0.009 A 
ATOM     16  C   UNL     1      -9.371   2.005  -2.078  0.00  0.00    +0.046 A 
ATOM     17  C   UNL     1     -10.095   2.421  -3.186  0.00  0.00    +0.117 A 
ATOM     18  C   UNL     1      -9.448   3.058  -4.235  0.00  0.00    +0.046 A 
ATOM     19  C   UNL     1      -8.086   3.277  -4.173  0.00  0.00    +0.009 A 
BRANCH  17  20
ATOM     20  O   UNL     1     -11.435   2.204  -3.244  0.00  0.00    -0.507 OA
ATOM     21  H   UNL     1     -11.680   1.359  -3.647  0.00  0.00    +0.292 HD
ENDBRANCH  17  20
ENDBRANCH  13  14
BRANCH  13  23
ATOM     22  N   UNL     1      -5.305   0.921  -4.020  0.00  0.00    -0.308 N 
ATOM     23  C   UNL     1      -5.158   1.779  -2.991  0.00  0.00    +0.239 C 
ATOM     24  O   UNL     1      -4.444   1.487  -2.055  0.00  0.00    -0.273 OA
ATOM     25  H   UNL     1      -5.876   1.155  -4.769  0.00  0.00    +0.149 HD
BRANCH  22  26
ATOM     26  C   UNL     1      -4.603  -0.365  -4.007  0.00  0.00    +0.029 C 
ATOM     27  C   UNL     1      -3.094  -0.121  -3.942  0.00  0.00    +0.031 C 
ATOM     28  C   UNL     1      -5.042  -1.174  -2.785  0.00  0.00    +0.031 C 
BRANCH  26  30
ATOM     29  C   UNL     1      -4.207  -2.485  -5.269  0.00  0.00    +0.006 C 
ATOM     30  C   UNL     1      -4.940  -1.142  -5.282  0.00  0.00    +0.022 C 
ENDBRANCH  26  30
ENDBRANCH  22  26
ENDBRANCH  13  23
ENDBRANCH   1  13
BRANCH   2  31
ATOM     31  C   UNL     1      -3.941   4.940  -0.265  0.00  0.00    +0.242 C 
BRANCH  31  32
ATOM     32  N   UNL     1      -2.502   5.211  -0.233  0.00  0.00    -0.235 N 
ATOM     33  C   UNL     1      -1.518   4.377   0.240  0.00  0.00    +0.090 A 
ATOM     34  C   UNL     1      -1.517   3.103   0.799  0.00  0.00    +0.029 A 
ATOM     35  C   UNL     1      -0.337   2.530   1.183  0.00  0.00    +0.002 A 
ATOM     36  C   UNL     1       0.865   3.205   1.011  0.00  0.00    +0.002 A 
ATOM     37  C   UNL     1       0.892   4.453   0.461  0.00  0.00    +0.032 A 
ATOM     38  C   UNL     1      -0.305   5.065   0.063  0.00  0.00    +0.113 A 
ATOM     39  N   UNL     1      -0.589   6.258  -0.496  0.00  0.00    -0.129 NA
ATOM     40  N   UNL     1      -1.857   6.374  -0.681  0.00  0.00    -0.064 NA
ENDBRANCH  31  32
ENDBRANCH   2  31
TORSDOF 9
