REMARK  Name = ZINC36002230
REMARK  6 active torsions:
REMARK  status: ('A' for Active; 'I' for Inactive)
REMARK    1  A    between atoms: C_1  and  C_2
REMARK    2  A    between atoms: C_2  and  C_3
REMARK    3  A    between atoms: C_3  and  N_4
REMARK    4  A    between atoms: C_15  and  C_30
REMARK    5  A    between atoms: N_17  and  C_23
REMARK    6  A    between atoms: C_20  and  C_22
REMARK                            x       y       z     vdW  Elec       q    Type
REMARK                         _______ _______ _______ _____ _____    ______ ____
ROOT
ATOM      1  N   UNL     1      -1.369  -2.010   2.374  0.00  0.00    -0.299 N 
ATOM      2  C   UNL     1      -1.371  -2.678   1.203  0.00  0.00    +0.302 C 
ATOM      3  O   UNL     1      -1.480  -2.070   0.156  0.00  0.00    -0.253 OA
ATOM      4  N   UNL     1      -1.251  -4.021   1.194  0.00  0.00    -0.283 N 
ATOM      5  C   UNL     1      -1.238  -4.780   2.452  0.00  0.00    +0.128 C 
ATOM      6  C   UNL     1      -2.341  -5.844   2.393  0.00  0.00    +0.125 C 
ATOM      7  N   UNL     1      -2.221  -6.575   1.124  0.00  0.00    -0.312 N 
ATOM      8  C   UNL     1      -2.233  -5.816  -0.135  0.00  0.00    +0.125 C 
ATOM      9  C   UNL     1      -1.136  -4.752  -0.076  0.00  0.00    +0.128 C 
ATOM     10  C   UNL     1      -2.098  -7.951   1.114  0.00  0.00    +0.136 A 
ATOM     11  C   UNL     1      -3.228  -8.775   0.951  0.00  0.00    +0.082 A 
ATOM     12  C   UNL     1      -4.610  -8.542   0.776  0.00  0.00    +0.073 A 
ATOM     13  N   UNL     1      -5.214  -9.692   0.676  0.00  0.00    -0.169 NA
ATOM     14  N   UNL     1      -4.277 -10.728   0.778  0.00  0.00    -0.214 N 
ATOM     15  C   UNL     1      -3.041 -10.171   0.949  0.00  0.00    +0.169 A 
ATOM     16  N   UNL     1      -1.810 -10.654   1.100  0.00  0.00    -0.213 NA
ATOM     17  C   UNL     1      -0.784  -9.845   1.248  0.00  0.00    +0.130 A 
ATOM     18  N   UNL     1      -0.910  -8.529   1.252  0.00  0.00    -0.217 NA
ATOM     19  C   UNL     1       0.590 -10.440   1.416  0.00  0.00    +0.088 C 
ATOM     20  C   UNL     1      -5.274  -7.191   0.715  0.00  0.00    +0.068 C 
ATOM     21  H   UNL     1      -1.354  -2.499   3.212  0.00  0.00    +0.150 HD
ENDROOT
BRANCH  14  22
ATOM     22  C   UNL     1      -4.558 -12.099   0.716  0.00  0.00    +0.068 A 
ATOM     23  C   UNL     1      -3.649 -12.969   0.127  0.00  0.00    +0.029 A 
ATOM     24  C   UNL     1      -3.929 -14.321   0.067  0.00  0.00    +0.022 A 
ATOM     25  C   UNL     1      -5.113 -14.808   0.593  0.00  0.00    +0.041 A 
ATOM     26  C   UNL     1      -6.020 -13.943   1.179  0.00  0.00    +0.022 A 
ATOM     27  C   UNL     1      -5.742 -12.591   1.247  0.00  0.00    +0.029 A 
ATOM     28 CL   UNL     1      -5.461 -16.506   0.515  0.00  0.00    -0.084 Cl
ENDBRANCH  14  22
BRANCH   1  29
ATOM     29  C   UNL     1      -1.389  -0.545   2.381  0.00  0.00    +0.105 C 
BRANCH  29  31
ATOM     30  C   UNL     1      -1.404   1.488   3.833  0.00  0.00    +0.005 C 
ATOM     31  C   UNL     1      -1.383  -0.042   3.826  0.00  0.00    +0.015 C 
ENDBRANCH  29  31
ENDBRANCH   1  29
TORSDOF 3
