REMARK  Name = ZINC20572224
REMARK  7 active torsions:
REMARK  status: ('A' for Active; 'I' for Inactive)
REMARK    1  A    between atoms: C_1  and  C_2
REMARK    2  A    between atoms: C_9  and  N_14
REMARK    3  A    between atoms: C_10  and  C_11
REMARK    4  A    between atoms: C_15  and  C_17
REMARK    5  A    between atoms: C_17  and  S_18
REMARK    6  A    between atoms: S_18  and  C_19
REMARK    7  A    between atoms: C_20  and  C_30
REMARK                            x       y       z     vdW  Elec       q    Type
REMARK                         _______ _______ _______ _____ _____    ______ ____
ROOT
ATOM      1  N   UNL     1      -1.802  -4.890  -0.005  0.00  0.00    -0.279 N 
ATOM      2  C   UNL     1      -2.035  -3.563   0.005  0.00  0.00    +0.228 C 
ATOM      3  O   UNL     1      -3.175  -3.148   0.019  0.00  0.00    -0.275 OA
ATOM      4  H   UNL     1      -0.768  -5.266  -0.018  0.00  0.00    +0.155 HD
ENDROOT
BRANCH   1  12
ATOM      5  C   UNL     1      -8.061  -9.579   0.130  0.00  0.00    +0.008 C 
ATOM      6  C   UNL     1      -6.663  -9.020   0.404  0.00  0.00    -0.009 C 
ATOM      7  C   UNL     1      -5.635  -9.770  -0.448  0.00  0.00    +0.008 C 
ATOM      8  C   UNL     1      -4.220  -9.394  -0.005  0.00  0.00    +0.037 C 
ATOM      9  C   UNL     1      -4.095  -7.875   0.003  0.00  0.00    -0.023 A 
ATOM     10  C   UNL     1      -5.192  -7.088   0.019  0.00  0.00    -0.004 A 
ATOM     11  S   UNL     1      -4.561  -5.433   0.021  0.00  0.00    -0.077 S 
ATOM     12  C   UNL     1      -2.864  -5.781   0.002  0.00  0.00    +0.084 A 
ATOM     13  C   UNL     1      -2.826  -7.168  -0.012  0.00  0.00    +0.068 A 
ATOM     14  C   UNL     1      -6.622  -7.531   0.033  0.00  0.00    +0.046 C 
BRANCH  13  15
ATOM     15  C   UNL     1      -1.552  -7.894  -0.036  0.00  0.00    +0.244 C 
ATOM     16  O   UNL     1      -1.009  -8.205   1.008  0.00  0.00    -0.270 OA
ATOM     17  N   UNL     1      -0.982  -8.216  -1.214  0.00  0.00    -0.325 N 
ATOM     18  H   UNL     1      -0.026  -8.760  -1.232  0.00  0.00    +0.145 HD
ATOM     19  H   UNL     1      -1.472  -7.934  -2.157  0.00  0.00    +0.145 HD
ENDBRANCH  13  15
ENDBRANCH   1  12
BRANCH   2  20
ATOM     20  C   UNL     1      -0.881  -2.594  -0.002  0.00  0.00    +0.172 C 
BRANCH  20  21
ATOM     21  S   UNL     1      -1.516  -0.899   0.013  0.00  0.00    -0.095 S 
BRANCH  21  22
ATOM     22  C   UNL     1       0.002  -0.004   0.002  0.00  0.00    +0.115 A 
ATOM     23  C   UNL     1      -0.017   1.402   0.010  0.00  0.00    +0.084 A 
ATOM     24  C   UNL     1       1.202   2.091   0.002  0.00  0.00    +0.027 A 
ATOM     25  C   UNL     1       2.369   1.345  -0.013  0.00  0.00    -0.025 A 
ATOM     26  C   UNL     1       2.312  -0.025  -0.022  0.00  0.00    +0.046 A 
ATOM     27  N   UNL     1       1.152  -0.661  -0.013  0.00  0.00    -0.244 NA
ATOM     28  C   UNL     1       3.594  -0.834  -0.044  0.00  0.00    +0.056 C 
ATOM     29  C   UNL     1       4.247  -0.672  -1.419  0.00  0.00    +0.006 C 
ATOM     30  C   UNL     1       5.117   0.569  -1.464  0.00  0.00    +0.001 C 
ATOM     31  C   UNL     1       4.349   1.874  -1.393  0.00  0.00    +0.005 C 
ATOM     32  C   UNL     1       3.707   2.055  -0.015  0.00  0.00    +0.037 C 
BRANCH  23  33
ATOM     33  C   UNL     1      -1.258   2.116   0.020  0.00  0.00    +0.102 C 
ATOM     34  N   UNL     1      -2.243   2.682   0.027  0.00  0.00    -0.191 NA
ENDBRANCH  23  33
ENDBRANCH  21  22
ENDBRANCH  20  21
ENDBRANCH   2  20
TORSDOF 6
