REMARK  Name = ZINC41585567
REMARK  8 active torsions:
REMARK  status: ('A' for Active; 'I' for Inactive)
REMARK    1  A    between atoms: C_1  and  C_2
REMARK    2  A    between atoms: C_2  and  N_3
REMARK    3  A    between atoms: C_5  and  C_12
REMARK    4  A    between atoms: C_17  and  C_38
REMARK    5  A    between atoms: C_19  and  O_37
REMARK    6  A    between atoms: C_20  and  C_23
REMARK    7  A    between atoms: C_23  and  N_24
REMARK    8  A    between atoms: N_27  and  C_30
REMARK                            x       y       z     vdW  Elec       q    Type
REMARK                         _______ _______ _______ _____ _____    ______ ____
ROOT
ATOM      1  C   UNL     1      -4.355  -1.760   1.684  0.00  0.00    +0.060 C 
ATOM      2  C   UNL     1      -4.100  -1.917   3.013  0.00  0.00    +0.176 C 
ATOM      3  C   UNL     1      -2.895  -1.560   3.675  0.00  0.00    +0.232 C 
ATOM      4  O   UNL     1      -1.897  -1.061   3.179  0.00  0.00    -0.283 OA
ATOM      5  C   UNL     1      -3.108  -1.921   5.087  0.00  0.00    +0.071 A 
ATOM      6  C   UNL     1      -2.318  -1.825   6.233  0.00  0.00    -0.033 A 
ATOM      7  C   UNL     1      -2.807  -2.256   7.434  0.00  0.00    +0.050 A 
ATOM      8  C   UNL     1      -4.090  -2.791   7.517  0.00  0.00    +0.122 A 
ATOM      9  C   UNL     1      -4.886  -2.891   6.388  0.00  0.00    +0.020 A 
ATOM     10  C   UNL     1      -4.404  -2.457   5.160  0.00  0.00    +0.145 A 
ATOM     11  O   UNL     1      -4.955  -2.433   3.928  0.00  0.00    -0.451 OA
ATOM     12  C   UNL     1      -0.928  -1.249   6.146  0.00  0.00    +0.045 C 
ENDROOT
BRANCH   1  15
ATOM     13  N   UNL     1      -1.275  -1.105  -0.161  0.00  0.00    -0.346 N 
ATOM     14  C   UNL     1      -1.954  -1.688   0.858  0.00  0.00    +0.094 A 
ATOM     15  C   UNL     1      -3.286  -1.343   0.779  0.00  0.00    +0.004 A 
ATOM     16  C   UNL     1      -3.417  -0.468  -0.402  0.00  0.00    +0.007 A 
ATOM     17  C   UNL     1      -2.127  -0.353  -0.944  0.00  0.00    +0.050 A 
ATOM     18  C   UNL     1      -1.932   0.426  -2.079  0.00  0.00    +0.026 A 
ATOM     19  C   UNL     1      -2.999   1.078  -2.658  0.00  0.00    +0.002 A 
ATOM     20  C   UNL     1      -4.272   0.966  -2.120  0.00  0.00    +0.001 A 
ATOM     21  C   UNL     1      -4.487   0.192  -1.000  0.00  0.00    +0.010 A 
BRANCH  13  23
ATOM     22  C   UNL     1       0.906  -0.079   0.254  0.00  0.00    +0.027 C 
ATOM     23  C   UNL     1       0.164  -1.249  -0.395  0.00  0.00    +0.118 C 
ENDBRANCH  13  23
ENDBRANCH   1  15
BRANCH   8  24
ATOM     24  O   UNL     1      -4.565  -3.217   8.716  0.00  0.00    -0.506 OA
ATOM     25  H   UNL     1      -5.028  -2.534   9.220  0.00  0.00    +0.292 HD
ENDBRANCH   8  24
BRANCH   9  26
ATOM     26  C   UNL     1      -6.273  -3.471   6.492  0.00  0.00    -0.035 C 
BRANCH  26  27
ATOM     27  N   UNL     1      -7.234  -2.396   6.772  0.00  0.00    +0.385 N 
ATOM     28  C   UNL     1      -6.945  -1.816   8.090  0.00  0.00    -0.059 C 
ATOM     29  C   UNL     1      -7.872  -0.621   8.335  0.00  0.00    +0.086 C 
ATOM     30  N   UNL     1      -9.263  -1.066   8.159  0.00  0.00    -0.333 N 
ATOM     31  C   UNL     1      -9.605  -1.804   6.933  0.00  0.00    +0.086 C 
ATOM     32  C   UNL     1      -8.596  -2.943   6.754  0.00  0.00    -0.059 C 
ATOM     33  H   UNL     1      -7.151  -1.680   6.066  0.00  0.00    -0.081 HD
BRANCH  30  34
ATOM     34  C   UNL     1     -10.233  -0.795   9.129  0.00  0.00    +0.030 A 
ATOM     35  C   UNL     1      -9.921   0.008  10.219  0.00  0.00    +0.026 A 
ATOM     36  C   UNL     1     -10.880   0.275  11.175  0.00  0.00    +0.040 A 
ATOM     37  C   UNL     1     -12.152  -0.258  11.050  0.00  0.00    +0.124 A 
ATOM     38  C   UNL     1     -12.465  -1.059   9.964  0.00  0.00    +0.040 A 
ATOM     39  C   UNL     1     -11.511  -1.324   9.002  0.00  0.00    +0.026 A 
ATOM     40  F   UNL     1     -13.089   0.004  11.987  0.00  0.00    -0.205 F 
ENDBRANCH  30  34
ENDBRANCH  26  27
ENDBRANCH   9  26
TORSDOF 6
