REMARK  Name = ZINC38653323
REMARK  6 active torsions:
REMARK  status: ('A' for Active; 'I' for Inactive)
REMARK    1  A    between atoms: C_1  and  N_2
REMARK    2  A    between atoms: N_9  and  C_12
REMARK    3  A    between atoms: N_13  and  C_28
REMARK    4  A    between atoms: N_16  and  N_17
REMARK    5  A    between atoms: C_18  and  C_19
REMARK    6  A    between atoms: C_28  and  C_29
REMARK                            x       y       z     vdW  Elec       q    Type
REMARK                         _______ _______ _______ _____ _____    ______ ____
ROOT
ATOM      1  C   UNL     1       0.154   1.192  -0.551  0.00  0.00    +0.136 C 
ATOM      2  N   UNL     1       0.058  -0.267  -0.473  0.00  0.00    -0.264 N 
ATOM      3  C   UNL     1      -1.250  -0.905  -0.257  0.00  0.00    +0.227 C 
ATOM      4  C   UNL     1      -1.251  -2.457  -0.216  0.00  0.00    +0.205 C 
ATOM      5  C   UNL     1       0.097  -3.121  -0.413  0.00  0.00    +0.247 C 
ATOM      6  O   UNL     1       0.195  -4.329  -0.391  0.00  0.00    -0.273 OA
ATOM      7  N   UNL     1       1.181  -2.352  -0.612  0.00  0.00    -0.227 N 
ATOM      8  C   UNL     1       1.162  -1.017  -0.606  0.00  0.00    +0.312 C 
ATOM      9  O   UNL     1       2.215  -0.440  -0.788  0.00  0.00    -0.252 OA
ATOM     10  C   UNL     1       2.472  -3.019  -0.798  0.00  0.00    +0.143 C 
ATOM     11  N   UNL     1      -1.686  -2.754   1.157  0.00  0.00    -0.283 N 
ATOM     12  C   UNL     1      -1.907  -1.571   1.808  0.00  0.00    +0.201 C 
ATOM     13  N   UNL     1      -1.696  -0.505   1.084  0.00  0.00    -0.229 NA
ATOM     14  N   UNL     1      -2.329  -1.507   3.120  0.00  0.00    -0.209 N 
ATOM     15  H   UNL     1      -2.482  -2.324   3.621  0.00  0.00    +0.177 HD
ENDROOT
BRANCH  14  16
ATOM     16  N   UNL     1      -2.538  -0.263   3.729  0.00  0.00    -0.188 NA
ATOM     17  C   UNL     1      -2.939  -0.202   4.975  0.00  0.00    +0.136 C 
BRANCH  17  18
ATOM     18  C   UNL     1      -3.147   1.042   5.584  0.00  0.00    +0.000 C 
ATOM     19  C   UNL     1      -3.564   1.281   6.893  0.00  0.00    +0.004 A 
ATOM     20  C   UNL     1      -3.891   0.419   7.962  0.00  0.00    +0.010 A 
ATOM     21  C   UNL     1      -4.275   0.942   9.155  0.00  0.00    +0.001 A 
ATOM     22  C   UNL     1      -4.356   2.322   9.357  0.00  0.00    +0.002 A 
ATOM     23  C   UNL     1      -4.058   3.208   8.376  0.00  0.00    +0.026 A 
ATOM     24  C   UNL     1      -3.648   2.736   7.100  0.00  0.00    +0.043 A 
ATOM     25  N   UNL     1      -3.309   3.379   6.002  0.00  0.00    -0.380 N 
ATOM     26  C   UNL     1      -2.960   2.408   4.960  0.00  0.00    +0.150 C 
ATOM     27  H   UNL     1      -3.289   4.344   5.899  0.00  0.00    +0.160 HD
ENDBRANCH  17  18
ENDBRANCH  14  16
BRANCH  11  28
ATOM     28  C   UNL     1      -1.854  -4.091   1.732  0.00  0.00    +0.143 C 
BRANCH  28  29
ATOM     29  C   UNL     1      -3.223  -4.618   1.386  0.00  0.00    -0.030 A 
ATOM     30  C   UNL     1      -4.293  -4.362   2.223  0.00  0.00    +0.006 A 
ATOM     31  C   UNL     1      -5.549  -4.845   1.907  0.00  0.00    +0.020 A 
ATOM     32  C   UNL     1      -5.735  -5.584   0.753  0.00  0.00    +0.041 A 
ATOM     33  C   UNL     1      -4.663  -5.840  -0.084  0.00  0.00    +0.020 A 
ATOM     34  C   UNL     1      -3.409  -5.352   0.230  0.00  0.00    +0.006 A 
ATOM     35 CL   UNL     1      -7.312  -6.192   0.356  0.00  0.00    -0.084 Cl
ENDBRANCH  28  29
ENDBRANCH  11  28
TORSDOF 4
