REMARK  Name = ZINC19940856
REMARK  8 active torsions:
REMARK  status: ('A' for Active; 'I' for Inactive)
REMARK    1  A    between atoms: C_1  and  C_2
REMARK    2  A    between atoms: C_5  and  C_39
REMARK    3  A    between atoms: C_9  and  C_14
REMARK    4  A    between atoms: C_14  and  C_16
REMARK    5  A    between atoms: C_14  and  N_26
REMARK    6  A    between atoms: N_20  and  C_21
REMARK    7  A    between atoms: N_29  and  C_32
REMARK    8  A    between atoms: C_32  and  C_33
REMARK                            x       y       z     vdW  Elec       q    Type
REMARK                         _______ _______ _______ _____ _____    ______ ____
ROOT
ATOM      1  C   UNL     1       2.531  -0.331  -0.056  0.00  0.00    +0.162 C 
ENDROOT
BRANCH   1  10
ATOM      2  C   UNL     1       4.443   2.787   3.651  0.00  0.00    +0.044 C 
ATOM      3  C   UNL     1       4.587   1.369   4.141  0.00  0.00    -0.041 A 
ATOM      4  C   UNL     1       5.141   1.119   5.364  0.00  0.00    +0.004 A 
ATOM      5  C   UNL     1       5.279  -0.183   5.824  0.00  0.00    +0.005 A 
ATOM      6  C   UNL     1       4.859  -1.249   5.056  0.00  0.00    -0.026 A 
ATOM      7  C   UNL     1       4.291  -1.018   3.808  0.00  0.00    +0.052 A 
ATOM      8  C   UNL     1       4.153   0.304   3.345  0.00  0.00    +0.002 A 
ATOM      9  C   UNL     1       3.558   0.536   2.027  0.00  0.00    +0.021 A 
ATOM     10  C   UNL     1       3.151  -0.535   1.303  0.00  0.00    +0.042 A 
ATOM     11  C   UNL     1       3.312  -1.841   1.813  0.00  0.00    +0.254 A 
ATOM     12  O   UNL     1       2.944  -2.790   1.143  0.00  0.00    -0.268 OA
ATOM     13  N   UNL     1       3.862  -2.064   3.019  0.00  0.00    -0.322 N 
ATOM     14  H   UNL     1       3.967  -3.100   3.375  0.00  0.00    +0.169 HD
ATOM     15  C   UNL     1       5.015  -2.658   5.568  0.00  0.00    +0.046 C 
ENDBRANCH   1  10
BRANCH   1  16
ATOM     16  N   UNL     1       3.273  -1.111  -1.055  0.00  0.00    -0.286 NA
ATOM     17  C   UNL     1       4.699  -0.754  -1.049  0.00  0.00    +0.101 C 
ATOM     18  C   UNL     1       5.448  -1.641  -2.045  0.00  0.00    +0.100 C 
ATOM     19  N   UNL     1       4.870  -1.466  -3.385  0.00  0.00    -0.296 NA
ATOM     20  C   UNL     1       3.444  -1.823  -3.391  0.00  0.00    +0.100 C 
ATOM     21  C   UNL     1       2.695  -0.935  -2.395  0.00  0.00    +0.101 C 
BRANCH  19  22
ATOM     22  C   UNL     1       5.612  -2.246  -4.385  0.00  0.00    +0.119 C 
BRANCH  22  23
ATOM     23  C   UNL     1       7.005  -1.688  -4.524  0.00  0.00    -0.033 A 
ATOM     24  C   UNL     1       7.264  -0.697  -5.451  0.00  0.00    +0.005 A 
ATOM     25  C   UNL     1       8.541  -0.182  -5.575  0.00  0.00    +0.000 A 
ATOM     26  C   UNL     1       9.561  -0.666  -4.778  0.00  0.00    +0.000 A 
ATOM     27  C   UNL     1       9.304  -1.661  -3.854  0.00  0.00    +0.000 A 
ATOM     28  C   UNL     1       8.026  -2.173  -3.727  0.00  0.00    +0.005 A 
ENDBRANCH  22  23
ENDBRANCH  19  22
ENDBRANCH   1  16
BRANCH   1  29
ATOM     29  C   UNL     1       1.095  -0.789  -0.026  0.00  0.00    +0.173 A 
ATOM     30  N   UNL     1       0.669  -2.028  -0.023  0.00  0.00    -0.111 NA
ATOM     31  N   UNL     1      -0.619  -2.006   0.005  0.00  0.00    -0.023 NA
ATOM     32  N   UNL     1      -1.025  -0.784   0.026  0.00  0.00    -0.044 NA
ATOM     33  N   UNL     1       0.002  -0.004   0.002  0.00  0.00    -0.224 N 
BRANCH  33  34
ATOM     34  C   UNL     1      -0.018   1.461   0.010  0.00  0.00    +0.111 C 
ATOM     35  C   UNL     1      -0.768   1.972   1.257  0.00  0.00    +0.027 C 
ATOM     36  C   UNL     1      -1.536   3.220   0.752  0.00  0.00    +0.002 C 
ATOM     37  C   UNL     1      -1.983   2.796  -0.668  0.00  0.00    +0.002 C 
ATOM     38  C   UNL     1      -0.790   1.984  -1.214  0.00  0.00    +0.027 C 
ENDBRANCH  33  34
ENDBRANCH   1  29
TORSDOF 6
