REMARK  Name = ZINC21167552
REMARK  13 active torsions:
REMARK  status: ('A' for Active; 'I' for Inactive)
REMARK    1  A    between atoms: C_1  and  C_2
REMARK    2  A    between atoms: C_3  and  C_17
REMARK    3  A    between atoms: C_4  and  C_16
REMARK    4  A    between atoms: C_8  and  C_15
REMARK    5  A    between atoms: N_10  and  C_11
REMARK    6  A    between atoms: C_11  and  C_12
REMARK    7  A    between atoms: C_11  and  C_13
REMARK    8  A    between atoms: C_11  and  C_14
REMARK    9  A    between atoms: C_17  and  C_18
REMARK   10  A    between atoms: C_18  and  C_19
REMARK   11  A    between atoms: N_21  and  C_22
REMARK   12  A    between atoms: C_22  and  C_23
REMARK   13  A    between atoms: N_27  and  C_29
REMARK                            x       y       z     vdW  Elec       q    Type
REMARK                         _______ _______ _______ _____ _____    ______ ____
ROOT
ATOM      1  C   UNL     1       0.385   1.673  -0.276  0.00  0.00    +0.046 C 
ENDROOT
BRANCH   1   4
ATOM      2  C   UNL     1      -1.747   0.270  -1.658  0.00  0.00    +0.045 C 
ATOM      3  C   UNL     1      -0.665  -0.492  -0.937  0.00  0.00    -0.033 A 
ATOM      4  C   UNL     1       0.344   0.167  -0.283  0.00  0.00    -0.022 A 
ATOM      5  C   UNL     1       1.330  -0.561   0.367  0.00  0.00    +0.044 A 
ATOM      6  N   UNL     1       1.318  -1.876   0.383  0.00  0.00    -0.232 NA
ATOM      7  C   UNL     1       0.367  -2.568  -0.232  0.00  0.00    +0.159 A 
ATOM      8  C   UNL     1      -0.662  -1.891  -0.916  0.00  0.00    +0.045 A 
ATOM      9  C   UNL     1      -1.534  -2.919  -1.475  0.00  0.00    +0.070 A 
ATOM     10  N   UNL     1      -1.044  -4.078  -1.138  0.00  0.00    -0.174 NA
ATOM     11  N   UNL     1       0.117  -3.906  -0.378  0.00  0.00    -0.241 N 
ATOM     12  C   UNL     1      -2.776  -2.683  -2.294  0.00  0.00    +0.068 C 
ATOM     13  C   UNL     1       2.438   0.173   1.077  0.00  0.00    +0.066 C 
BRANCH  11  14
ATOM     14  C   UNL     1       0.938  -4.987   0.174  0.00  0.00    +0.058 C 
ATOM     15  C   UNL     1       0.328  -6.337  -0.209  0.00  0.00    +0.036 C 
ATOM     16  C   UNL     1       2.357  -4.890  -0.391  0.00  0.00    +0.036 C 
ATOM     17  C   UNL     1       0.987  -4.863   1.698  0.00  0.00    +0.036 C 
ENDBRANCH  11  14
ENDBRANCH   1   4
BRANCH   1  18
ATOM     18  C   UNL     1      -0.392   2.199   0.932  0.00  0.00    +0.100 C 
BRANCH  18  19
ATOM     19  C   UNL     1      -0.351   3.705   0.939  0.00  0.00    +0.213 C 
ATOM     20  O   UNL     1       0.242   4.300   0.064  0.00  0.00    -0.276 OA
ATOM     21  N   UNL     1      -0.973   4.392   1.918  0.00  0.00    -0.315 N 
ATOM     22  H   UNL     1      -1.511   3.853   2.712  0.00  0.00    +0.149 HD
BRANCH  21  23
ATOM     23  C   UNL     1      -0.933   5.856   1.925  0.00  0.00    +0.105 C 
BRANCH  23  24
ATOM     24  C   UNL     1      -1.710   6.382   3.134  0.00  0.00    -0.012 C 
ATOM     25  C   UNL     1      -3.216   6.062   2.997  0.00  0.00    -0.015 C 
ATOM     26  C   UNL     1      -3.943   7.315   3.519  0.00  0.00    -0.078 C 
ATOM     27  N   UNL     1      -2.902   8.271   3.953  0.00  0.00    +0.382 N 
ATOM     28  C   UNL     1      -1.687   7.931   3.169  0.00  0.00    -0.074 C 
ATOM     29  H   UNL     1      -2.721   8.206   5.036  0.00  0.00    -0.081 HD
BRANCH  27  30
ATOM     30  C   UNL     1      -3.321   9.656   3.701  0.00  0.00    -0.069 C 
ATOM     31  C   UNL     1      -2.252  10.636   4.229  0.00  0.00    -0.015 C 
ATOM     32  C   UNL     1      -3.072  11.822   4.794  0.00  0.00    -0.002 C 
ATOM     33  C   UNL     1      -4.292  11.119   5.439  0.00  0.00    -0.002 C 
ATOM     34  C   UNL     1      -4.617   9.963   4.470  0.00  0.00    -0.015 C 
ENDBRANCH  27  30
ENDBRANCH  23  24
ENDBRANCH  21  23
ENDBRANCH  18  19
ENDBRANCH   1  18
TORSDOF 7
