REMARK  Name = ZINC16254802
REMARK  8 active torsions:
REMARK  status: ('A' for Active; 'I' for Inactive)
REMARK    1  A    between atoms: C_2  and  C_3
REMARK    2  A    between atoms: C_3  and  N_4
REMARK    3  A    between atoms: C_13  and  S_14
REMARK    4  A    between atoms: S_14  and  C_15
REMARK    5  A    between atoms: C_15  and  C_16
REMARK    6  A    between atoms: C_16  and  C_18
REMARK    7  A    between atoms: C_19  and  N_30
REMARK    8  A    between atoms: N_20  and  C_27
REMARK                            x       y       z     vdW  Elec       q    Type
REMARK                         _______ _______ _______ _____ _____    ______ ____
ROOT
ATOM      1  S   UNL     1       2.159   3.195   1.853  0.00  0.00    -0.080 S 
ENDROOT
BRANCH   1  11
ATOM      2  N   UNL     1       1.264   0.739   2.564  0.00  0.00    -0.283 N 
ATOM      3  C   UNL     1       0.643  -0.160   3.351  0.00  0.00    +0.263 A 
ATOM      4  O   UNL     1       0.599  -1.335   3.030  0.00  0.00    -0.267 OA
ATOM      5  C   UNL     1       0.037   0.284   4.568  0.00  0.00    +0.076 A 
ATOM      6  C   UNL     1      -0.681  -0.519   5.566  0.00  0.00    -0.023 A 
ATOM      7  C   UNL     1      -1.173   0.140   6.633  0.00  0.00    -0.004 A 
ATOM      8  S   UNL     1      -0.705   1.834   6.390  0.00  0.00    -0.073 S 
ATOM      9  C   UNL     1       0.145   1.656   4.842  0.00  0.00    +0.117 A 
ATOM     10  N   UNL     1       0.773   2.493   4.024  0.00  0.00    -0.216 NA
ATOM     11  C   UNL     1       1.328   2.058   2.911  0.00  0.00    +0.173 A 
ATOM     12  C   UNL     1      -1.951  -0.424   7.782  0.00  0.00    +0.043 C 
ATOM     13  C   UNL     1      -1.226  -1.661   8.326  0.00  0.00    +0.005 C 
ATOM     14  C   UNL     1      -1.735  -2.887   7.574  0.00  0.00    +0.001 C 
ATOM     15  C   UNL     1      -2.081  -2.509   6.134  0.00  0.00    +0.005 C 
ATOM     16  C   UNL     1      -0.839  -2.027   5.395  0.00  0.00    +0.037 C 
BRANCH   2  17
ATOM     17  C   UNL     1       1.887   0.293   1.316  0.00  0.00    +0.154 C 
BRANCH  17  19
ATOM     18  C   UNL     1       1.162   1.061  -0.885  0.00  0.00    +0.005 C 
ATOM     19  C   UNL     1       0.883   0.376   0.196  0.00  0.00    -0.013 C 
ENDBRANCH  17  19
ENDBRANCH   2  17
ENDBRANCH   1  11
BRANCH   1  20
ATOM     20  C   UNL     1       1.928   4.725   2.791  0.00  0.00    +0.157 C 
BRANCH  20  21
ATOM     21  C   UNL     1       2.576   5.869   2.055  0.00  0.00    +0.182 C 
ATOM     22  O   UNL     1       3.140   5.669   0.998  0.00  0.00    -0.291 OA
BRANCH  21  23
ATOM     23  C   UNL     1       2.528   7.173   2.594  0.00  0.00    +0.120 A 
ATOM     24  C   UNL     1       3.242   8.229   2.002  0.00  0.00    +0.116 A 
ATOM     25  N   UNL     1       3.159   9.474   2.556  0.00  0.00    -0.278 N 
ATOM     26  C   UNL     1       2.423   9.701   3.655  0.00  0.00    +0.331 A 
ATOM     27  O   UNL     1       2.386  10.827   4.113  0.00  0.00    -0.246 OA
ATOM     28  N   UNL     1       1.724   8.731   4.267  0.00  0.00    -0.274 N 
ATOM     29  H   UNL     1       1.189   8.948   5.083  0.00  0.00    +0.173 HD
ATOM     30  C   UNL     1       1.735   7.468   3.794  0.00  0.00    +0.266 A 
ATOM     31  O   UNL     1       1.101   6.591   4.351  0.00  0.00    -0.267 OA
BRANCH  25  32
ATOM     32  C   UNL     1       3.895  10.583   1.943  0.00  0.00    +0.094 C 
ATOM     33  C   UNL     1       3.139  11.894   1.719  0.00  0.00    +0.027 C 
ATOM     34  C   UNL     1       3.493  11.001   0.527  0.00  0.00    +0.027 C 
ENDBRANCH  25  32
BRANCH  24  35
ATOM     35  N   UNL     1       3.998   8.015   0.891  0.00  0.00    -0.344 N 
ATOM     36  H   UNL     1       3.773   7.295   0.282  0.00  0.00    +0.144 HD
ATOM     37  H   UNL     1       4.763   8.583   0.709  0.00  0.00    +0.144 HD
ENDBRANCH  24  35
ENDBRANCH  21  23
ENDBRANCH  20  21
ENDBRANCH   1  20
TORSDOF 8
