REMARK  Name = ZINC12198328
REMARK  6 active torsions:
REMARK  status: ('A' for Active; 'I' for Inactive)
REMARK    1  A    between atoms: C_4  and  C_7
REMARK    2  A    between atoms: C_9  and  C_12
REMARK    3  A    between atoms: C_12  and  C_13
REMARK    4  A    between atoms: C_13  and  N_14
REMARK    5  A    between atoms: C_15  and  C_17
REMARK    6  A    between atoms: C_20  and  C_23
REMARK                            x       y       z     vdW  Elec       q    Type
REMARK                         _______ _______ _______ _____ _____    ______ ____
ROOT
ATOM      1  N   UNL     1      -0.011   0.966   0.007  0.00  0.00    -0.312 N 
ATOM      2  C   UNL     1      -1.187   1.624   0.017  0.00  0.00    +0.257 C 
ATOM      3  O   UNL     1      -1.204   2.837   0.023  0.00  0.00    -0.272 OA
ATOM      4  H   UNL     1       0.002  -0.004   0.002  0.00  0.00    +0.149 HD
ENDROOT
BRANCH   2   5
ATOM      5  C   UNL     1      -2.482   0.853   0.018  0.00  0.00    +0.295 C 
ATOM      6  C   UNL     1      -2.713   0.161   1.383  0.00  0.00    +0.116 C 
ATOM      7  C   UNL     1      -3.562   1.175   2.127  0.00  0.00    +0.091 C 
ATOM      8  N   UNL     1      -4.025   2.022   1.269  0.00  0.00    -0.088 NA
ATOM      9  O   UNL     1      -3.614   1.744  -0.055  0.00  0.00    -0.380 OA
BRANCH   7  10
ATOM     10  C   UNL     1      -3.816   1.190   3.581  0.00  0.00    -0.000 A 
ATOM     11  C   UNL     1      -3.256   0.208   4.401  0.00  0.00    +0.011 A 
ATOM     12  C   UNL     1      -3.493   0.231   5.759  0.00  0.00    +0.020 A 
ATOM     13  C   UNL     1      -4.292   1.219   6.309  0.00  0.00    +0.041 A 
ATOM     14  C   UNL     1      -4.854   2.193   5.501  0.00  0.00    +0.020 A 
ATOM     15  C   UNL     1      -4.621   2.184   4.142  0.00  0.00    +0.011 A 
ATOM     16 CL   UNL     1      -4.591   1.237   8.019  0.00  0.00    -0.084 Cl
ENDBRANCH   7  10
ENDBRANCH   2   5
BRANCH   1  17
ATOM     17  C   UNL     1       1.248   1.716  -0.001  0.00  0.00    +0.113 C 
BRANCH  17  18
ATOM     18  C   UNL     1       2.424   0.737  -0.017  0.00  0.00    +0.117 C 
BRANCH  18  21
ATOM     19  C   UNL     1       5.478   2.550   0.536  0.00  0.00    +0.202 A 
ATOM     20  N   UNL     1       4.394   1.905   1.024  0.00  0.00    -0.191 NA
ATOM     21  C   UNL     1       3.719   1.508  -0.025  0.00  0.00    +0.229 A 
ATOM     22  O   UNL     1       4.390   1.921  -1.105  0.00  0.00    -0.338 OA
ATOM     23  N   UNL     1       5.393   2.514  -0.769  0.00  0.00    -0.056 NA
BRANCH  19  27
ATOM     24  C   UNL     1       8.574   4.368   2.815  0.00  0.00    +0.000 A 
ATOM     25  C   UNL     1       8.620   4.410   1.433  0.00  0.00    +0.001 A 
ATOM     26  C   UNL     1       7.618   3.822   0.689  0.00  0.00    +0.012 A 
ATOM     27  C   UNL     1       6.559   3.184   1.331  0.00  0.00    +0.022 A 
ATOM     28  C   UNL     1       6.514   3.149   2.723  0.00  0.00    +0.012 A 
ATOM     29  C   UNL     1       7.525   3.736   3.458  0.00  0.00    +0.001 A 
ENDBRANCH  19  27
ENDBRANCH  18  21
ENDBRANCH  17  18
ENDBRANCH   1  17
TORSDOF 6
