REMARK  Name = ZINC16167334
REMARK  10 active torsions:
REMARK  status: ('A' for Active; 'I' for Inactive)
REMARK    1  A    between atoms: C_1  and  C_2
REMARK    2  A    between atoms: C_5  and  O_8
REMARK    3  A    between atoms: O_8  and  C_9
REMARK    4  A    between atoms: C_9  and  C_10
REMARK    5  A    between atoms: C_12  and  C_15
REMARK    6  A    between atoms: C_15  and  C_16
REMARK    7  A    between atoms: C_16  and  O_18
REMARK    8  A    between atoms: O_18  and  C_19
REMARK    9  A    between atoms: C_19  and  C_20
REMARK   10  A    between atoms: C_29  and  C_31
REMARK                            x       y       z     vdW  Elec       q    Type
REMARK                         _______ _______ _______ _____ _____    ______ ____
ROOT
ATOM      1  C   UNL     1      -5.503   3.952   2.983  0.00  0.00    +0.313 C 
ATOM      2  O   UNL     1      -4.947   2.921   2.685  0.00  0.00    -0.250 OA
ENDROOT
BRANCH   1   3
ATOM      3  C   UNL     1      -5.381   5.159   2.089  0.00  0.00    +0.176 C 
BRANCH   3   6
ATOM      4  C   UNL     1      -2.545   4.034   0.036  0.00  0.00    +0.116 A 
ATOM      5  N   UNL     1      -3.308   4.329   1.063  0.00  0.00    -0.245 NA
ATOM      6  C   UNL     1      -4.519   4.819   0.900  0.00  0.00    +0.059 A 
ATOM      7  C   UNL     1      -4.976   5.005  -0.365  0.00  0.00    +0.070 A 
ATOM      8  S   UNL     1      -3.565   4.445  -1.308  0.00  0.00    -0.077 S 
BRANCH   4   9
ATOM      9  C   UNL     1      -1.145   3.475   0.026  0.00  0.00    +0.291 C 
BRANCH   9  10
ATOM     10  O   UNL     1      -1.202   2.048   0.019  0.00  0.00    -0.485 OA
BRANCH  10  15
ATOM     11  C   UNL     1       3.711  -0.707  -0.037  0.00  0.00    +0.044 C 
ATOM     12  C   UNL     1       2.396   0.030  -0.021  0.00  0.00    -0.050 A 
ATOM     13  C   UNL     1       1.208  -0.677  -0.013  0.00  0.00    +0.007 A 
ATOM     14  C   UNL     1       0.002  -0.004   0.002  0.00  0.00    +0.046 A 
ATOM     15  C   UNL     1      -0.017   1.383   0.010  0.00  0.00    +0.121 A 
ATOM     16  C   UNL     1       1.177   2.091   0.002  0.00  0.00    +0.046 A 
ATOM     17  C   UNL     1       2.380   1.413  -0.013  0.00  0.00    +0.007 A 
ENDBRANCH  10  15
ENDBRANCH   9  10
ENDBRANCH   4   9
ENDBRANCH   3   6
ENDBRANCH   1   3
BRANCH   1  18
ATOM     18  O   UNL     1      -6.228   4.021   4.110  0.00  0.00    -0.460 OA
BRANCH  18  19
ATOM     19  C   UNL     1      -6.301   2.820   4.922  0.00  0.00    +0.268 C 
BRANCH  19  20
ATOM     20  C   UNL     1      -7.152   3.086   6.137  0.00  0.00    +0.007 A 
ATOM     21  C   UNL     1      -7.712   4.306   6.343  0.00  0.00    +0.099 A 
ATOM     22  C   UNL     1      -8.507   4.528   7.488  0.00  0.00    +0.338 A 
ATOM     23  O   UNL     1      -9.006   5.626   7.659  0.00  0.00    -0.245 OA
ATOM     24  O   UNL     1      -8.724   3.563   8.394  0.00  0.00    -0.422 OA
ATOM     25  C   UNL     1      -8.194   2.329   8.251  0.00  0.00    +0.140 A 
ATOM     26  C   UNL     1      -7.394   2.037   7.132  0.00  0.00    +0.025 A 
ATOM     27  C   UNL     1      -6.842   0.761   6.982  0.00  0.00    +0.032 A 
ATOM     28  C   UNL     1      -7.088  -0.203   7.935  0.00  0.00    +0.045 A 
ATOM     29  C   UNL     1      -7.877   0.088   9.039  0.00  0.00    -0.029 A 
ATOM     30  C   UNL     1      -8.427   1.342   9.200  0.00  0.00    +0.051 A 
ATOM     31  C   UNL     1      -8.136  -0.978  10.073  0.00  0.00    +0.045 C 
ATOM     32 CL   UNL     1      -6.405  -1.789   7.755  0.00  0.00    -0.083 Cl
ENDBRANCH  19  20
ENDBRANCH  18  19
ENDBRANCH   1  18
TORSDOF 8
