REMARK  Name = ZINC39940552
REMARK  7 active torsions:
REMARK  status: ('A' for Active; 'I' for Inactive)
REMARK    1  A    between atoms: C_1  and  C_2
REMARK    2  A    between atoms: C_5  and  S_8
REMARK    3  A    between atoms: S_8  and  C_9
REMARK    4  A    between atoms: C_9  and  C_10
REMARK    5  A    between atoms: N_19  and  C_22
REMARK    6  A    between atoms: C_23  and  C_27
REMARK    7  A    between atoms: C_24  and  N_26
REMARK                            x       y       z     vdW  Elec       q    Type
REMARK                         _______ _______ _______ _____ _____    ______ ____
ROOT
ATOM      1  C   UNL     1       0.097  -6.485   1.871  0.00  0.00    +0.064 C 
ATOM      2  N   UNL     1       0.005  -7.330   0.891  0.00  0.00    -0.154 NA
ATOM      3  N   UNL     1      -0.042  -8.651   1.332  0.00  0.00    -0.115 NA
ATOM      4  C   UNL     1      -0.020  -8.725   2.607  0.00  0.00    +0.227 C 
ATOM      5  C   UNL     1       0.216  -7.300   3.123  0.00  0.00    +0.135 C 
ATOM      6  C   UNL     1       1.643  -7.343   3.709  0.00  0.00    +0.024 C 
ATOM      7  C   UNL     1       1.822  -6.151   4.626  0.00  0.00    -0.005 C 
ATOM      8  C   UNL     1       2.590  -4.977   4.036  0.00  0.00    -0.078 C 
ATOM      9  N   UNL     1       3.791  -5.457   3.341  0.00  0.00    +0.378 N 
ATOM     10  C   UNL     1       3.343  -6.196   2.158  0.00  0.00    -0.078 C 
ATOM     11  C   UNL     1       2.640  -7.478   2.571  0.00  0.00    -0.005 C 
ATOM     12  C   UNL     1       4.608  -4.310   2.926  0.00  0.00    -0.096 C 
ATOM     13  C   UNL     1       1.735  -8.625   4.522  0.00  0.00    +0.093 C 
ATOM     14  C   UNL     1       0.902  -9.678   4.417  0.00  0.00    +0.200 C 
ATOM     15  O   UNL     1      -0.098  -9.743   3.496  0.00  0.00    -0.425 OA
ATOM     16  H   UNL     1       4.319  -6.057   3.946  0.00  0.00    -0.082 HD
ENDROOT
BRANCH  14  17
ATOM     17  N   UNL     1       1.066 -10.734   5.274  0.00  0.00    -0.328 N 
ATOM     18  H   UNL     1       1.770 -10.714   5.940  0.00  0.00    +0.145 HD
ATOM     19  H   UNL     1       0.476 -11.502   5.215  0.00  0.00    +0.145 HD
ENDBRANCH  14  17
BRANCH  13  20
ATOM     20  C   UNL     1       2.819  -8.775   5.454  0.00  0.00    +0.100 C 
ATOM     21  N   UNL     1       3.676  -8.893   6.190  0.00  0.00    -0.191 NA
ENDBRANCH  13  20
BRANCH   1  22
ATOM     22  C   UNL     1       0.077  -4.981   1.735  0.00  0.00    +0.127 C 
BRANCH  22  23
ATOM     23  S   UNL     1      -0.276  -4.534   0.013  0.00  0.00    -0.119 S 
BRANCH  23  28
ATOM     24  C   UNL     1      -0.243   1.502   0.034  0.00  0.00    +0.044 C 
ATOM     25  C   UNL     1      -0.251  -0.005   0.029  0.00  0.00    -0.050 A 
ATOM     26  C   UNL     1      -0.496  -0.689  -1.148  0.00  0.00    +0.004 A 
ATOM     27  C   UNL     1      -0.505  -2.070  -1.157  0.00  0.00    +0.015 A 
ATOM     28  C   UNL     1      -0.266  -2.772   0.019  0.00  0.00    +0.008 A 
ATOM     29  C   UNL     1      -0.019  -2.081   1.199  0.00  0.00    +0.015 A 
ATOM     30  C   UNL     1      -0.007  -0.700   1.199  0.00  0.00    +0.004 A 
ENDBRANCH  23  28
ENDBRANCH  22  23
ENDBRANCH   1  22
TORSDOF 5
