REMARK  Name = ZINC18172544
REMARK  7 active torsions:
REMARK  status: ('A' for Active; 'I' for Inactive)
REMARK    1  A    between atoms: C_1  and  C_2
REMARK    2  A    between atoms: C_9  and  N_28
REMARK    3  A    between atoms: C_10  and  C_26
REMARK    4  A    between atoms: C_11  and  C_13
REMARK    5  A    between atoms: C_14  and  C_25
REMARK    6  A    between atoms: N_16  and  C_19
REMARK    7  A    between atoms: C_17  and  C_18
REMARK                            x       y       z     vdW  Elec       q    Type
REMARK                         _______ _______ _______ _____ _____    ______ ____
ROOT
ATOM      1  C   UNL     1      -0.332   1.343   0.261  0.00  0.00    +0.068 C 
ATOM      2  C   UNL     1      -0.242  -0.157   0.143  0.00  0.00    +0.068 A 
ATOM      3  C   UNL     1      -0.110  -0.876  -1.037  0.00  0.00    +0.049 A 
ATOM      4  C   UNL     1      -0.064  -2.205  -0.720  0.00  0.00    +0.222 A 
ATOM      5  N   UNL     1      -0.165  -2.308   0.615  0.00  0.00    -0.246 N 
ATOM      6  H   UNL     1      -0.163  -3.133   1.126  0.00  0.00    +0.192 HD
ATOM      7  N   UNL     1      -0.270  -1.010   1.139  0.00  0.00    -0.176 NA
ATOM      8  O   UNL     1       0.066  -3.177  -1.657  0.00  0.00    -0.423 OA
ATOM      9  C   UNL     1       0.425  -2.801  -2.901  0.00  0.00    +0.200 C 
ATOM     10  C   UNL     1       0.408  -1.521  -3.335  0.00  0.00    +0.098 C 
ATOM     11  C   UNL     1      -0.025  -0.374  -2.455  0.00  0.00    +0.105 C 
ENDROOT
BRANCH  11  12
ATOM     12  C   UNL     1      -1.376   0.125  -2.900  0.00  0.00    +0.009 A 
ATOM     13  C   UNL     1      -2.553  -0.628  -2.961  0.00  0.00    +0.065 A 
ATOM     14  N   UNL     1      -3.514   0.148  -3.392  0.00  0.00    -0.171 NA
ATOM     15  N   UNL     1      -2.979   1.422  -3.620  0.00  0.00    -0.236 N 
ATOM     16  C   UNL     1      -1.665   1.384  -3.305  0.00  0.00    +0.046 A 
ATOM     17  C   UNL     1      -0.696   2.534  -3.391  0.00  0.00    +0.066 C 
ATOM     18  C   UNL     1      -2.690  -2.083  -2.593  0.00  0.00    +0.068 C 
BRANCH  15  19
ATOM     19  C   UNL     1      -3.683   2.541  -4.088  0.00  0.00    +0.066 A 
ATOM     20  C   UNL     1      -3.112   3.373  -5.042  0.00  0.00    +0.028 A 
ATOM     21  C   UNL     1      -3.808   4.474  -5.501  0.00  0.00    +0.002 A 
ATOM     22  C   UNL     1      -5.072   4.748  -5.013  0.00  0.00    +0.000 A 
ATOM     23  C   UNL     1      -5.643   3.921  -4.063  0.00  0.00    +0.002 A 
ATOM     24  C   UNL     1      -4.955   2.815  -3.603  0.00  0.00    +0.028 A 
ENDBRANCH  15  19
ENDBRANCH  11  12
BRANCH   9  25
ATOM     25  N   UNL     1       0.831  -3.775  -3.779  0.00  0.00    -0.328 N 
ATOM     26  H   UNL     1       0.854  -4.703  -3.497  0.00  0.00    +0.145 HD
ATOM     27  H   UNL     1       1.095  -3.535  -4.681  0.00  0.00    +0.145 HD
ENDBRANCH   9  25
BRANCH  10  28
ATOM     28  C   UNL     1       0.817  -1.242  -4.678  0.00  0.00    +0.101 C 
ATOM     29  N   UNL     1       1.142  -1.022  -5.745  0.00  0.00    -0.191 NA
ENDBRANCH  10  28
TORSDOF 4
