REMARK  Name = ZINC08862354
REMARK  5 active torsions:
REMARK  status: ('A' for Active; 'I' for Inactive)
REMARK    1  A    between atoms: C_1  and  C_2
REMARK    2  A    between atoms: C_15  and  C_17
REMARK    3  A    between atoms: C_17  and  N_67
REMARK    4  A    between atoms: N_20  and  S_23
REMARK    5  A    between atoms: S_23  and  C_26
REMARK                            x       y       z     vdW  Elec       q    Type
REMARK                         _______ _______ _______ _____ _____    ______ ____
ROOT
ATOM      1  C   UNL     1      -3.230  -3.902  -2.759  0.00  0.00    -0.061 C 
ATOM      2  C   UNL     1      -3.440  -4.318  -1.299  0.00  0.00    +0.091 C 
ATOM      3  N   UNL     1      -3.588  -3.103  -0.483  0.00  0.00    -0.180 NA
ATOM      4  C   UNL     1      -4.571  -2.095  -0.909  0.00  0.00    +0.091 C 
ATOM      5  C   UNL     1      -4.312  -1.764  -2.388  0.00  0.00    -0.061 C 
ATOM      6  N   UNL     1      -4.346  -3.021  -3.167  0.00  0.00    +0.387 N 
ATOM      7  H   UNL     1      -5.234  -3.503  -2.984  0.00  0.00    -0.081 HD
ENDROOT
BRANCH   3   8
ATOM      8  S   UNL     1      -2.678  -2.879   0.881  0.00  0.00    +0.061 S 
ATOM      9  O   UNL     1      -2.287  -4.171   1.326  0.00  0.00    -0.153 OA
ATOM     10  O   UNL     1      -3.399  -1.975   1.707  0.00  0.00    -0.153 OA
BRANCH   8  11
ATOM     11  C   UNL     1      -1.203  -2.047   0.393  0.00  0.00    +0.106 A 
ATOM     12  C   UNL     1      -0.088  -2.774   0.018  0.00  0.00    +0.029 A 
ATOM     13  C   UNL     1       1.063  -2.116  -0.360  0.00  0.00    +0.006 A 
ATOM     14  C   UNL     1       1.113  -0.728  -0.367  0.00  0.00    -0.044 A 
ATOM     15  C   UNL     1       0.002  -0.004   0.002  0.00  0.00    -0.042 A 
ATOM     16  C   UNL     1      -1.156  -0.669   0.384  0.00  0.00    +0.032 A 
ATOM     17  C   UNL     1      -0.018   1.502   0.010  0.00  0.00    +0.035 C 
ATOM     18  C   UNL     1       1.404   2.059  -0.000  0.00  0.00    +0.005 C 
ATOM     19  C   UNL     1       2.176   1.390  -1.144  0.00  0.00    +0.005 C 
ATOM     20  C   UNL     1       2.407  -0.075  -0.777  0.00  0.00    +0.035 C 
ENDBRANCH   8  11
ENDBRANCH   3   8
BRANCH   6  21
ATOM     21  C   UNL     1      -4.250  -2.722  -4.610  0.00  0.00    +0.019 C 
BRANCH  21  35
ATOM     22  C   UNL     1      -6.585   0.535  -6.930  0.00  0.00    +0.029 C 
ATOM     23  C   UNL     1      -6.881  -0.957  -6.766  0.00  0.00    +0.087 C 
ATOM     24  C   UNL     1      -7.354  -1.532  -8.102  0.00  0.00    +0.118 C 
ATOM     25  C   UNL     1      -7.272  -3.035  -8.078  0.00  0.00    +0.219 C 
ATOM     26  O   UNL     1      -8.286  -3.691  -7.960  0.00  0.00    -0.275 OA
ATOM     27  N   UNL     1      -6.078  -3.660  -8.185  0.00  0.00    -0.284 N 
ATOM     28  C   UNL     1      -4.890  -2.920  -8.232  0.00  0.00    +0.055 A 
ATOM     29  C   UNL     1      -3.934  -3.171  -9.201  0.00  0.00    +0.025 A 
ATOM     30  C   UNL     1      -2.747  -2.433  -9.204  0.00  0.00    +0.002 A 
ATOM     31  C   UNL     1      -2.527  -1.463  -8.243  0.00  0.00    +0.002 A 
ATOM     32  C   UNL     1      -3.485  -1.203  -7.281  0.00  0.00    +0.025 A 
ATOM     33  C   UNL     1      -4.671  -1.920  -7.278  0.00  0.00    +0.058 A 
ATOM     34  N   UNL     1      -5.667  -1.648  -6.330  0.00  0.00    -0.268 N 
ATOM     35  C   UNL     1      -5.507  -2.011  -5.042  0.00  0.00    +0.204 C 
ATOM     36  O   UNL     1      -6.374  -1.765  -4.231  0.00  0.00    -0.277 OA
ATOM     37  H   UNL     1      -6.044  -4.628  -8.229  0.00  0.00    +0.155 HD
ENDBRANCH  21  35
ENDBRANCH   6  21
TORSDOF 4
