REMARK  Name = ZINC63996752
REMARK  9 active torsions:
REMARK  status: ('A' for Active; 'I' for Inactive)
REMARK    1  A    between atoms: C_1  and  O_2
REMARK    2  A    between atoms: O_2  and  C_3
REMARK    3  A    between atoms: C_6  and  C_9
REMARK    4  A    between atoms: C_9  and  N_10
REMARK    5  A    between atoms: N_10  and  C_11
REMARK    6  A    between atoms: C_14  and  C_16
REMARK    7  A    between atoms: C_16  and  N_17
REMARK    8  A    between atoms: C_20  and  C_25
REMARK    9  A    between atoms: C_25  and  C_26
REMARK                            x       y       z     vdW  Elec       q    Type
REMARK                         _______ _______ _______ _____ _____    ______ ____
ROOT
ATOM      1  N   UNL     1       7.040  -0.773  -4.437  0.00  0.00    -0.216 N 
ATOM      2  C   UNL     1       7.532  -0.451  -5.649  0.00  0.00    +0.244 C 
ATOM      3  O   UNL     1       7.442  -1.096  -6.672  0.00  0.00    -0.273 OA
ATOM      4  C   UNL     1       8.222   0.887  -5.469  0.00  0.00    +0.165 C 
ATOM      5  N   UNL     1       8.018   1.192  -4.043  0.00  0.00    -0.287 N 
ATOM      6  C   UNL     1       7.315   0.168  -3.527  0.00  0.00    +0.310 C 
ATOM      7  O   UNL     1       6.970   0.104  -2.363  0.00  0.00    -0.252 OA
ATOM      8  H   UNL     1       8.329   1.980  -3.568  0.00  0.00    +0.151 HD
ENDROOT
BRANCH   1   9
ATOM      9  C   UNL     1       6.290  -1.999  -4.153  0.00  0.00    +0.213 C 
BRANCH   9  11
ATOM     10  N   UNL     1       3.923  -2.713  -4.080  0.00  0.00    -0.293 N 
ATOM     11  C   UNL     1       4.821  -1.753  -4.377  0.00  0.00    +0.234 C 
ATOM     12  O   UNL     1       4.445  -0.690  -4.825  0.00  0.00    -0.274 OA
BRANCH  10  13
ATOM     13  C   UNL     1       4.364  -3.954  -3.438  0.00  0.00    +0.077 C 
ATOM     14  C   UNL     1       3.308  -5.031  -3.182  0.00  0.00    +0.024 C 
ATOM     15  C   UNL     1       3.877  -4.224  -2.013  0.00  0.00    +0.024 C 
ENDBRANCH  10  13
BRANCH  10  16
ATOM     16  C   UNL     1       2.507  -2.517  -4.399  0.00  0.00    +0.143 C 
BRANCH  16  20
ATOM     17  C   UNL     1       0.545  -0.659  -1.088  0.00  0.00    +0.120 A 
ATOM     18  C   UNL     1       1.117   0.120  -2.083  0.00  0.00    +0.046 A 
ATOM     19  C   UNL     1       1.751  -0.483  -3.152  0.00  0.00    +0.009 A 
ATOM     20  C   UNL     1       1.815  -1.862  -3.231  0.00  0.00    -0.030 A 
ATOM     21  C   UNL     1       1.246  -2.641  -2.241  0.00  0.00    +0.009 A 
ATOM     22  C   UNL     1       0.616  -2.042  -1.167  0.00  0.00    +0.046 A 
BRANCH  17  24
ATOM     23  C   UNL     1      -0.114   1.360  -0.020  0.00  0.00    +0.277 C 
ATOM     24  O   UNL     1      -0.079  -0.068  -0.035  0.00  0.00    -0.495 OA
ENDBRANCH  17  24
ENDBRANCH  16  20
ENDBRANCH  10  16
ENDBRANCH   9  11
ENDBRANCH   1   9
BRANCH   4  25
ATOM     25  C   UNL     1       7.566   1.954  -6.350  0.00  0.00    +0.065 C 
BRANCH  25  26
ATOM     26  C   UNL     1       8.345   3.240  -6.245  0.00  0.00    -0.039 C 
ATOM     27  C   UNL     1       9.317   3.672  -7.080  0.00  0.00    -0.001 A 
ATOM     28  C   UNL     1       9.919   3.096  -8.288  0.00  0.00    +0.010 A 
ATOM     29  C   UNL     1      10.898   3.779  -8.923  0.00  0.00    +0.001 A 
ATOM     30  C   UNL     1      11.352   5.021  -8.457  0.00  0.00    +0.002 A 
ATOM     31  C   UNL     1      10.848   5.614  -7.355  0.00  0.00    +0.026 A 
ATOM     32  C   UNL     1       9.813   4.985  -6.609  0.00  0.00    +0.043 A 
ATOM     33  N   UNL     1       9.173   5.350  -5.525  0.00  0.00    -0.380 N 
ATOM     34  C   UNL     1       8.192   4.311  -5.189  0.00  0.00    +0.144 C 
ATOM     35  H   UNL     1       9.320   6.171  -5.030  0.00  0.00    +0.160 HD
ENDBRANCH  25  26
ENDBRANCH   4  25
TORSDOF 8
