REMARK  Name = ZINC14038015
REMARK  8 active torsions:
REMARK  status: ('A' for Active; 'I' for Inactive)
REMARK    1  A    between atoms: C_1  and  C_2
REMARK    2  A    between atoms: C_5  and  C_9
REMARK    3  A    between atoms: N_11  and  N_12
REMARK    4  A    between atoms: C_13  and  C_15
REMARK    5  A    between atoms: C_15  and  C_17
REMARK    6  A    between atoms: C_15  and  O_18
REMARK    7  A    between atoms: O_18  and  C_19
REMARK    8  A    between atoms: C_22  and  N_25
REMARK                            x       y       z     vdW  Elec       q    Type
REMARK                         _______ _______ _______ _____ _____    ______ ____
ROOT
ATOM      1  N   UNL     1      -4.856   3.610  -0.270  0.00  0.00    -0.231 N 
ATOM      2  C   UNL     1      -6.055   3.021  -0.089  0.00  0.00    +0.270 C 
ATOM      3  O   UNL     1      -6.121   1.825   0.099  0.00  0.00    -0.270 OA
ATOM      4  H   UNL     1      -4.804   4.567  -0.420  0.00  0.00    +0.173 HD
ENDROOT
BRANCH   1   7
ATOM      5  C   UNL     1      -2.487   3.429  -0.424  0.00  0.00    +0.260 C 
ATOM      6  O   UNL     1      -2.422   4.628  -0.612  0.00  0.00    -0.269 OA
ATOM      7  N   UNL     1      -3.686   2.840  -0.242  0.00  0.00    -0.230 N 
ATOM      8  H   UNL     1      -3.739   1.883  -0.092  0.00  0.00    +0.173 HD
BRANCH   5  13
ATOM      9  C   UNL     1       2.318   0.264  -0.309  0.00  0.00    +0.045 C 
ATOM     10  C   UNL     1       1.060   1.093  -0.339  0.00  0.00    -0.036 A 
ATOM     11  C   UNL     1      -0.170   0.486  -0.153  0.00  0.00    +0.005 A 
ATOM     12  C   UNL     1      -1.325   1.238  -0.184  0.00  0.00    +0.013 A 
ATOM     13  C   UNL     1      -1.253   2.616  -0.395  0.00  0.00    +0.039 A 
ATOM     14  C   UNL     1      -0.010   3.223  -0.582  0.00  0.00    +0.028 A 
ATOM     15  C   UNL     1       1.139   2.458  -0.553  0.00  0.00    +0.021 A 
ATOM     16 BR   UNL     1       2.824   3.277  -0.807  0.00  0.00    -0.050 Br
ENDBRANCH   5  13
ENDBRANCH   1   7
BRANCH   2  17
ATOM     17  C   UNL     1      -7.314   3.849  -0.119  0.00  0.00    +0.257 C 
ATOM     18  C   UNL     1      -7.309   4.827   1.058  0.00  0.00    +0.062 C 
BRANCH  17  19
ATOM     19  O   UNL     1      -8.451   2.991  -0.020  0.00  0.00    -0.480 OA
BRANCH  19  20
ATOM     20  C   UNL     1      -9.621   3.454  -0.535  0.00  0.00    +0.122 A 
ATOM     21  C   UNL     1     -10.735   2.628  -0.581  0.00  0.00    +0.048 A 
ATOM     22  C   UNL     1     -11.923   3.103  -1.101  0.00  0.00    +0.036 A 
ATOM     23  C   UNL     1     -12.000   4.396  -1.585  0.00  0.00    +0.126 A 
ATOM     24  C   UNL     1     -10.890   5.219  -1.545  0.00  0.00    +0.036 A 
ATOM     25  C   UNL     1      -9.700   4.751  -1.021  0.00  0.00    +0.048 A 
BRANCH  23  26
ATOM     26  N   UNL     1     -13.274   4.900  -2.146  0.00  0.00    +0.056 N 
ATOM     27  O   UNL     1     -13.343   6.039  -2.572  0.00  0.00    -0.126 OA
ATOM     28  O   UNL     1     -14.252   4.176  -2.182  0.00  0.00    -0.126 OA
ENDBRANCH  23  26
ENDBRANCH  19  20
ENDBRANCH  17  19
ENDBRANCH   2  17
TORSDOF 6
