REMARK  Name = ZINC06198262
REMARK  13 active torsions:
REMARK  status: ('A' for Active; 'I' for Inactive)
REMARK    1  A    between atoms: C_1  and  C_2
REMARK    2  A    between atoms: C_2  and  C_3
REMARK    3  A    between atoms: C_10  and  C_15
REMARK    4  A    between atoms: C_15  and  C_17
REMARK    5  A    between atoms: C_15  and  N_67
REMARK    6  A    between atoms: N_21  and  C_22
REMARK    7  A    between atoms: C_22  and  C_23
REMARK    8  A    between atoms: C_23  and  O_24
REMARK    9  A    between atoms: O_24  and  C_25
REMARK   10  A    between atoms: C_26  and  C_27
REMARK   11  A    between atoms: C_26  and  N_67
REMARK   12  A    between atoms: C_33  and  C_34
REMARK   13  A    between atoms: C_33  and  N_67
REMARK                            x       y       z     vdW  Elec       q    Type
REMARK                         _______ _______ _______ _____ _____    ______ ____
ROOT
ATOM      1  C   UNL     1       6.003  -0.845  -0.394  0.00  0.00    +0.040 C 
ENDROOT
BRANCH   1   9
ATOM      2  C   UNL     1      -0.052  -1.002  -1.659  0.00  0.00    -0.047 A 
ATOM      3  C   UNL     1      -0.214   0.367  -1.816  0.00  0.00    +0.005 A 
ATOM      4  C   UNL     1       0.855   1.224  -1.667  0.00  0.00    +0.026 A 
ATOM      5  C   UNL     1       2.111   0.712  -1.356  0.00  0.00    +0.049 A 
ATOM      6  C   UNL     1       2.271  -0.677  -1.198  0.00  0.00    -0.001 A 
ATOM      7  C   UNL     1       1.172  -1.527  -1.354  0.00  0.00    +0.013 A 
ATOM      8  C   UNL     1       3.597  -1.206  -0.871  0.00  0.00    +0.017 A 
ATOM      9  C   UNL     1       4.626  -0.334  -0.731  0.00  0.00    +0.011 A 
ATOM     10  C   UNL     1       4.411   1.051  -0.899  0.00  0.00    +0.251 A 
ATOM     11  O   UNL     1       5.350   1.818  -0.770  0.00  0.00    -0.268 OA
ATOM     12  N   UNL     1       3.198   1.546  -1.200  0.00  0.00    -0.322 N 
ATOM     13  H   UNL     1       3.082   2.533  -1.312  0.00  0.00    +0.169 HD
BRANCH   2  15
ATOM     14  C   UNL     1      -1.342  -2.354  -3.289  0.00  0.00    +0.009 C 
ATOM     15  C   UNL     1      -1.237  -1.919  -1.827  0.00  0.00    +0.032 C 
ENDBRANCH   2  15
ENDBRANCH   1   9
BRANCH   1  16
ATOM     16  C   UNL     1       6.407  -0.340   0.967  0.00  0.00    +0.143 A 
ATOM     17  N   UNL     1       7.066   0.762   1.230  0.00  0.00    -0.115 NA
ATOM     18  N   UNL     1       7.215   0.842   2.507  0.00  0.00    -0.023 NA
ATOM     19  N   UNL     1       6.675  -0.185   3.065  0.00  0.00    -0.044 NA
ATOM     20  N   UNL     1       6.166  -0.938   2.149  0.00  0.00    -0.228 N 
BRANCH  20  21
ATOM     21  C   UNL     1       5.460  -2.204   2.356  0.00  0.00    +0.175 C 
BRANCH  21  22
ATOM     22  C   UNL     1       6.475  -3.345   2.451  0.00  0.00    +0.183 C 
BRANCH  22  23
ATOM     23  O   UNL     1       5.785  -4.586   2.610  0.00  0.00    -0.381 OA
ATOM     24  C   UNL     1       6.646  -5.722   2.709  0.00  0.00    +0.194 C 
ENDBRANCH  22  23
ENDBRANCH  21  22
ENDBRANCH  20  21
ENDBRANCH   1  16
BRANCH   1  25
ATOM     25  N   UNL     1       6.968  -0.338  -1.392  0.00  0.00    +0.397 N 
ATOM     26  H   UNL     1       7.191   0.640  -1.174  0.00  0.00    -0.079 HD
BRANCH  25  27
ATOM     27  C   UNL     1       8.211  -1.136  -1.343  0.00  0.00    -0.041 C 
BRANCH  27  28
ATOM     28  C   UNL     1       9.046  -0.657  -0.184  0.00  0.00    -0.064 A 
ATOM     29  C   UNL     1       9.841   0.465  -0.322  0.00  0.00    +0.002 A 
ATOM     30  C   UNL     1      10.603   0.907   0.743  0.00  0.00    +0.000 A 
ATOM     31  C   UNL     1      10.579   0.221   1.943  0.00  0.00    +0.000 A 
ATOM     32  C   UNL     1       9.789  -0.905   2.079  0.00  0.00    +0.000 A 
ATOM     33  C   UNL     1       9.022  -1.344   1.015  0.00  0.00    +0.002 A 
ENDBRANCH  27  28
ENDBRANCH  25  27
BRANCH  25  34
ATOM     34  C   UNL     1       6.378  -0.405  -2.746  0.00  0.00    -0.001 C 
BRANCH  34  35
ATOM     35  C   UNL     1       7.288   0.312  -3.709  0.00  0.00    +0.089 A 
ATOM     36  C   UNL     1       8.207  -0.267  -4.503  0.00  0.00    +0.042 A 
ATOM     37  C   UNL     1       8.828   0.770  -5.236  0.00  0.00    +0.041 A 
ATOM     38  C   UNL     1       8.252   1.921  -4.846  0.00  0.00    +0.195 A 
ATOM     39  O   UNL     1       7.316   1.637  -3.925  0.00  0.00    -0.470 OA
ENDBRANCH  34  35
ENDBRANCH  25  34
ENDBRANCH   1  25
TORSDOF 11
