REMARK  Name = ZINC39700979
REMARK  8 active torsions:
REMARK  status: ('A' for Active; 'I' for Inactive)
REMARK    1  A    between atoms: C_1  and  C_2
REMARK    2  A    between atoms: C_4  and  C_12
REMARK    3  A    between atoms: C_5  and  C_11
REMARK    4  A    between atoms: CA_7  and  C_8
REMARK    5  A    between atoms: C_12  and  C_14
REMARK    6  A    between atoms: C_15  and  C_16
REMARK    7  A    between atoms: C_17  and  C_30
REMARK    8  A    between atoms: N_19  and  C_23
REMARK                            x       y       z     vdW  Elec       q    Type
REMARK                         _______ _______ _______ _____ _____    ______ ____
ROOT
ATOM      1  C   UNL     1      -0.697   0.430  -2.986  0.00  0.00    +0.051 C 
ATOM      2  C   UNL     1      -0.999   0.618  -4.305  0.00  0.00    +0.012 C 
ENDROOT
BRANCH   2   3
ATOM      3  C   UNL     1      -2.128   1.369  -4.666  0.00  0.00    +0.007 C 
ATOM      4  C   UNL     1      -2.554   1.633  -5.925  0.00  0.00    +0.025 C 
ATOM      5  N   UNL     1      -3.680   2.389  -5.922  0.00  0.00    -0.266 N 
ATOM      6  N   UNL     1      -4.085   2.683  -4.614  0.00  0.00    -0.231 N 
ATOM      7  C   UNL     1      -3.108   2.035  -3.724  0.00  0.00    +0.216 C 
ATOM      8 CL   UNL     1      -2.269   3.268  -2.710  0.00  0.00    -0.094 Cl
ATOM      9  C   UNL     1      -1.862   1.148  -7.173  0.00  0.00    +0.062 C 
ATOM     10  H   UNL     1      -4.144   2.686  -6.720  0.00  0.00    +0.170 HD
BRANCH   6  11
ATOM     11  C   UNL     1      -5.199   3.437  -4.230  0.00  0.00    +0.050 A 
ATOM     12  C   UNL     1      -5.466   3.647  -2.884  0.00  0.00    +0.027 A 
ATOM     13  C   UNL     1      -6.566   4.393  -2.507  0.00  0.00    +0.040 A 
ATOM     14  C   UNL     1      -7.402   4.930  -3.470  0.00  0.00    +0.124 A 
ATOM     15  C   UNL     1      -7.138   4.722  -4.813  0.00  0.00    +0.040 A 
ATOM     16  C   UNL     1      -6.036   3.982  -5.195  0.00  0.00    +0.027 A 
ATOM     17  F   UNL     1      -8.478   5.658  -3.099  0.00  0.00    -0.205 F 
ENDBRANCH   6  11
ENDBRANCH   2   3
BRANCH   1  18
ATOM     18  C   UNL     1       0.436  -0.324  -2.623  0.00  0.00    +0.184 C 
ATOM     19  O   UNL     1       1.148  -0.809  -3.488  0.00  0.00    -0.288 OA
BRANCH  18  22
ATOM     20  C   UNL     1      -0.019   1.526   0.010  0.00  0.00    +0.019 C 
ATOM     21  C   UNL     1       0.002  -0.004   0.002  0.00  0.00    +0.075 C 
ATOM     22  C   UNL     1       0.762  -0.525  -1.205  0.00  0.00    +0.027 C 
ATOM     23  C   UNL     1       1.805  -1.218  -0.687  0.00  0.00    +0.021 C 
ATOM     24  N   UNL     1       1.806  -1.205   0.645  0.00  0.00    -0.355 N 
ATOM     25  CA  UNL     1       0.812  -0.537   1.168  0.00  0.00    +0.113 C 
ATOM     26  C   UNL     1       2.844  -1.922  -1.522  0.00  0.00    +0.064 C 
ATOM     27  H   UNL     1       2.482  -1.652   1.179  0.00  0.00    +0.165 HD
BRANCH  25  28
ATOM     28  C   UNL     1       0.533  -0.338   2.600  0.00  0.00    +0.399 C 
ATOM     29  O   UNL     1       1.274  -0.828   3.442  0.00  0.00    -0.239 OA
ATOM     30  OXT UNL     1      -0.439   0.316   2.949  0.00  0.00    -0.239 OA
ENDBRANCH  25  28
ENDBRANCH  18  22
ENDBRANCH   1  18
TORSDOF 5
