REMARK  Name = ZINC04944452
REMARK  5 active torsions:
REMARK  status: ('A' for Active; 'I' for Inactive)
REMARK    1  A    between atoms: C_1  and  C_2
REMARK    2  A    between atoms: C_2  and  C_3
REMARK    3  A    between atoms: C_3  and  S_4
REMARK    4  A    between atoms: S_4  and  C_5
REMARK    5  A    between atoms: C_17  and  C_19
REMARK                            x       y       z     vdW  Elec       q    Type
REMARK                         _______ _______ _______ _____ _____    ______ ____
ROOT
ATOM      1  C   UNL     1      -3.112  -2.797   0.017  0.00  0.00    +0.171 A 
ATOM      2  N   UNL     1      -3.453  -4.116   0.019  0.00  0.00    -0.302 N 
ATOM      3  H   UNL     1      -2.760  -4.795   0.012  0.00  0.00    +0.171 HD
ATOM      4  C   UNL     1      -4.754  -4.478   0.029  0.00  0.00    +0.258 A 
ATOM      5  O   UNL     1      -5.072  -5.657   0.031  0.00  0.00    -0.267 OA
ATOM      6  C   UNL     1      -5.728  -3.476   0.039  0.00  0.00    +0.065 A 
ATOM      7  C   UNL     1      -5.331  -2.150   0.037  0.00  0.00    +0.137 A 
ATOM      8  N   UNL     1      -4.028  -1.850   0.031  0.00  0.00    -0.208 NA
ATOM      9  N   UNL     1      -6.282  -1.143   0.047  0.00  0.00    -0.270 N 
ATOM     10  C   UNL     1      -7.555  -1.399  -0.305  0.00  0.00    +0.219 C 
ATOM     11  O   UNL     1      -8.376  -0.506  -0.274  0.00  0.00    -0.275 OA
ATOM     12  C   UNL     1      -7.974  -2.778  -0.738  0.00  0.00    +0.109 C 
ATOM     13  C   UNL     1      -7.191  -3.829   0.050  0.00  0.00    +0.066 C 
ATOM     14  H   UNL     1      -6.028  -0.245   0.310  0.00  0.00    +0.156 HD
ENDROOT
BRANCH  13  15
ATOM     15  C   UNL     1      -7.688  -3.864   1.473  0.00  0.00    -0.036 A 
ATOM     16  C   UNL     1      -7.616  -2.727   2.256  0.00  0.00    +0.008 A 
ATOM     17  C   UNL     1      -8.072  -2.754   3.561  0.00  0.00    +0.050 A 
ATOM     18  C   UNL     1      -8.601  -3.921   4.087  0.00  0.00    +0.166 A 
ATOM     19  C   UNL     1      -8.673  -5.066   3.298  0.00  0.00    +0.167 A 
ATOM     20  C   UNL     1      -8.220  -5.031   1.989  0.00  0.00    +0.053 A 
ATOM     21  O   UNL     1      -9.226  -6.072   4.037  0.00  0.00    -0.453 OA
ATOM     22  C   UNL     1      -9.116  -5.647   5.408  0.00  0.00    +0.466 C 
ATOM     23  O   UNL     1      -9.109  -4.209   5.321  0.00  0.00    -0.453 OA
ENDBRANCH  13  15
BRANCH   1  24
ATOM     24  S   UNL     1      -1.409  -2.348   0.003  0.00  0.00    -0.088 S 
BRANCH  24  25
ATOM     25  C   UNL     1      -1.433  -0.534   0.013  0.00  0.00    +0.077 C 
BRANCH  25  27
ATOM     26  C   UNL     1      -0.019   1.526   0.010  0.00  0.00    +0.004 C 
ATOM     27  C   UNL     1       0.002  -0.004   0.002  0.00  0.00    +0.008 C 
ENDBRANCH  25  27
ENDBRANCH  24  25
ENDBRANCH   1  24
TORSDOF 4
