REMARK  Name = ZINC06149315
REMARK  13 active torsions:
REMARK  status: ('A' for Active; 'I' for Inactive)
REMARK    1  A    between atoms: C_1  and  C_2
REMARK    2  A    between atoms: C_2  and  C_3
REMARK    3  A    between atoms: C_3  and  C_4
REMARK    4  A    between atoms: C_3  and  C_5
REMARK    5  A    between atoms: C_3  and  N_6
REMARK    6  A    between atoms: C_7  and  C_11
REMARK    7  A    between atoms: C_11  and  C_13
REMARK    8  A    between atoms: C_11  and  N_70
REMARK    9  A    between atoms: C_19  and  C_25
REMARK   10  A    between atoms: C_26  and  C_27
REMARK   11  A    between atoms: C_26  and  N_70
REMARK   12  A    between atoms: C_32  and  C_33
REMARK   13  A    between atoms: C_32  and  N_70
REMARK                            x       y       z     vdW  Elec       q    Type
REMARK                         _______ _______ _______ _____ _____    ______ ____
ROOT
ATOM      1  C   UNL     1      -3.478   6.572   1.095  0.00  0.00    +0.039 C 
ENDROOT
BRANCH   1   2
ATOM      2  C   UNL     1      -2.498   5.482   0.746  0.00  0.00    +0.011 A 
ATOM      3  C   UNL     1      -2.886   4.184   0.793  0.00  0.00    +0.017 A 
ATOM      4  C   UNL     1      -1.909   3.149   0.449  0.00  0.00    -0.001 A 
ATOM      5  C   UNL     1      -2.253   1.793   0.473  0.00  0.00    +0.010 A 
ATOM      6  C   UNL     1      -1.316   0.852   0.152  0.00  0.00    +0.001 A 
ATOM      7  C   UNL     1      -0.030   1.229  -0.209  0.00  0.00    +0.005 A 
ATOM      8  C   UNL     1       0.329   2.559  -0.245  0.00  0.00    -0.026 A 
ATOM      9  C   UNL     1      -0.606   3.535   0.083  0.00  0.00    +0.052 A 
ATOM     10  N   UNL     1      -0.275   4.873   0.055  0.00  0.00    -0.322 N 
ATOM     11  H   UNL     1       0.651   5.146  -0.205  0.00  0.00    +0.169 HD
ATOM     12  C   UNL     1      -1.178   5.816   0.373  0.00  0.00    +0.251 A 
ATOM     13  O   UNL     1      -0.850   6.990   0.338  0.00  0.00    -0.268 OA
ATOM     14  C   UNL     1       1.728   2.954  -0.639  0.00  0.00    +0.046 C 
ENDBRANCH   1   2
BRANCH   1  16
ATOM     15  N   UNL     1      -4.657   7.654  -0.891  0.00  0.00    -0.225 N 
ATOM     16  C   UNL     1      -3.602   7.526  -0.065  0.00  0.00    +0.143 A 
ATOM     17  N   UNL     1      -2.701   8.388  -0.469  0.00  0.00    -0.115 NA
ATOM     18  N   UNL     1      -3.180   9.017  -1.487  0.00  0.00    -0.023 NA
ATOM     19  N   UNL     1      -4.363   8.578  -1.742  0.00  0.00    -0.043 NA
BRANCH  15  20
ATOM     20  C   UNL     1      -5.906   6.891  -0.832  0.00  0.00    +0.061 C 
ATOM     21  C   UNL     1      -5.595   5.396  -0.933  0.00  0.00    +0.036 C 
ATOM     22  C   UNL     1      -6.616   7.176   0.492  0.00  0.00    +0.036 C 
BRANCH  20  24
ATOM     23  C   UNL     1      -8.115   6.505  -1.934  0.00  0.00    +0.006 C 
ATOM     24  C   UNL     1      -6.811   7.303  -1.995  0.00  0.00    +0.026 C 
ENDBRANCH  20  24
ENDBRANCH  15  20
ENDBRANCH   1  16
BRANCH   1  25
ATOM     25  N   UNL     1      -2.977   7.313   2.272  0.00  0.00    +0.394 N 
ATOM     26  H   UNL     1      -2.106   7.794   2.017  0.00  0.00    -0.080 HD
BRANCH  25  27
ATOM     27  C   UNL     1      -3.973   8.319   2.697  0.00  0.00    -0.034 C 
BRANCH  27  28
ATOM     28  C   UNL     1      -3.841   9.532   1.813  0.00  0.00    -0.027 A 
ATOM     29  C   UNL     1      -4.581   9.887   0.735  0.00  0.00    +0.009 A 
ATOM     30  C   UNL     1      -4.278  11.061   0.070  0.00  0.00    +0.008 A 
ATOM     31  C   UNL     1      -3.242  11.817   0.511  0.00  0.00    +0.045 A 
ATOM     32  S   UNL     1      -2.664  10.871   1.910  0.00  0.00    -0.103 S 
ENDBRANCH  27  28
ENDBRANCH  25  27
BRANCH  25  33
ATOM     33  C   UNL     1      -2.701   6.375   3.380  0.00  0.00    -0.045 C 
BRANCH  33  34
ATOM     34  C   UNL     1      -1.256   5.887   3.257  0.00  0.00    +0.102 C 
ATOM     35  C   UNL     1      -0.885   4.995   4.462  0.00  0.00    +0.032 C 
ATOM     36  C   UNL     1       0.586   5.359   4.760  0.00  0.00    +0.030 C 
ATOM     37  C   UNL     1       0.930   6.428   3.699  0.00  0.00    +0.160 C 
ATOM     38  O   UNL     1      -0.342   7.003   3.328  0.00  0.00    -0.378 OA
ENDBRANCH  33  34
ENDBRANCH  25  33
ENDBRANCH   1  25
TORSDOF 9
