REMARK  Name = ZINC59016941
REMARK  6 active torsions:
REMARK  status: ('A' for Active; 'I' for Inactive)
REMARK    1  A    between atoms: C_6  and  C_7
REMARK    2  A    between atoms: C_7  and  S_8
REMARK    3  A    between atoms: S_8  and  C_9
REMARK    4  A    between atoms: N_15  and  N_16
REMARK    5  A    between atoms: C_17  and  C_18
REMARK    6  A    between atoms: C_23  and  O_24
REMARK                            x       y       z     vdW  Elec       q    Type
REMARK                         _______ _______ _______ _____ _____    ______ ____
ROOT
ATOM      1  C   UNL     1      -3.335  -1.973  -1.518  0.00  0.00    +0.191 A 
ATOM      2  N   UNL     1      -4.119  -2.435  -2.536  0.00  0.00    -0.303 N 
ATOM      3  H   UNL     1      -3.945  -2.326  -3.484  0.00  0.00    +0.171 HD
ATOM      4  C   UNL     1      -5.192  -3.078  -1.985  0.00  0.00    +0.235 A 
ATOM      5  N   UNL     1      -5.075  -3.016  -0.680  0.00  0.00    -0.111 NA
ATOM      6  N   UNL     1      -3.896  -2.321  -0.384  0.00  0.00    -0.121 NA
ATOM      7  N   UNL     1      -6.224  -3.689  -2.683  0.00  0.00    -0.205 N 
ATOM      8  H   UNL     1      -6.224  -3.682  -3.652  0.00  0.00    +0.177 HD
ENDROOT
BRANCH   7   9
ATOM      9  N   UNL     1      -7.267  -4.314  -1.986  0.00  0.00    -0.187 NA
ATOM     10  C   UNL     1      -8.233  -4.886  -2.640  0.00  0.00    +0.142 C 
BRANCH  10  11
ATOM     11  C   UNL     1      -9.329  -5.544  -1.907  0.00  0.00    +0.037 A 
ATOM     12  C   UNL     1     -10.367  -6.165  -2.606  0.00  0.00    +0.028 A 
ATOM     13  C   UNL     1     -11.391  -6.779  -1.914  0.00  0.00    +0.019 A 
ATOM     14  C   UNL     1     -11.393  -6.783  -0.529  0.00  0.00    +0.019 A 
ATOM     15  C   UNL     1     -10.371  -6.171   0.173  0.00  0.00    +0.047 A 
ATOM     16  C   UNL     1      -9.333  -5.556  -0.506  0.00  0.00    +0.126 A 
ATOM     17 BR   UNL     1     -12.796  -7.620  -2.861  0.00  0.00    -0.050 Br
BRANCH  16  18
ATOM     18  O   UNL     1      -8.326  -4.960   0.184  0.00  0.00    -0.506 OA
ATOM     19  H   UNL     1      -8.486  -4.029   0.388  0.00  0.00    +0.292 HD
ENDBRANCH  16  18
ENDBRANCH  10  11
ENDBRANCH   7   9
BRANCH   1  20
ATOM     20  S   UNL     1      -1.829  -1.075  -1.696  0.00  0.00    -0.081 S 
BRANCH  20  21
ATOM     21  C   UNL     1      -1.293  -0.775   0.011  0.00  0.00    +0.112 C 
BRANCH  21  27
ATOM     22  C   UNL     1      -0.017   1.378   0.010  0.00  0.00    +0.006 A 
ATOM     23  C   UNL     1       1.171   2.086   0.002  0.00  0.00    +0.020 A 
ATOM     24  C   UNL     1       2.378   1.410  -0.013  0.00  0.00    +0.041 A 
ATOM     25  C   UNL     1       2.396   0.027  -0.021  0.00  0.00    +0.020 A 
ATOM     26  C   UNL     1       1.208  -0.679  -0.013  0.00  0.00    +0.006 A 
ATOM     27  C   UNL     1       0.002  -0.004   0.002  0.00  0.00    -0.037 A 
ATOM     28 CL   UNL     1       3.870   2.298  -0.023  0.00  0.00    -0.084 Cl
ENDBRANCH  21  27
ENDBRANCH  20  21
ENDBRANCH   1  20
TORSDOF 6
