REMARK  Name = ZINC13943599
REMARK  10 active torsions:
REMARK  status: ('A' for Active; 'I' for Inactive)
REMARK    1  A    between atoms: C_1  and  C_2
REMARK    2  A    between atoms: C_2  and  O_3
REMARK    3  A    between atoms: O_3  and  C_4
REMARK    4  A    between atoms: C_6  and  C_20
REMARK    5  A    between atoms: C_9  and  O_10
REMARK    6  A    between atoms: O_10  and  C_11
REMARK    7  A    between atoms: C_11  and  C_12
REMARK    8  A    between atoms: C_15  and  C_18
REMARK    9  A    between atoms: N_21  and  N_22
REMARK   10  A    between atoms: C_23  and  C_24
REMARK                            x       y       z     vdW  Elec       q    Type
REMARK                         _______ _______ _______ _____ _____    ______ ____
ROOT
ATOM      1  C   UNL     1       4.641  -3.868  -0.257  0.00  0.00    +0.164 A 
ATOM      2  C   UNL     1       3.672  -4.405   0.570  0.00  0.00    +0.059 A 
ATOM      3  C   UNL     1       2.998  -5.570   0.186  0.00  0.00    -0.001 A 
ATOM      4  C   UNL     1       3.307  -6.184  -1.032  0.00  0.00    +0.028 A 
ATOM      5  C   UNL     1       4.274  -5.641  -1.851  0.00  0.00    +0.064 A 
ATOM      6  C   UNL     1       4.939  -4.482  -1.472  0.00  0.00    +0.176 A 
ATOM      7 BR   UNL     1       4.692  -6.473  -3.497  0.00  0.00    -0.046 Br
ENDROOT
BRANCH   3   8
ATOM      8  C   UNL     1       1.967  -6.146   1.062  0.00  0.00    +0.140 C 
ATOM      9  N   UNL     1       1.337  -7.234   0.702  0.00  0.00    -0.180 NA
BRANCH   9  10
ATOM     10  N   UNL     1       0.433  -7.740   1.470  0.00  0.00    -0.263 N 
ATOM     11  C   UNL     1      -0.200  -8.834   1.108  0.00  0.00    +0.143 C 
ATOM     12  N   UNL     1       0.103  -9.441  -0.093  0.00  0.00    -0.342 N 
ATOM     13  H   UNL     1       0.689  -8.998  -0.727  0.00  0.00    +0.144 HD
ATOM     14  H   UNL     1      -0.269 -10.312  -0.304  0.00  0.00    +0.144 HD
ATOM     15  H   UNL     1       0.220  -7.313   2.314  0.00  0.00    +0.190 HD
BRANCH  11  16
ATOM     16  C   UNL     1      -1.235  -9.414   1.987  0.00  0.00    +0.187 A 
ATOM     17  C   UNL     1      -2.298 -10.338   1.573  0.00  0.00    +0.191 A 
ATOM     18  N   UNL     1      -3.018 -10.632   2.621  0.00  0.00    -0.033 NA
ATOM     19  O   UNL     1      -2.478  -9.937   3.731  0.00  0.00    -0.240 OA
ATOM     20  N   UNL     1      -1.361  -9.196   3.273  0.00  0.00    -0.044 NA
ATOM     21  N   UNL     1      -2.503 -10.818   0.286  0.00  0.00    -0.339 N 
ATOM     22  H   UNL     1      -1.990 -10.456  -0.454  0.00  0.00    +0.144 HD
ATOM     23  H   UNL     1      -3.159 -11.514   0.127  0.00  0.00    +0.144 HD
ENDBRANCH  11  16
ENDBRANCH   9  10
ENDBRANCH   3   8
BRANCH   1  24
ATOM     24  O   UNL     1       5.298  -2.737   0.112  0.00  0.00    -0.489 OA
BRANCH  24  26
ATOM     25  C   UNL     1       5.781  -0.904   1.612  0.00  0.00    +0.048 C 
ATOM     26  C   UNL     1       4.941  -2.160   1.370  0.00  0.00    +0.226 C 
ENDBRANCH  24  26
ENDBRANCH   1  24
BRANCH   6  27
ATOM     27  O   UNL     1       5.888  -3.949  -2.285  0.00  0.00    -0.483 OA
BRANCH  27  28
ATOM     28  C   UNL     1       7.231  -4.399  -2.098  0.00  0.00    +0.264 C 
BRANCH  28  29
ATOM     29  C   UNL     1       8.136  -3.703  -3.082  0.00  0.00    -0.010 A 
ATOM     30  C   UNL     1       8.363  -4.260  -4.327  0.00  0.00    +0.007 A 
ATOM     31  C   UNL     1       9.193  -3.621  -5.229  0.00  0.00    +0.004 A 
ATOM     32  C   UNL     1       9.796  -2.426  -4.886  0.00  0.00    -0.050 A 
ATOM     33  C   UNL     1       9.570  -1.869  -3.642  0.00  0.00    +0.004 A 
ATOM     34  C   UNL     1       8.736  -2.505  -2.741  0.00  0.00    +0.007 A 
ATOM     35  C   UNL     1      10.702  -1.730  -5.870  0.00  0.00    +0.044 C 
ENDBRANCH  28  29
ENDBRANCH  27  28
ENDBRANCH   6  27
TORSDOF 8
