REMARK  Name = ZINC09151558
REMARK  2 active torsions:
REMARK  status: ('A' for Active; 'I' for Inactive)
REMARK    1  A    between atoms: C_6  and  S_7
REMARK    2  A    between atoms: S_7  and  N_10
REMARK                            x       y       z     vdW  Elec       q    Type
REMARK                         _______ _______ _______ _____ _____    ______ ____
ROOT
ATOM      1  C   UNL     1       2.320   2.407   1.198  0.00  0.00    +0.030 A 
ATOM      2  C   UNL     1       3.632   2.826   1.210  0.00  0.00    +0.028 A 
ATOM      3  C   UNL     1       4.297   3.051   0.009  0.00  0.00    +0.047 A 
ATOM      4  C   UNL     1       3.617   2.842  -1.206  0.00  0.00    +0.005 A 
ATOM      5  C   UNL     1       2.289   2.411  -1.193  0.00  0.00    +0.038 A 
ATOM      6  C   UNL     1       1.655   2.196  -0.002  0.00  0.00    +0.106 A 
ATOM      7  C   UNL     1       4.575   3.163  -2.260  0.00  0.00    -0.019 A 
ATOM      8  C   UNL     1       5.724   3.527  -1.660  0.00  0.00    +0.020 A 
ATOM      9  N   UNL     1       5.574   3.466  -0.303  0.00  0.00    -0.358 N 
ATOM     10  H   UNL     1       6.263   3.682   0.344  0.00  0.00    +0.166 HD
ATOM     11  C   UNL     1       6.969   3.936  -2.414  0.00  0.00    +0.053 C 
ATOM     12  C   UNL     1       6.835   3.467  -3.866  0.00  0.00    +0.006 C 
ATOM     13  C   UNL     1       5.483   3.916  -4.426  0.00  0.00    +0.005 C 
ATOM     14  C   UNL     1       4.363   3.115  -3.751  0.00  0.00    +0.037 C 
ENDROOT
BRANCH   6  15
ATOM     15  S   UNL     1      -0.020   1.652   0.011  0.00  0.00    +0.061 S 
ATOM     16  O   UNL     1      -0.589   2.057  -1.227  0.00  0.00    -0.153 OA
ATOM     17  O   UNL     1      -0.565   2.044   1.264  0.00  0.00    -0.153 OA
BRANCH  15  18
ATOM     18  N   UNL     1       0.002  -0.004   0.002  0.00  0.00    -0.172 NA
ATOM     19  C   UNL     1      -0.006  -0.755  -1.264  0.00  0.00    +0.137 C 
ATOM     20  C   UNL     1       1.137  -1.782  -1.219  0.00  0.00    +0.177 C 
ATOM     21  O   UNL     1       1.026  -2.555  -0.022  0.00  0.00    -0.377 OA
ATOM     22  C   UNL     1       1.161  -1.794   1.181  0.00  0.00    +0.177 C 
ATOM     23  C   UNL     1       0.024  -0.768   1.259  0.00  0.00    +0.137 C 
ENDBRANCH  15  18
ENDBRANCH   6  15
TORSDOF 2
