REMARK  Name = ZINC45481205
REMARK  8 active torsions:
REMARK  status: ('A' for Active; 'I' for Inactive)
REMARK    1  A    between atoms: C_6  and  O_7
REMARK    2  A    between atoms: O_7  and  C_8
REMARK    3  A    between atoms: C_8  and  C_9
REMARK    4  A    between atoms: C_11  and  C_14
REMARK    5  A    between atoms: C_14  and  S_15
REMARK    6  A    between atoms: S_15  and  C_16
REMARK    7  A    between atoms: C_19  and  C_22
REMARK    8  A    between atoms: N_20  and  N_21
REMARK                            x       y       z     vdW  Elec       q    Type
REMARK                         _______ _______ _______ _____ _____    ______ ____
ROOT
ATOM      1  S   UNL     1      -4.824  -5.574  -2.616  0.00  0.00    -0.078 S 
ENDROOT
BRANCH   1   2
ATOM      2  C   UNL     1      -5.987  -5.896  -3.900  0.00  0.00    +0.209 A 
ATOM      3  N   UNL     1      -6.930  -5.083  -4.320  0.00  0.00    -0.121 NA
ATOM      4  N   UNL     1      -7.598  -5.635  -5.269  0.00  0.00    -0.127 NA
ATOM      5  C   UNL     1      -7.123  -6.834  -5.513  0.00  0.00    +0.183 A 
ATOM      6  N   UNL     1      -6.073  -7.036  -4.648  0.00  0.00    -0.224 N 
BRANCH   5   7
ATOM      7  C   UNL     1      -7.619  -7.785  -6.531  0.00  0.00    +0.039 A 
ATOM      8  C   UNL     1      -7.845  -9.120  -6.191  0.00  0.00    +0.014 A 
ATOM      9  C   UNL     1      -8.308 -10.003  -7.144  0.00  0.00    +0.021 A 
ATOM     10  C   UNL     1      -8.550  -9.568  -8.436  0.00  0.00    +0.042 A 
ATOM     11  C   UNL     1      -8.328  -8.246  -8.781  0.00  0.00    +0.040 A 
ATOM     12  C   UNL     1      -7.869  -7.351  -7.834  0.00  0.00    +0.053 A 
ATOM     13 CL   UNL     1      -7.599  -5.691  -8.265  0.00  0.00    -0.083 Cl
ATOM     14 CL   UNL     1      -9.132 -10.686  -9.630  0.00  0.00    -0.083 Cl
ENDBRANCH   5   7
BRANCH   6  15
ATOM     15  N   UNL     1      -5.283  -8.146  -4.554  0.00  0.00    -0.295 N 
ATOM     16  H   UNL     1      -5.709  -8.845  -3.964  0.00  0.00    +0.163 HD
ATOM     17  H   UNL     1      -5.076  -8.522  -5.468  0.00  0.00    +0.163 HD
ENDBRANCH   6  15
ENDBRANCH   1   2
BRANCH   1  18
ATOM     18  C   UNL     1      -5.253  -3.907  -2.045  0.00  0.00    +0.133 C 
BRANCH  18  21
ATOM     19  C   UNL     1      -2.381  -2.526  -0.204  0.00  0.00    +0.116 A 
ATOM     20  N   UNL     1      -3.188  -2.876  -1.174  0.00  0.00    -0.245 NA
ATOM     21  C   UNL     1      -4.322  -3.502  -0.931  0.00  0.00    +0.059 A 
ATOM     22  C   UNL     1      -4.613  -3.766   0.369  0.00  0.00    +0.071 A 
ATOM     23  S   UNL     1      -3.177  -3.074   1.174  0.00  0.00    -0.077 S 
BRANCH  19  24
ATOM     24  C   UNL     1      -1.058  -1.811  -0.299  0.00  0.00    +0.291 C 
BRANCH  24  25
ATOM     25  O   UNL     1      -1.272  -0.401  -0.223  0.00  0.00    -0.485 OA
BRANCH  25  31
ATOM     26  C   UNL     1      -0.307   1.774  -0.227  0.00  0.00    +0.048 A 
ATOM     27  C   UNL     1       0.812   2.582  -0.299  0.00  0.00    +0.042 A 
ATOM     28  C   UNL     1       2.067   2.015  -0.438  0.00  0.00    +0.124 A 
ATOM     29  C   UNL     1       2.204   0.639  -0.505  0.00  0.00    +0.042 A 
ATOM     30  C   UNL     1       1.087  -0.171  -0.434  0.00  0.00    +0.048 A 
ATOM     31  C   UNL     1      -0.172   0.395  -0.294  0.00  0.00    +0.121 A 
ATOM     32  F   UNL     1       3.161   2.806  -0.508  0.00  0.00    -0.205 F 
ENDBRANCH  25  31
ENDBRANCH  24  25
ENDBRANCH  19  24
ENDBRANCH  18  21
ENDBRANCH   1  18
TORSDOF 8
