REMARK  Name = ZINC37577708
REMARK  12 active torsions:
REMARK  status: ('A' for Active; 'I' for Inactive)
REMARK    1  A    between atoms: C_1  and  C_2
REMARK    2  A    between atoms: C_2  and  N_3
REMARK    3  A    between atoms: N_3  and  C_4
REMARK    4  A    between atoms: C_4  and  C_5
REMARK    5  A    between atoms: C_5  and  C_6
REMARK    6  A    between atoms: N_8  and  C_9
REMARK    7  A    between atoms: C_9  and  C_10
REMARK    8  A    between atoms: C_10  and  N_11
REMARK    9  A    between atoms: C_17  and  C_19
REMARK   10  A    between atoms: N_27  and  C_30
REMARK   11  A    between atoms: C_30  and  C_31
REMARK   12  A    between atoms: C_36  and  C_37
REMARK                            x       y       z     vdW  Elec       q    Type
REMARK                         _______ _______ _______ _____ _____    ______ ____
ROOT
ATOM      1  N   UNL     1       0.666   0.293  -1.013  0.00  0.00    -0.296 N 
ATOM      2  C   UNL     1      -0.004  -0.116  -2.109  0.00  0.00    +0.267 C 
ATOM      3  O   UNL     1       0.602  -0.591  -3.049  0.00  0.00    -0.268 OA
ENDROOT
BRANCH   2   4
ATOM      4  C   UNL     1      -1.475   0.014  -2.167  0.00  0.00    +0.148 A 
ATOM      5  C   UNL     1      -2.316  -0.471  -3.193  0.00  0.00    +0.067 A 
ATOM      6  C   UNL     1      -3.569  -0.120  -2.813  0.00  0.00    +0.124 A 
ATOM      7  N   UNL     1      -3.476   0.547  -1.619  0.00  0.00    -0.258 N 
ATOM      8  N   UNL     1      -2.243   0.601  -1.265  0.00  0.00    -0.166 NA
ATOM      9  C   UNL     1      -4.636   1.090  -0.909  0.00  0.00    +0.146 C 
ATOM     10  C   UNL     1      -5.192   2.304  -1.662  0.00  0.00    +0.042 C 
ATOM     11  C   UNL     1      -5.209   2.019  -3.163  0.00  0.00    +0.110 C 
ATOM     12  N   UNL     1      -5.716   0.698  -3.497  0.00  0.00    -0.292 N 
ATOM     13  C   UNL     1      -4.867  -0.359  -3.478  0.00  0.00    +0.265 C 
ATOM     14  O   UNL     1      -5.155  -1.432  -3.975  0.00  0.00    -0.268 OA
BRANCH  12  15
ATOM     15  C   UNL     1      -7.125   0.511  -3.850  0.00  0.00    +0.143 C 
BRANCH  15  16
ATOM     16  C   UNL     1      -7.317   0.788  -5.319  0.00  0.00    -0.027 A 
ATOM     17  C   UNL     1      -6.220   1.024  -6.127  0.00  0.00    +0.005 A 
ATOM     18  C   UNL     1      -6.396   1.278  -7.474  0.00  0.00    +0.000 A 
ATOM     19  C   UNL     1      -7.668   1.296  -8.014  0.00  0.00    +0.000 A 
ATOM     20  C   UNL     1      -8.765   1.059  -7.206  0.00  0.00    +0.003 A 
ATOM     21  C   UNL     1      -8.589   0.801  -5.859  0.00  0.00    -0.046 A 
ATOM     22  C   UNL     1      -9.784   0.538  -4.980  0.00  0.00    +0.044 C 
ENDBRANCH  15  16
ENDBRANCH  12  15
ENDBRANCH   2   4
BRANCH   1  24
ATOM     23  C   UNL     1      -0.370   2.253   0.019  0.00  0.00    +0.024 C 
ATOM     24  C   UNL     1      -0.070   0.759   0.165  0.00  0.00    +0.105 C 
ENDBRANCH   1  24
BRANCH   1  25
ATOM     25  C   UNL     1       2.131   0.270  -0.999  0.00  0.00    +0.117 C 
BRANCH  25  26
ATOM     26  C   UNL     1       2.615  -1.084  -0.477  0.00  0.00    +0.114 C 
BRANCH  26  27
ATOM     27  C   UNL     1       4.122  -1.107  -0.463  0.00  0.00    +0.214 C 
ATOM     28  O   UNL     1       4.747  -0.136  -0.834  0.00  0.00    -0.276 OA
ATOM     29  N   UNL     1       4.775  -2.207  -0.037  0.00  0.00    -0.317 N 
ATOM     30  H   UNL     1       4.275  -2.983   0.259  0.00  0.00    +0.149 HD
BRANCH  29  31
ATOM     31  C   UNL     1       6.240  -2.229  -0.024  0.00  0.00    +0.085 C 
BRANCH  31  32
ATOM     32  C   UNL     1       6.724  -3.583   0.499  0.00  0.00    -0.060 C 
BRANCH  32  33
ATOM     33  N   UNL     1       8.193  -3.606   0.512  0.00  0.00    +0.381 N 
ATOM     34  C   UNL     1       8.695  -3.509  -0.863  0.00  0.00    -0.079 C 
ATOM     35  C   UNL     1      10.224  -3.451  -0.849  0.00  0.00    -0.019 C 
ATOM     36  C   UNL     1      10.772  -4.721  -0.192  0.00  0.00    -0.004 C 
ATOM     37  C   UNL     1      10.183  -4.851   1.215  0.00  0.00    -0.019 C 
ATOM     38  C   UNL     1       8.655  -4.857   1.125  0.00  0.00    -0.079 C 
ATOM     39  H   UNL     1       8.535  -2.824   1.050  0.00  0.00    -0.082 HD
ENDBRANCH  32  33
ENDBRANCH  31  32
ENDBRANCH  29  31
ENDBRANCH  26  27
ENDBRANCH  25  26
ENDBRANCH   1  25
TORSDOF 10
