REMARK  Name = ZINC65950168
REMARK  7 active torsions:
REMARK  status: ('A' for Active; 'I' for Inactive)
REMARK    1  A    between atoms: C_1  and  C_2
REMARK    2  A    between atoms: C_2  and  N_3
REMARK    3  A    between atoms: N_3  and  C_4
REMARK    4  A    between atoms: N_3  and  C_13
REMARK    5  A    between atoms: C_4  and  C_5
REMARK    6  A    between atoms: C_5  and  C_6
REMARK    7  A    between atoms: C_6  and  N_7
REMARK                            x       y       z     vdW  Elec       q    Type
REMARK                         _______ _______ _______ _____ _____    ______ ____
ROOT
ATOM      1  N   UNL     1      -1.647  -0.392   0.033  0.00  0.00    +0.381 N 
ATOM      2  H   UNL     1      -2.251   0.117   0.661  0.00  0.00    -0.081 HD
ENDROOT
BRANCH   1   3
ATOM      3  C   UNL     1      -1.840  -1.835   0.229  0.00  0.00    -0.069 C 
ATOM      4  C   UNL     1      -1.498  -2.203   1.674  0.00  0.00    -0.015 C 
ATOM      5  C   UNL     1      -1.699  -3.706   1.879  0.00  0.00    -0.002 C 
ATOM      6  C   UNL     1      -3.157  -4.069   1.592  0.00  0.00    -0.000 C 
ATOM      7  C   UNL     1      -3.499  -3.701   0.147  0.00  0.00    -0.002 C 
ATOM      8  C   UNL     1      -3.299  -2.198  -0.058  0.00  0.00    -0.015 C 
ENDBRANCH   1   3
BRANCH   1  10
ATOM      9  C   UNL     1       0.673  -0.894  -0.569  0.00  0.00    -0.017 C 
ATOM     10  C   UNL     1      -0.247  -0.043   0.308  0.00  0.00    -0.082 C 
ENDBRANCH   1  10
BRANCH   1  11
ATOM     11  C   UNL     1      -1.976  -0.038  -1.355  0.00  0.00    -0.077 C 
BRANCH  11  12
ATOM     12  C   UNL     1      -1.881   1.479  -1.530  0.00  0.00    +0.000 C 
BRANCH  12  13
ATOM     13  C   UNL     1      -2.359   1.861  -2.933  0.00  0.00    +0.109 C 
BRANCH  13  14
ATOM     14  N   UNL     1      -2.268   3.313  -3.101  0.00  0.00    -0.264 N 
ATOM     15  C   UNL     1      -3.326   4.293  -2.785  0.00  0.00    +0.152 C 
ATOM     16  C   UNL     1      -2.547   5.630  -2.796  0.00  0.00    +0.253 C 
ATOM     17  O   UNL     1      -1.425   5.316  -3.645  0.00  0.00    -0.449 OA
ATOM     18  C   UNL     1      -1.204   3.993  -3.567  0.00  0.00    +0.403 C 
ATOM     19  O   UNL     1      -0.156   3.467  -3.885  0.00  0.00    -0.226 OA
ENDBRANCH  13  14
ENDBRANCH  12  13
ENDBRANCH  11  12
ENDBRANCH   1  11
TORSDOF 6
