REMARK  Name = ZINC13299513
REMARK  6 active torsions:
REMARK  status: ('A' for Active; 'I' for Inactive)
REMARK    1  A    between atoms: C_1  and  C_2
REMARK    2  A    between atoms: N_11  and  C_12
REMARK    3  A    between atoms: C_15  and  N_29
REMARK    4  A    between atoms: C_17  and  S_18
REMARK    5  A    between atoms: S_18  and  N_21
REMARK    6  A    between atoms: C_24  and  C_27
REMARK                            x       y       z     vdW  Elec       q    Type
REMARK                         _______ _______ _______ _____ _____    ______ ____
ROOT
ATOM      1  C   UNL     1      -1.557   2.835   0.665  0.00  0.00    +0.057 A 
ATOM      2  C   UNL     1      -1.870   1.509   0.937  0.00  0.00    +0.027 A 
ATOM      3  C   UNL     1      -0.869   0.558   0.973  0.00  0.00    +0.034 A 
ATOM      4  C   UNL     1       0.442   0.923   0.727  0.00  0.00    +0.128 A 
ATOM      5  C   UNL     1       0.756   2.241   0.449  0.00  0.00    +0.063 A 
ATOM      6  C   UNL     1      -0.240   3.197   0.417  0.00  0.00    +0.129 A 
ENDROOT
BRANCH   1  16
ATOM      7  C   UNL     1      -1.988   4.563   2.889  0.00  0.00    +0.033 C 
ATOM      8  C   UNL     1      -3.103   4.044   1.978  0.00  0.00    +0.101 C 
ATOM      9  C   UNL     1      -4.213   5.085   1.879  0.00  0.00    -0.017 A 
ATOM     10  C   UNL     1      -4.686   5.824   2.961  0.00  0.00    +0.013 A 
ATOM     11  C   UNL     1      -5.675   6.730   2.782  0.00  0.00    +0.046 A 
ATOM     12  S   UNL     1      -5.998   6.582   1.031  0.00  0.00    -0.101 S 
ATOM     13  C   UNL     1      -4.799   5.331   0.673  0.00  0.00    -0.004 A 
ATOM     14  C   UNL     1      -4.472   4.673  -0.628  0.00  0.00    +0.061 C 
ATOM     15  C   UNL     1      -3.620   3.429  -0.322  0.00  0.00    +0.111 C 
ATOM     16  N   UNL     1      -2.567   3.799   0.633  0.00  0.00    -0.321 N 
ENDBRANCH   1  16
BRANCH   6  17
ATOM     17  S   UNL     1       0.161   4.876   0.063  0.00  0.00    +0.063 S 
ATOM     18  O   UNL     1      -0.693   5.677   0.869  0.00  0.00    -0.153 OA
ATOM     19  O   UNL     1       1.577   4.976   0.120  0.00  0.00    -0.153 OA
BRANCH  17  20
ATOM     20  N   UNL     1      -0.270   5.161  -1.511  0.00  0.00    -0.176 NA
ATOM     21  C   UNL     1       0.712   5.018  -2.594  0.00  0.00    +0.110 C 
ATOM     22  C   UNL     1       0.137   4.065  -3.653  0.00  0.00    +0.032 C 
ATOM     23  C   UNL     1      -1.229   4.582  -4.108  0.00  0.00    +0.105 C 
ATOM     24  C   UNL     1      -2.188   4.613  -2.916  0.00  0.00    +0.032 C 
ATOM     25  C   UNL     1      -1.641   5.567  -1.850  0.00  0.00    +0.110 C 
BRANCH  23  26
ATOM     26  C   UNL     1      -1.781   3.671  -5.174  0.00  0.00    +0.359 C 
ATOM     27  O   UNL     1      -2.834   3.105  -4.998  0.00  0.00    -0.246 OA
ATOM     28  O   UNL     1      -1.104   3.489  -6.319  0.00  0.00    -0.246 OA
ENDBRANCH  23  26
ENDBRANCH  17  20
ENDBRANCH   6  17
BRANCH   4  29
ATOM     29  N   UNL     1       1.512  -0.099   0.760  0.00  0.00    +0.056 N 
ATOM     30  O   UNL     1       1.237  -1.260   1.004  0.00  0.00    -0.126 OA
ATOM     31  O   UNL     1       2.667   0.221   0.543  0.00  0.00    -0.126 OA
ENDBRANCH   4  29
TORSDOF 5
