REMARK  Name = ZINC63180913
REMARK  12 active torsions:
REMARK  status: ('A' for Active; 'I' for Inactive)
REMARK    1  A    between atoms: C_1  and  C_2
REMARK    2  A    between atoms: C_2  and  O_3
REMARK    3  A    between atoms: O_3  and  C_4
REMARK    4  A    between atoms: C_7  and  N_10
REMARK    5  A    between atoms: C_11  and  C_31
REMARK    6  A    between atoms: C_14  and  S_15
REMARK    7  A    between atoms: S_15  and  C_16
REMARK    8  A    between atoms: C_16  and  C_18
REMARK    9  A    between atoms: C_16  and  C_19
REMARK   10  A    between atoms: C_19  and  C_21
REMARK   11  A    between atoms: C_24  and  N_27
REMARK   12  A    between atoms: C_28  and  C_30
REMARK                            x       y       z     vdW  Elec       q    Type
REMARK                         _______ _______ _______ _____ _____    ______ ____
ROOT
ATOM      1  N   UNL     1       1.489  -6.197   2.082  0.00  0.00    -0.270 N 
ATOM      2  C   UNL     1       1.117  -7.014   3.137  0.00  0.00    +0.168 A 
ATOM      3  N   UNL     1       1.570  -8.230   2.861  0.00  0.00    -0.128 NA
ATOM      4  N   UNL     1       2.183  -8.220   1.732  0.00  0.00    -0.122 NA
ATOM      5  C   UNL     1       2.158  -7.003   1.209  0.00  0.00    +0.197 A 
ENDROOT
BRANCH   2   6
ATOM      6  C   UNL     1       0.400  -6.629   4.280  0.00  0.00    +0.025 C 
ATOM      7  C   UNL     1       0.024  -7.439   5.352  0.00  0.00    +0.006 A 
ATOM      8  C   UNL     1       0.222  -8.808   5.628  0.00  0.00    +0.010 A 
ATOM      9  C   UNL     1      -0.265  -9.341   6.778  0.00  0.00    +0.001 A 
ATOM     10  C   UNL     1      -0.966  -8.565   7.704  0.00  0.00    +0.002 A 
ATOM     11  C   UNL     1      -1.194  -7.244   7.504  0.00  0.00    +0.026 A 
ATOM     12  C   UNL     1      -0.714  -6.616   6.325  0.00  0.00    +0.043 A 
ATOM     13  N   UNL     1      -0.801  -5.370   5.903  0.00  0.00    -0.380 N 
ATOM     14  C   UNL     1      -0.122  -5.248   4.609  0.00  0.00    +0.152 C 
ATOM     15  H   UNL     1      -1.242  -4.647   6.376  0.00  0.00    +0.160 HD
ENDBRANCH   2   6
BRANCH   1  19
ATOM     16  C   UNL     1       0.706  -2.123   1.657  0.00  0.00    +0.121 A 
ATOM     17  C   UNL     1       0.140  -3.033   0.775  0.00  0.00    +0.047 A 
ATOM     18  C   UNL     1       0.399  -4.382   0.916  0.00  0.00    +0.030 A 
ATOM     19  C   UNL     1       1.226  -4.827   1.939  0.00  0.00    +0.051 A 
ATOM     20  C   UNL     1       1.792  -3.916   2.820  0.00  0.00    +0.030 A 
ATOM     21  C   UNL     1       1.536  -2.566   2.675  0.00  0.00    +0.047 A 
BRANCH  16  22
ATOM     22  O   UNL     1       0.451  -0.794   1.518  0.00  0.00    -0.492 OA
BRANCH  22  24
ATOM     23  C   UNL     1      -0.581   1.113   0.450  0.00  0.00    +0.048 C 
ATOM     24  C   UNL     1      -0.413  -0.408   0.447  0.00  0.00    +0.225 C 
ENDBRANCH  22  24
ENDBRANCH  16  22
ENDBRANCH   1  19
BRANCH   5  25
ATOM     25  S   UNL     1       2.863  -6.514  -0.330  0.00  0.00    -0.075 S 
BRANCH  25  26
ATOM     26  C   UNL     1       3.593  -8.041  -0.982  0.00  0.00    +0.122 C 
ATOM     27  C   UNL     1       4.733  -8.493  -0.067  0.00  0.00    +0.028 C 
BRANCH  26  28
ATOM     28  C   UNL     1       4.131  -7.788  -2.367  0.00  0.00    +0.176 C 
ATOM     29  O   UNL     1       4.454  -6.667  -2.697  0.00  0.00    -0.291 OA
BRANCH  28  30
ATOM     30  C   UNL     1       4.264  -8.900  -3.317  0.00  0.00    +0.019 A 
ATOM     31  C   UNL     1       3.886 -10.195  -2.940  0.00  0.00    +0.013 A 
ATOM     32  C   UNL     1       4.011 -11.230  -3.831  0.00  0.00    +0.024 A 
ATOM     33  C   UNL     1       4.513 -10.995  -5.108  0.00  0.00    +0.033 A 
ATOM     34  C   UNL     1       4.891  -9.710  -5.487  0.00  0.00    +0.024 A 
ATOM     35  C   UNL     1       4.763  -8.668  -4.605  0.00  0.00    +0.013 A 
BRANCH  33  36
ATOM     36  N   UNL     1       4.639 -12.050  -6.009  0.00  0.00    -0.286 N 
ATOM     37  C   UNL     1       3.747 -13.061  -5.993  0.00  0.00    +0.214 C 
ATOM     38  O   UNL     1       2.783 -13.006  -5.260  0.00  0.00    -0.276 OA
ATOM     39  C   UNL     1       3.949 -14.258  -6.885  0.00  0.00    +0.109 C 
ATOM     40  H   UNL     1       5.369 -12.057  -6.649  0.00  0.00    +0.155 HD
ENDBRANCH  33  36
ENDBRANCH  28  30
ENDBRANCH  26  28
ENDBRANCH  25  26
ENDBRANCH   5  25
TORSDOF 9
