REMARK  Name = ZINC13576872
REMARK  6 active torsions:
REMARK  status: ('A' for Active; 'I' for Inactive)
REMARK    1  A    between atoms: C_1  and  N_2
REMARK    2  A    between atoms: C_4  and  C_29
REMARK    3  A    between atoms: C_6  and  C_22
REMARK    4  A    between atoms: C_13  and  C_18
REMARK    5  A    between atoms: C_22  and  C_24
REMARK    6  A    between atoms: C_33  and  N_35
REMARK                            x       y       z     vdW  Elec       q    Type
REMARK                         _______ _______ _______ _____ _____    ______ ____
ROOT
ATOM      1  C   UNL     1       0.003   1.506   0.078  0.00  0.00    +0.106 C 
ATOM      2  N   UNL     1       0.045   0.038   0.041  0.00  0.00    -0.287 NA
ATOM      3  C   UNL     1      -1.321  -0.530  -0.018  0.00  0.00    +0.094 C 
ATOM      4  C   UNL     1      -1.235  -1.851   0.788  0.00  0.00    +0.046 C 
ATOM      5  C   UNL     1      -0.256  -1.462   1.929  0.00  0.00    +0.106 C 
ATOM      6  C   UNL     1       0.716  -0.498   1.230  0.00  0.00    +0.136 C 
ATOM      7  C   UNL     1       1.996  -1.202   0.868  0.00  0.00    +0.004 A 
ATOM      8  C   UNL     1       2.287  -2.277   0.059  0.00  0.00    +0.008 A 
ATOM      9  C   UNL     1       3.595  -2.706  -0.079  0.00  0.00    +0.001 A 
ATOM     10  C   UNL     1       4.608  -2.052   0.598  0.00  0.00    +0.014 A 
ATOM     11  C   UNL     1       4.322  -0.974   1.409  0.00  0.00    +0.076 A 
ATOM     12  C   UNL     1       3.007  -0.535   1.553  0.00  0.00    +0.051 A 
ATOM     13  N   UNL     1       2.472   0.515   2.301  0.00  0.00    -0.283 N 
ATOM     14  C   UNL     1       1.136   0.605   2.167  0.00  0.00    +0.243 C 
ATOM     15  O   UNL     1       0.410   1.419   2.698  0.00  0.00    -0.273 OA
ATOM     16  H   UNL     1       3.002   1.110   2.855  0.00  0.00    +0.155 HD
ENDROOT
BRANCH   4  17
ATOM     17  C   UNL     1      -2.584  -2.234   1.341  0.00  0.00    -0.040 A 
ATOM     18  C   UNL     1      -3.259  -1.367   2.179  0.00  0.00    +0.004 A 
ATOM     19  C   UNL     1      -4.496  -1.718   2.686  0.00  0.00    +0.002 A 
ATOM     20  C   UNL     1      -5.059  -2.936   2.354  0.00  0.00    +0.033 A 
ATOM     21  C   UNL     1      -4.384  -3.803   1.515  0.00  0.00    +0.126 A 
ATOM     22  C   UNL     1      -3.148  -3.450   1.005  0.00  0.00    +0.036 A 
BRANCH  21  23
ATOM     23  N   UNL     1      -4.986  -5.108   1.160  0.00  0.00    +0.056 N 
ATOM     24  O   UNL     1      -6.067  -5.416   1.604  0.00  0.00    -0.126 OA
ATOM     25  O   UNL     1      -4.396  -5.866   0.426  0.00  0.00    -0.126 OA
ENDBRANCH  21  23
ENDBRANCH   4  17
BRANCH  11  26
ATOM     26  C   UNL     1       5.434  -0.269   2.142  0.00  0.00    +0.419 C 
ATOM     27  F   UNL     1       6.654  -0.885   1.843  0.00  0.00    -0.166 F 
ATOM     28  F   UNL     1       5.478   1.072   1.743  0.00  0.00    -0.166 F 
ATOM     29  F   UNL     1       5.201  -0.338   3.520  0.00  0.00    -0.166 F 
ENDBRANCH  11  26
BRANCH   5  30
ATOM     30  C   UNL     1       0.470  -2.677   2.447  0.00  0.00    +0.204 C 
ATOM     31  O   UNL     1       0.578  -3.663   1.747  0.00  0.00    -0.288 OA
BRANCH  30  32
ATOM     32  C   UNL     1       1.024  -2.668   3.747  0.00  0.00    +0.170 A 
ATOM     33  C   UNL     1       1.716  -3.703   4.343  0.00  0.00    +0.053 A 
ATOM     34  C   UNL     1       2.078  -3.257   5.621  0.00  0.00    +0.042 A 
ATOM     35  C   UNL     1       1.604  -1.996   5.754  0.00  0.00    +0.196 A 
ATOM     36  O   UNL     1       0.978  -1.644   4.625  0.00  0.00    -0.460 OA
ENDBRANCH  30  32
ENDBRANCH   5  30
TORSDOF 5
