REMARK  Name = ZINC04989211
REMARK  7 active torsions:
REMARK  status: ('A' for Active; 'I' for Inactive)
REMARK    1  A    between atoms: C_1  and  C_2
REMARK    2  A    between atoms: C_5  and  C_21
REMARK    3  A    between atoms: C_9  and  C_10
REMARK    4  A    between atoms: C_9  and  N_41
REMARK    5  A    between atoms: C_12  and  N_18
REMARK    6  A    between atoms: C_14  and  O_16
REMARK    7  A    between atoms: O_16  and  C_17
REMARK                            x       y       z     vdW  Elec       q    Type
REMARK                         _______ _______ _______ _____ _____    ______ ____
ROOT
ATOM      1  C   UNL     1      -0.926   1.310   6.118  0.00  0.00    -0.058 A 
ATOM      2  C   UNL     1      -1.943   0.451   6.490  0.00  0.00    +0.038 A 
ATOM      3  C   UNL     1      -2.735   0.745   7.584  0.00  0.00    +0.176 A 
ATOM      4  C   UNL     1      -2.511   1.903   8.310  0.00  0.00    +0.250 A 
ATOM      5  C   UNL     1      -1.488   2.769   7.936  0.00  0.00    +0.169 A 
ATOM      6  C   UNL     1      -0.694   2.465   6.841  0.00  0.00    +0.051 A 
ATOM      7  O   UNL     1      -3.290   2.194   9.386  0.00  0.00    -0.282 OA
ENDROOT
BRANCH   3   8
ATOM      8  N   UNL     1      -3.822  -0.178   7.980  0.00  0.00    +0.060 N 
ATOM      9  O   UNL     1      -4.019  -1.197   7.341  0.00  0.00    -0.126 OA
ATOM     10  O   UNL     1      -4.521   0.081   8.944  0.00  0.00    -0.126 OA
ENDBRANCH   3   8
BRANCH   5  11
ATOM     11  O   UNL     1      -1.264   3.907   8.645  0.00  0.00    -0.491 OA
ATOM     12  C   UNL     1      -0.197   4.748   8.203  0.00  0.00    +0.277 C 
ENDBRANCH   5  11
BRANCH   1  13
ATOM     13  C   UNL     1      -0.065   0.985   4.925  0.00  0.00    -0.043 C 
BRANCH  13  21
ATOM     14  C   UNL     1      -0.013   1.086   0.008  0.00  0.00    +0.005 C 
ATOM     15  C   UNL     1      -0.729   1.579   1.267  0.00  0.00    -0.031 C 
ATOM     16  C   UNL     1      -0.746   3.110   1.278  0.00  0.00    +0.003 C 
ATOM     17  C   UNL     1      -1.410   3.596   2.570  0.00  0.00    -0.031 C 
ATOM     18  C   UNL     1      -0.651   3.031   3.772  0.00  0.00    -0.075 C 
ATOM     19  C   UNL     1       0.011   1.073   2.507  0.00  0.00    -0.075 C 
ATOM     20  C   UNL     1      -1.379   5.125   2.618  0.00  0.00    +0.005 C 
ATOM     21  N   UNL     1      -0.693   1.554   3.715  0.00  0.00    +0.383 N 
ATOM     22  H   UNL     1      -1.672   1.250   3.673  0.00  0.00    -0.081 HD
ENDBRANCH  13  21
ENDBRANCH   1  13
TORSDOF 4
