REMARK  Name = ZINC08690146
REMARK  6 active torsions:
REMARK  status: ('A' for Active; 'I' for Inactive)
REMARK    1  A    between atoms: C_1  and  O_2
REMARK    2  A    between atoms: O_2  and  C_3
REMARK    3  A    between atoms: C_6  and  C_9
REMARK    4  A    between atoms: N_25  and  C_28
REMARK    5  A    between atoms: C_28  and  C_29
REMARK    6  A    between atoms: C_29  and  N_64
REMARK                            x       y       z     vdW  Elec       q    Type
REMARK                         _______ _______ _______ _____ _____    ______ ____
ROOT
ATOM      1  C   UNL     1      -2.208  -3.766  -0.062  0.00  0.00    +0.091 C 
ATOM      2  C   UNL     1      -0.761  -3.355  -0.146  0.00  0.00    +0.008 A 
ATOM      3  C   UNL     1       0.227  -4.338  -0.072  0.00  0.00    +0.009 A 
ATOM      4  C   UNL     1       1.548  -4.022  -0.141  0.00  0.00    +0.009 A 
ATOM      5  C   UNL     1       1.935  -2.679  -0.287  0.00  0.00    -0.014 A 
ATOM      6  C   UNL     1       3.290  -2.312  -0.358  0.00  0.00    +0.008 A 
ATOM      7  C   UNL     1       3.625  -1.000  -0.500  0.00  0.00    +0.001 A 
ATOM      8  C   UNL     1       2.644  -0.013  -0.575  0.00  0.00    +0.001 A 
ATOM      9  C   UNL     1       1.322  -0.333  -0.510  0.00  0.00    +0.012 A 
ATOM     10  C   UNL     1       0.939  -1.675  -0.363  0.00  0.00    +0.025 A 
ATOM     11  C   UNL     1      -0.424  -2.041  -0.290  0.00  0.00    +0.142 A 
ATOM     12  O   UNL     1      -1.372  -1.078  -0.368  0.00  0.00    -0.437 OA
ATOM     13  C   UNL     1      -2.615  -1.309   0.105  0.00  0.00    +0.229 A 
ATOM     14  C   UNL     1      -3.070  -2.582   0.273  0.00  0.00    +0.066 A 
ATOM     15  C   UNL     1      -4.378  -2.781   0.772  0.00  0.00    +0.115 A 
ATOM     16  N   UNL     1      -5.141  -1.667   1.068  0.00  0.00    -0.320 N 
ATOM     17  C   UNL     1      -4.617  -0.431   0.873  0.00  0.00    +0.204 A 
ATOM     18  N   UNL     1      -3.409  -0.267   0.413  0.00  0.00    -0.202 NA
ATOM     19  H   UNL     1      -5.744  -4.218   1.289  0.00  0.00    +0.157 HD
ATOM     20  N   UNL     1      -4.806  -4.040   0.931  0.00  0.00    -0.384 N 
ATOM     21  H   UNL     1      -4.189  -4.825   0.692  0.00  0.00    +0.157 HD
ENDROOT
BRANCH   1  25
ATOM     22  C   UNL     1      -3.441  -5.379  -3.822  0.00  0.00    +0.120 A 
ATOM     23  C   UNL     1      -3.503  -6.160  -2.677  0.00  0.00    +0.046 A 
ATOM     24  C   UNL     1      -3.104  -5.636  -1.463  0.00  0.00    +0.008 A 
ATOM     25  C   UNL     1      -2.643  -4.335  -1.388  0.00  0.00    -0.035 A 
ATOM     26  C   UNL     1      -2.585  -3.553  -2.526  0.00  0.00    +0.008 A 
ATOM     27  C   UNL     1      -2.977  -4.074  -3.744  0.00  0.00    +0.046 A 
BRANCH  22  29
ATOM     28  C   UNL     1      -3.741  -5.031  -6.155  0.00  0.00    +0.277 C 
ATOM     29  O   UNL     1      -3.833  -5.892  -5.018  0.00  0.00    -0.495 OA
ENDBRANCH  22  29
ENDBRANCH   1  25
BRANCH  16  30
ATOM     30  C   UNL     1      -6.502  -1.820   1.587  0.00  0.00    +0.106 C 
BRANCH  30  31
ATOM     31  C   UNL     1      -6.452  -2.004   3.105  0.00  0.00    -0.057 C 
BRANCH  31  37
ATOM     32  C   UNL     1      -8.588  -0.916   3.455  0.00  0.00    -0.050 C 
ATOM     33  C   UNL     1     -10.018  -1.138   3.954  0.00  0.00    +0.141 C 
ATOM     34  O   UNL     1      -9.981  -1.569   5.317  0.00  0.00    -0.383 OA
ATOM     35  C   UNL     1      -9.239  -2.775   5.519  0.00  0.00    +0.141 C 
ATOM     36  C   UNL     1      -7.801  -2.570   5.036  0.00  0.00    -0.050 C 
ATOM     37  N   UNL     1      -7.831  -2.176   3.612  0.00  0.00    +0.384 N 
ATOM     38  H   UNL     1      -8.295  -2.915   3.071  0.00  0.00    -0.082 HD
ENDBRANCH  31  37
ENDBRANCH  30  31
ENDBRANCH  16  30
TORSDOF 5
