REMARK  Name = ZINC39934824
REMARK  10 active torsions:
REMARK  status: ('A' for Active; 'I' for Inactive)
REMARK    1  A    between atoms: C_1  and  C_2
REMARK    2  A    between atoms: C_7  and  C_12
REMARK    3  A    between atoms: C_12  and  C_34
REMARK    4  A    between atoms: C_13  and  C_14
REMARK    5  A    between atoms: C_16  and  C_33
REMARK    6  A    between atoms: N_18  and  C_22
REMARK    7  A    between atoms: C_19  and  C_21
REMARK    8  A    between atoms: C_25  and  N_30
REMARK    9  A    between atoms: C_27  and  O_28
REMARK   10  A    between atoms: O_28  and  C_29
REMARK                            x       y       z     vdW  Elec       q    Type
REMARK                         _______ _______ _______ _____ _____    ______ ____
ROOT
ATOM      1  C   UNL     1      -2.254  -7.021   2.905  0.00  0.00    -0.028 C 
ATOM      2  C   UNL     1      -2.321  -8.183   3.548  0.00  0.00    +0.000 C 
ATOM      3  C   UNL     1      -3.759  -8.610   3.677  0.00  0.00    +0.094 C 
ATOM      4  N   UNL     1      -4.582  -7.575   3.036  0.00  0.00    -0.314 N 
ATOM      5  C   UNL     1      -3.642  -6.558   2.548  0.00  0.00    +0.101 C 
ATOM      6  C   UNL     1      -3.770  -6.423   1.029  0.00  0.00    +0.033 C 
ATOM      7  C   UNL     1      -4.134  -8.736   5.155  0.00  0.00    +0.032 C 
ENDROOT
BRANCH   4   8
ATOM      8  C   UNL     1      -5.976  -7.559   2.921  0.00  0.00    +0.073 A 
ATOM      9  C   UNL     1      -6.749  -6.962   3.906  0.00  0.00    +0.029 A 
ATOM     10  C   UNL     1      -8.126  -6.947   3.790  0.00  0.00    +0.035 A 
ATOM     11  C   UNL     1      -8.737  -7.526   2.693  0.00  0.00    +0.130 A 
ATOM     12  C   UNL     1      -7.973  -8.124   1.707  0.00  0.00    +0.080 A 
ATOM     13  C   UNL     1      -6.592  -8.137   1.813  0.00  0.00    +0.143 A 
BRANCH  11  14
ATOM     14  N   UNL     1     -10.212  -7.507   2.574  0.00  0.00    +0.057 N 
ATOM     15  O   UNL     1     -10.881  -6.986   3.436  0.00  0.00    -0.126 OA
ATOM     16  O   UNL     1     -10.748  -8.014   1.616  0.00  0.00    -0.126 OA
ENDBRANCH  11  14
BRANCH  13  17
ATOM     17  O   UNL     1      -5.840  -8.719   0.841  0.00  0.00    -0.493 OA
ATOM     18  C   UNL     1      -6.539  -9.292  -0.265  0.00  0.00    +0.277 C 
ENDBRANCH  13  17
ENDBRANCH   4   8
BRANCH   1  20
ATOM     19  C   UNL     1      -0.034  -6.912   1.902  0.00  0.00    +0.072 C 
ATOM     20  C   UNL     1      -1.019  -6.299   2.596  0.00  0.00    +0.023 C 
BRANCH  19  27
ATOM     21  C   UNL     1       5.082  -7.988  -2.736  0.00  0.00    +0.044 C 
ATOM     22  C   UNL     1       4.385  -7.673  -1.438  0.00  0.00    -0.048 A 
ATOM     23  C   UNL     1       5.012  -8.029  -0.230  0.00  0.00    +0.005 A 
ATOM     24  C   UNL     1       4.460  -7.785   0.975  0.00  0.00    +0.027 A 
ATOM     25  C   UNL     1       3.151  -7.121   1.052  0.00  0.00    +0.060 A 
ATOM     26  N   UNL     1       2.396  -6.767   2.051  0.00  0.00    -0.359 N 
ATOM     27  C   UNL     1       1.193  -6.137   1.493  0.00  0.00    +0.216 C 
ATOM     28  N   UNL     1       1.348  -6.171   0.033  0.00  0.00    -0.359 N 
ATOM     29  C   UNL     1       2.488  -6.743  -0.226  0.00  0.00    +0.061 A 
ATOM     30  C   UNL     1       3.187  -7.055  -1.480  0.00  0.00    +0.030 A 
ATOM     31  H   UNL     1       2.592  -6.896   2.993  0.00  0.00    +0.162 HD
ATOM     32  H   UNL     1       0.716  -5.829  -0.619  0.00  0.00    +0.162 HD
ENDBRANCH  19  27
BRANCH  19  33
ATOM     33  C   UNL     1      -0.155  -8.296   1.555  0.00  0.00    +0.099 C 
ATOM     34  N   UNL     1      -0.252  -9.393   1.280  0.00  0.00    -0.191 NA
ENDBRANCH  19  33
ENDBRANCH   1  20
TORSDOF 6
