REMARK  Name = ZINC29404171
REMARK  16 active torsions:
REMARK  status: ('A' for Active; 'I' for Inactive)
REMARK    1  A    between atoms: C_1  and  C_2
REMARK    2  A    between atoms: C_2  and  O_3
REMARK    3  A    between atoms: O_3  and  C_4
REMARK    4  A    between atoms: C_6  and  C_30
REMARK    5  A    between atoms: C_8  and  C_26
REMARK    6  A    between atoms: C_9  and  C_25
REMARK    7  A    between atoms: C_11  and  C_12
REMARK    8  A    between atoms: C_12  and  O_13
REMARK    9  A    between atoms: O_13  and  C_14
REMARK   10  A    between atoms: C_14  and  C_15
REMARK   11  A    between atoms: C_15  and  N_16
REMARK   12  A    between atoms: C_19  and  N_22
REMARK   13  A    between atoms: N_22  and  C_23
REMARK   14  A    between atoms: N_22  and  C_24
REMARK   15  A    between atoms: C_26  and  O_28
REMARK   16  A    between atoms: O_28  and  C_29
REMARK                            x       y       z     vdW  Elec       q    Type
REMARK                         _______ _______ _______ _____ _____    ______ ____
ROOT
ATOM      1  C   UNL     1      -1.491  -1.849   0.025  0.00  0.00    +0.338 C 
ATOM      2  C   UNL     1      -2.760  -2.388   0.021  0.00  0.00    +0.072 C 
ATOM      3  C   UNL     1      -2.994  -3.866   0.275  0.00  0.00    +0.098 C 
ATOM      4  C   UNL     1      -4.441  -4.322   0.242  0.00  0.00    +0.069 C 
ATOM      5  C   UNL     1      -5.395  -3.379  -0.009  0.00  0.00    +0.049 C 
ATOM      6  N   UNL     1      -5.097  -2.106  -0.219  0.00  0.00    -0.253 NA
ATOM      7  C   UNL     1      -3.886  -1.596  -0.210  0.00  0.00    +0.078 C 
ATOM      8  C   UNL     1      -6.841  -3.801  -0.048  0.00  0.00    +0.066 C 
ATOM      9  O   UNL     1      -0.424  -2.640   0.251  0.00  0.00    -0.245 OA
ENDROOT
BRANCH   3  10
ATOM     10  C   UNL     1      -2.234  -4.648  -0.766  0.00  0.00    -0.017 A 
ATOM     11  C   UNL     1      -2.513  -4.467  -2.108  0.00  0.00    +0.006 A 
ATOM     12  C   UNL     1      -1.817  -5.184  -3.062  0.00  0.00    +0.000 A 
ATOM     13  C   UNL     1      -0.840  -6.083  -2.676  0.00  0.00    +0.001 A 
ATOM     14  C   UNL     1      -0.560  -6.265  -1.335  0.00  0.00    +0.020 A 
ATOM     15  C   UNL     1      -1.253  -5.543  -0.379  0.00  0.00    +0.045 A 
ATOM     16 CL   UNL     1      -0.897  -5.767   1.305  0.00  0.00    -0.083 Cl
ENDBRANCH   3  10
BRANCH   4  17
ATOM     17  C   UNL     1      -4.786  -5.668   0.461  0.00  0.00    +0.338 C 
ATOM     18  O   UNL     1      -5.958  -5.989   0.545  0.00  0.00    -0.245 OA
BRANCH  17  19
ATOM     19  O   UNL     1      -3.819  -6.603   0.578  0.00  0.00    -0.465 OA
ATOM     20  C   UNL     1      -4.242  -7.949   0.800  0.00  0.00    +0.280 C 
ENDBRANCH  17  19
ENDBRANCH   4  17
BRANCH   1  21
ATOM     21  O   UNL     1      -1.318  -0.532  -0.198  0.00  0.00    -0.462 OA
BRANCH  21  23
ATOM     22  C   UNL     1       0.021   1.464  -0.450  0.00  0.00    +0.048 C 
ATOM     23  C   UNL     1       0.024  -0.042  -0.179  0.00  0.00    +0.229 C 
ENDBRANCH  21  23
ENDBRANCH   1  21
BRANCH   7  24
ATOM     24  C   UNL     1      -3.708  -0.121  -0.460  0.00  0.00    +0.215 C 
BRANCH  24  25
ATOM     25  O   UNL     1      -4.986   0.484  -0.670  0.00  0.00    -0.375 OA
BRANCH  25  26
ATOM     26  C   UNL     1      -4.929   1.890  -0.917  0.00  0.00    +0.142 C 
BRANCH  26  27
ATOM     27  C   UNL     1      -6.346   2.429  -1.126  0.00  0.00    -0.050 C 
BRANCH  27  28
ATOM     28  N   UNL     1      -7.113   2.284   0.119  0.00  0.00    +0.381 N 
ATOM     29  C   UNL     1      -6.517   3.129   1.160  0.00  0.00    -0.080 C 
ATOM     30  C   UNL     1      -7.263   2.920   2.480  0.00  0.00    -0.034 C 
ATOM     31  C   UNL     1      -8.735   3.299   2.294  0.00  0.00    -0.073 C 
ATOM     32  C   UNL     1      -9.326   2.464   1.155  0.00  0.00    -0.034 C 
ATOM     33  C   UNL     1      -8.504   2.689  -0.116  0.00  0.00    -0.080 C 
ATOM     34  H   UNL     1      -7.090   1.320   0.416  0.00  0.00    -0.082 HD
BRANCH  31  35
ATOM     35  N   UNL     1      -9.472   3.029   3.535  0.00  0.00    +0.378 N 
ATOM     36  C   UNL     1      -8.897   3.824   4.629  0.00  0.00    -0.096 C 
ATOM     37  C   UNL     1     -10.884   3.393   3.355  0.00  0.00    -0.096 C 
ATOM     38  H   UNL     1      -9.404   2.048   3.761  0.00  0.00    -0.082 HD
ENDBRANCH  31  35
ENDBRANCH  27  28
ENDBRANCH  26  27
ENDBRANCH  25  26
ENDBRANCH  24  25
ENDBRANCH   7  24
TORSDOF 11
