REMARK  Name = ZINC13024033
REMARK  16 active torsions:
REMARK  status: ('A' for Active; 'I' for Inactive)
REMARK    1  A    between atoms: C_1  and  C_2
REMARK    2  A    between atoms: C_2  and  C_3
REMARK    3  A    between atoms: C_3  and  C_4
REMARK    4  A    between atoms: C_3  and  C_5
REMARK    5  A    between atoms: C_3  and  N_6
REMARK    6  A    between atoms: C_7  and  C_9
REMARK    7  A    between atoms: C_9  and  C_11
REMARK    8  A    between atoms: C_9  and  N_21
REMARK    9  A    between atoms: C_15  and  O_19
REMARK   10  A    between atoms: C_16  and  O_17
REMARK   11  A    between atoms: O_17  and  C_18
REMARK   12  A    between atoms: O_19  and  C_20
REMARK   13  A    between atoms: N_21  and  C_22
REMARK   14  A    between atoms: C_22  and  C_23
REMARK   15  A    between atoms: C_29  and  C_31
REMARK   16  A    between atoms: C_31  and  N_32
REMARK                            x       y       z     vdW  Elec       q    Type
REMARK                         _______ _______ _______ _____ _____    ______ ____
ROOT
ATOM      1  C   UNL     1      -3.482  -1.707  -3.174  0.00  0.00    +0.196 C 
ENDROOT
BRANCH   1   2
ATOM      2  C   UNL     1      -4.984  -1.772  -3.274  0.00  0.00    +0.027 A 
ATOM      3  C   UNL     1      -5.614  -2.991  -3.448  0.00  0.00    +0.010 A 
ATOM      4  C   UNL     1      -6.991  -3.054  -3.540  0.00  0.00    +0.004 A 
ATOM      5  C   UNL     1      -7.746  -1.899  -3.457  0.00  0.00    +0.049 A 
ATOM      6  C   UNL     1      -7.122  -0.675  -3.282  0.00  0.00    +0.162 A 
ATOM      7  C   UNL     1      -5.735  -0.612  -3.184  0.00  0.00    +0.167 A 
BRANCH   7   8
ATOM      8  O   UNL     1      -5.118   0.587  -3.007  0.00  0.00    -0.491 OA
ATOM      9  C   UNL     1      -4.851   1.359  -4.180  0.00  0.00    +0.277 C 
ENDBRANCH   7   8
BRANCH   6  10
ATOM     10  O   UNL     1      -7.864   0.463  -3.200  0.00  0.00    -0.491 OA
ATOM     11  C   UNL     1      -9.282   0.321  -3.303  0.00  0.00    +0.277 C 
ENDBRANCH   6  10
ENDBRANCH   1   2
BRANCH   1  13
ATOM     12  N   UNL     1      -2.826  -3.287  -4.961  0.00  0.00    -0.308 N 
ATOM     13  C   UNL     1      -2.890  -3.012  -3.643  0.00  0.00    +0.239 C 
ATOM     14  O   UNL     1      -2.473  -3.814  -2.835  0.00  0.00    -0.273 OA
ATOM     15  H   UNL     1      -3.092  -2.617  -5.610  0.00  0.00    +0.149 HD
BRANCH  12  16
ATOM     16  C   UNL     1      -2.354  -4.598  -5.413  0.00  0.00    +0.029 C 
ATOM     17  C   UNL     1      -0.924  -4.824  -4.917  0.00  0.00    +0.031 C 
ATOM     18  C   UNL     1      -3.267  -5.690  -4.851  0.00  0.00    +0.031 C 
BRANCH  16  20
ATOM     19  C   UNL     1      -1.885  -6.019  -7.414  0.00  0.00    +0.006 C 
ATOM     20  C   UNL     1      -2.378  -4.649  -6.942  0.00  0.00    +0.022 C 
ENDBRANCH  16  20
ENDBRANCH  12  16
ENDBRANCH   1  13
BRANCH   1  21
ATOM     21  N   UNL     1      -3.095  -1.468  -1.781  0.00  0.00    -0.282 N 
ATOM     22  C   UNL     1      -3.547  -2.283  -0.807  0.00  0.00    +0.238 C 
ATOM     23  O   UNL     1      -4.274  -3.214  -1.083  0.00  0.00    -0.274 OA
BRANCH  21  24
ATOM     24  C   UNL     1      -2.217  -0.344  -1.447  0.00  0.00    +0.140 C 
BRANCH  24  25
ATOM     25  C   UNL     1      -0.761  -0.816  -1.450  0.00  0.00    +0.136 C 
ATOM     26  C   UNL     1       0.182   0.349  -1.077  0.00  0.00    +0.035 C 
ATOM     27  C   UNL     1       1.423   0.128  -1.971  0.00  0.00    +0.031 C 
ATOM     28  C   UNL     1       1.082  -1.145  -2.777  0.00  0.00    +0.160 C 
ATOM     29  O   UNL     1      -0.361  -1.204  -2.782  0.00  0.00    -0.375 OA
ENDBRANCH  24  25
ENDBRANCH  21  24
BRANCH  22  30
ATOM     30  C   UNL     1      -3.149  -2.037   0.625  0.00  0.00    +0.241 C 
BRANCH  30  31
ATOM     31  N   UNL     1      -3.765  -3.051   1.484  0.00  0.00    -0.235 N 
ATOM     32  C   UNL     1      -4.994  -2.975   2.096  0.00  0.00    +0.090 A 
ATOM     33  C   UNL     1      -5.995  -2.010   2.136  0.00  0.00    +0.029 A 
ATOM     34  C   UNL     1      -7.129  -2.239   2.863  0.00  0.00    +0.002 A 
ATOM     35  C   UNL     1      -7.290  -3.425   3.568  0.00  0.00    +0.002 A 
ATOM     36  C   UNL     1      -6.321  -4.385   3.549  0.00  0.00    +0.032 A 
ATOM     37  C   UNL     1      -5.148  -4.176   2.811  0.00  0.00    +0.113 A 
ATOM     38  N   UNL     1      -4.043  -4.919   2.606  0.00  0.00    -0.129 NA
ATOM     39  N   UNL     1      -3.220  -4.294   1.840  0.00  0.00    -0.064 NA
ENDBRANCH  30  31
ENDBRANCH  22  30
ENDBRANCH   1  21
TORSDOF 11
