REMARK  Name = ZINC17820318
REMARK  8 active torsions:
REMARK  status: ('A' for Active; 'I' for Inactive)
REMARK    1  A    between atoms: C_1  and  C_2
REMARK    2  A    between atoms: C_5  and  S_8
REMARK    3  A    between atoms: S_8  and  N_11
REMARK    4  A    between atoms: C_14  and  N_23
REMARK    5  A    between atoms: N_23  and  N_24
REMARK    6  A    between atoms: C_25  and  C_27
REMARK    7  A    between atoms: C_29  and  O_34
REMARK    8  A    between atoms: C_31  and  O_33
REMARK                            x       y       z     vdW  Elec       q    Type
REMARK                         _______ _______ _______ _____ _____    ______ ____
ROOT
ATOM      1  N   UNL     1      -1.948  -1.148  -1.567  0.00  0.00    -0.128 NA
ATOM      2  C   UNL     1      -2.990  -1.863  -1.899  0.00  0.00    +0.095 C 
ATOM      3  C   UNL     1      -3.285  -2.134  -3.313  0.00  0.00    +0.058 C 
ATOM      4  C   UNL     1      -4.181  -3.091  -3.652  0.00  0.00    +0.094 C 
ATOM      5  C   UNL     1      -4.880  -3.864  -2.605  0.00  0.00    +0.209 C 
ATOM      6  O   UNL     1      -5.493  -4.874  -2.892  0.00  0.00    -0.285 OA
ATOM      7  C   UNL     1      -4.826  -3.396  -1.205  0.00  0.00    +0.033 A 
ATOM      8  C   UNL     1      -3.891  -2.405  -0.853  0.00  0.00    +0.013 A 
ATOM      9  C   UNL     1      -3.826  -1.952   0.456  0.00  0.00    +0.011 A 
ATOM     10  C   UNL     1      -4.683  -2.479   1.408  0.00  0.00    +0.001 A 
ATOM     11  C   UNL     1      -5.602  -3.453   1.063  0.00  0.00    +0.001 A 
ATOM     12  C   UNL     1      -5.679  -3.916  -0.238  0.00  0.00    +0.012 A 
ENDROOT
BRANCH   1  13
ATOM     13  S   UNL     1      -1.168  -1.436  -0.135  0.00  0.00    +0.099 S 
ATOM     14  O   UNL     1      -1.661  -2.676   0.354  0.00  0.00    -0.146 OA
ATOM     15  O   UNL     1      -1.247  -0.235   0.620  0.00  0.00    -0.146 OA
BRANCH  13  20
ATOM     16  C   UNL     1       4.665  -2.285  -1.420  0.00  0.00    +0.044 C 
ATOM     17  C   UNL     1       3.208  -2.073  -1.099  0.00  0.00    -0.050 A 
ATOM     18  C   UNL     1       2.739  -0.802  -0.823  0.00  0.00    +0.005 A 
ATOM     19  C   UNL     1       1.403  -0.608  -0.529  0.00  0.00    +0.029 A 
ATOM     20  C   UNL     1       0.535  -1.684  -0.510  0.00  0.00    +0.112 A 
ATOM     21  C   UNL     1       1.005  -2.955  -0.785  0.00  0.00    +0.029 A 
ATOM     22  C   UNL     1       2.341  -3.150  -1.079  0.00  0.00    +0.005 A 
ENDBRANCH  13  20
ENDBRANCH   1  13
BRANCH   4  23
ATOM     23  N   UNL     1      -4.448  -3.342  -4.990  0.00  0.00    -0.261 N 
ATOM     24  H   UNL     1      -5.178  -4.116  -5.269  0.00  0.00    +0.170 HD
BRANCH  23  25
ATOM     25  N   UNL     1      -3.787  -2.611  -5.986  0.00  0.00    -0.232 N 
ATOM     26  C   UNL     1      -4.047  -2.855  -7.286  0.00  0.00    +0.260 C 
ATOM     27  O   UNL     1      -4.854  -3.710  -7.594  0.00  0.00    -0.269 OA
ATOM     28  H   UNL     1      -3.057  -1.837  -5.707  0.00  0.00    +0.173 HD
BRANCH  26  29
ATOM     29  C   UNL     1      -3.349  -2.084  -8.337  0.00  0.00    +0.045 A 
ATOM     30  C   UNL     1      -2.426  -1.098  -7.985  0.00  0.00    +0.058 A 
ATOM     31  C   UNL     1      -1.771  -0.382  -8.973  0.00  0.00    +0.121 A 
ATOM     32  C   UNL     1      -2.040  -0.635 -10.310  0.00  0.00    +0.090 A 
ATOM     33  C   UNL     1      -2.961  -1.610 -10.664  0.00  0.00    +0.121 A 
ATOM     34  C   UNL     1      -3.616  -2.335  -9.683  0.00  0.00    +0.058 A 
BRANCH  33  35
ATOM     35  O   UNL     1      -3.221  -1.854 -11.976  0.00  0.00    -0.507 OA
ATOM     36  H   UNL     1      -3.951  -2.627 -12.257  0.00  0.00    +0.292 HD
ENDBRANCH  33  35
BRANCH  31  37
ATOM     37  O   UNL     1      -0.868   0.575  -8.631  0.00  0.00    -0.507 OA
ATOM     38  H   UNL     1      -0.347   1.144  -9.415  0.00  0.00    +0.292 HD
ENDBRANCH  31  37
ENDBRANCH  26  29
ENDBRANCH  23  25
ENDBRANCH   4  23
TORSDOF 7
