REMARK  Name = ZINC43218918
REMARK  8 active torsions:
REMARK  status: ('A' for Active; 'I' for Inactive)
REMARK    1  A    between atoms: C_1  and  C_2
REMARK    2  A    between atoms: C_2  and  C_3
REMARK    3  A    between atoms: C_3  and  C_4
REMARK    4  A    between atoms: C_4  and  N_5
REMARK    5  A    between atoms: C_10  and  C_27
REMARK    6  A    between atoms: C_13  and  C_18
REMARK    7  A    between atoms: C_13  and  C_24
REMARK    8  A    between atoms: C_32  and  O_33
REMARK                            x       y       z     vdW  Elec       q    Type
REMARK                         _______ _______ _______ _____ _____    ______ ____
ROOT
ATOM      1  N   UNL     1      -3.161  -2.981   0.756  0.00  0.00    -0.242 N 
ATOM      2  C   UNL     1      -4.090  -3.362   1.693  0.00  0.00    +0.224 C 
ATOM      3  O   UNL     1      -4.037  -3.208   2.894  0.00  0.00    -0.275 OA
ATOM      4  C   UNL     1      -5.144  -3.986   0.928  0.00  0.00    +0.077 C 
ATOM      5  C   UNL     1      -6.558  -4.366   1.058  0.00  0.00    -0.023 C 
ATOM      6  N   UNL     1      -7.024  -4.547  -0.357  0.00  0.00    +0.398 N 
ATOM      7  C   UNL     1      -5.896  -4.144  -1.258  0.00  0.00    +0.074 C 
ATOM      8  C   UNL     1      -5.141  -3.115  -0.390  0.00  0.00    +0.090 C 
ATOM      9  C   UNL     1      -3.645  -3.036  -0.520  0.00  0.00    +0.225 C 
ATOM     10  O   UNL     1      -3.001  -3.025  -1.547  0.00  0.00    -0.275 OA
ATOM     11  H   UNL     1      -7.263  -5.514  -0.518  0.00  0.00    -0.083 HD
ATOM     12  H   UNL     1      -7.827  -3.961  -0.531  0.00  0.00    -0.083 HD
ENDROOT
BRANCH   7  13
ATOM     13  C   UNL     1      -5.031  -5.332  -1.594  0.00  0.00    -0.047 A 
ATOM     14  C   UNL     1      -5.174  -6.512  -0.889  0.00  0.00    +0.003 A 
ATOM     15  C   UNL     1      -4.381  -7.602  -1.198  0.00  0.00    +0.000 A 
ATOM     16  C   UNL     1      -3.445  -7.511  -2.211  0.00  0.00    +0.000 A 
ATOM     17  C   UNL     1      -3.302  -6.330  -2.916  0.00  0.00    +0.000 A 
ATOM     18  C   UNL     1      -4.099  -5.242  -2.611  0.00  0.00    +0.003 A 
ENDBRANCH   7  13
BRANCH   5  19
ATOM     19  C   UNL     1      -7.338  -3.269   1.736  0.00  0.00    -0.019 A 
ATOM     20  C   UNL     1      -7.954  -2.289   0.981  0.00  0.00    +0.005 A 
ATOM     21  C   UNL     1      -8.669  -1.283   1.603  0.00  0.00    +0.000 A 
ATOM     22  C   UNL     1      -8.771  -1.254   2.981  0.00  0.00    +0.004 A 
ATOM     23  C   UNL     1      -8.158  -2.232   3.741  0.00  0.00    +0.045 A 
ATOM     24  C   UNL     1      -7.444  -3.246   3.119  0.00  0.00    +0.118 A 
BRANCH  24  25
ATOM     25  O   UNL     1      -6.844  -4.212   3.864  0.00  0.00    -0.507 OA
ATOM     26  H   UNL     1      -5.938  -4.000   4.127  0.00  0.00    +0.292 HD
ENDBRANCH  24  25
ENDBRANCH   5  19
BRANCH   7  27
ATOM     27  C   UNL     1      -6.420  -3.492  -2.512  0.00  0.00    +0.350 C 
ATOM     28  O   UNL     1      -7.622  -3.382  -2.685  0.00  0.00    -0.248 OA
ATOM     29  O   UNL     1      -5.642  -3.074  -3.353  0.00  0.00    -0.248 OA
ENDBRANCH   7  27
BRANCH   1  30
ATOM     30  C   UNL     1      -1.800  -2.556   1.090  0.00  0.00    +0.116 C 
BRANCH  30  31
ATOM     31  C   UNL     1      -1.780  -1.044   1.320  0.00  0.00    +0.019 C 
BRANCH  31  33
ATOM     32  C   UNL     1      -0.337   0.913   1.899  0.00  0.00    +0.004 C 
ATOM     33  C   UNL     1      -0.357  -0.600   1.669  0.00  0.00    -0.002 C 
ENDBRANCH  31  33
ENDBRANCH  30  31
ENDBRANCH   1  30
TORSDOF 7
