REMARK  Name = ZINC32492081
REMARK  6 active torsions:
REMARK  status: ('A' for Active; 'I' for Inactive)
REMARK    1  A    between atoms: C_1  and  C_2
REMARK    2  A    between atoms: C_7  and  N_8
REMARK    3  A    between atoms: N_8  and  C_9
REMARK    4  A    between atoms: C_9  and  C_10
REMARK    5  A    between atoms: N_12  and  N_13
REMARK    6  A    between atoms: C_19  and  C_21
REMARK                            x       y       z     vdW  Elec       q    Type
REMARK                         _______ _______ _______ _____ _____    ______ ____
ROOT
ATOM      1  C   UNL     1      -0.997   1.889  -0.719  0.00  0.00    +0.249 C 
ATOM      2  O   UNL     1      -0.914   3.088  -0.886  0.00  0.00    -0.272 OA
ATOM      3  N   UNL     1       0.099   1.177  -0.390  0.00  0.00    -0.206 N 
ATOM      4  H   UNL     1       0.023   0.091  -0.234  0.00  0.00    +0.177 HD
ENDROOT
BRANCH   3   5
ATOM      5  N   UNL     1       1.335   1.820  -0.247  0.00  0.00    -0.189 NA
ATOM      6  C   UNL     1       2.398   1.131  -0.061  0.00  0.00    +0.040 C 
ATOM      7  C   UNL     1       3.593   1.725   0.651  0.00  0.00    +0.053 C 
ATOM      8  C   UNL     1       4.838   1.501  -0.208  0.00  0.00    +0.006 C 
ATOM      9  C   UNL     1       4.972   0.012  -0.532  0.00  0.00    +0.001 C 
ATOM     10  C   UNL     1       3.778  -0.446  -1.372  0.00  0.00    +0.009 C 
ATOM     11  C   UNL     1       2.492  -0.297  -0.552  0.00  0.00    +0.032 C 
ATOM     12  C   UNL     1       1.282  -0.619  -1.432  0.00  0.00    +0.014 C 
ENDBRANCH   3   5
BRANCH   1  13
ATOM     13  C   UNL     1      -2.326   1.196  -0.878  0.00  0.00    +0.199 C 
BRANCH  13  14
ATOM     14  N   UNL     1      -3.350   2.181  -1.234  0.00  0.00    -0.335 N 
ATOM     15  H   UNL     1      -3.079   3.242  -1.343  0.00  0.00    +0.147 HD
BRANCH  14  22
ATOM     16  C   UNL     1      -5.277   4.161  -1.912  0.00  0.00    +0.045 C 
ATOM     17  C   UNL     1      -5.644   2.707  -1.768  0.00  0.00    -0.029 A 
ATOM     18  C   UNL     1      -6.948   2.299  -1.973  0.00  0.00    +0.019 A 
ATOM     19  C   UNL     1      -7.287   0.965  -1.836  0.00  0.00    +0.014 A 
ATOM     20  C   UNL     1      -6.321   0.034  -1.499  0.00  0.00    +0.016 A 
ATOM     21  C   UNL     1      -5.015   0.434  -1.299  0.00  0.00    +0.024 A 
ATOM     22  C   UNL     1      -4.671   1.773  -1.436  0.00  0.00    +0.031 A 
ATOM     23  I   UNL     1      -9.268   0.353  -2.138  0.00  0.00    -0.044 I 
ENDBRANCH  14  22
ENDBRANCH  13  14
ENDBRANCH   1  13
TORSDOF 4
