REMARK  Name = ZINC00934389
REMARK  8 active torsions:
REMARK  status: ('A' for Active; 'I' for Inactive)
REMARK    1  A    between atoms: C_1  and  C_2
REMARK    2  A    between atoms: C_4  and  C_28
REMARK    3  A    between atoms: C_6  and  N_8
REMARK    4  A    between atoms: N_8  and  S_9
REMARK    5  A    between atoms: S_9  and  C_12
REMARK    6  A    between atoms: C_15  and  N_18
REMARK    7  A    between atoms: C_19  and  C_20
REMARK    8  A    between atoms: C_25  and  O_26
REMARK                            x       y       z     vdW  Elec       q    Type
REMARK                         _______ _______ _______ _____ _____    ______ ____
ROOT
ATOM      1  C   UNL     1       0.067  -3.010   5.080  0.00  0.00    +0.111 A 
ATOM      2  C   UNL     1      -1.124  -3.491   5.593  0.00  0.00    +0.031 A 
ATOM      3  C   UNL     1      -1.114  -4.414   6.618  0.00  0.00    +0.029 A 
ATOM      4  C   UNL     1       0.102  -4.863   7.137  0.00  0.00    +0.064 A 
ATOM      5  C   UNL     1       1.301  -4.373   6.614  0.00  0.00    +0.029 A 
ATOM      6  C   UNL     1       1.276  -3.454   5.586  0.00  0.00    +0.031 A 
ENDROOT
BRANCH   1   7
ATOM      7  S   UNL     1       0.045  -1.831   3.770  0.00  0.00    +0.094 S 
ATOM      8  O   UNL     1       1.282  -1.133   3.831  0.00  0.00    -0.148 OA
ATOM      9  O   UNL     1      -1.209  -1.167   3.843  0.00  0.00    -0.148 OA
BRANCH   7  10
ATOM     10  N   UNL     1       0.050  -2.679   2.348  0.00  0.00    -0.058 NA
BRANCH  10  16
ATOM     11  C   UNL     1      -0.018   1.503   0.010  0.00  0.00    +0.066 C 
ATOM     12  C   UNL     1       0.002  -0.004   0.002  0.00  0.00    +0.044 A 
ATOM     13  C   UNL     1       0.006  -0.699  -1.197  0.00  0.00    +0.046 A 
ATOM     14  C   UNL     1       0.025  -2.084  -1.160  0.00  0.00    +0.044 A 
ATOM     15  N   UNL     1       0.040  -2.698   0.011  0.00  0.00    -0.217 NA
ATOM     16  C   UNL     1       0.035  -2.004   1.140  0.00  0.00    +0.258 A 
ATOM     17  N   UNL     1       0.022  -0.679   1.139  0.00  0.00    -0.217 NA
ATOM     18  C   UNL     1       0.030  -2.881  -2.439  0.00  0.00    +0.066 C 
ENDBRANCH  10  16
ENDBRANCH   7  10
ENDBRANCH   1   7
BRANCH   4  19
ATOM     19  N   UNL     1       0.119  -5.779   8.155  0.00  0.00    -0.255 NA
ATOM     20  C   UNL     1       0.935  -6.795   8.104  0.00  0.00    +0.123 C 
BRANCH  20  21
ATOM     21  C   UNL     1       0.953  -7.778   9.196  0.00  0.00    +0.036 A 
ATOM     22  C   UNL     1       1.830  -8.867   9.149  0.00  0.00    +0.028 A 
ATOM     23  C   UNL     1       1.842  -9.785  10.177  0.00  0.00    +0.019 A 
ATOM     24  C   UNL     1       0.988  -9.635  11.258  0.00  0.00    +0.019 A 
ATOM     25  C   UNL     1       0.116  -8.565  11.317  0.00  0.00    +0.047 A 
ATOM     26  C   UNL     1       0.095  -7.628  10.296  0.00  0.00    +0.125 A 
ATOM     27 BR   UNL     1       3.028 -11.256  10.112  0.00  0.00    -0.050 Br
BRANCH  26  28
ATOM     28  O   UNL     1      -0.757  -6.573  10.356  0.00  0.00    -0.506 OA
ATOM     29  H   UNL     1      -1.621  -6.742   9.957  0.00  0.00    +0.292 HD
ENDBRANCH  26  28
ENDBRANCH  20  21
ENDBRANCH   4  19
TORSDOF 6
