REMARK  Name = ZINC62575508
REMARK  11 active torsions:
REMARK  status: ('A' for Active; 'I' for Inactive)
REMARK    1  A    between atoms: C_1  and  C_2
REMARK    2  A    between atoms: C_2  and  N_3
REMARK    3  A    between atoms: C_6  and  N_9
REMARK    4  A    between atoms: N_9  and  C_10
REMARK    5  A    between atoms: C_11  and  C_13
REMARK    6  A    between atoms: N_24  and  S_25
REMARK    7  A    between atoms: S_25  and  C_28
REMARK    8  A    between atoms: C_29  and  C_37
REMARK    9  A    between atoms: C_31  and  O_35
REMARK   10  A    between atoms: C_33  and  C_34
REMARK   11  A    between atoms: O_35  and  C_36
REMARK                            x       y       z     vdW  Elec       q    Type
REMARK                         _______ _______ _______ _____ _____    ______ ____
ROOT
ATOM      1  C   UNL     1      -7.177  -3.113  -2.518  0.00  0.00    +0.166 C 
ATOM      2  C   UNL     1      -8.132  -1.959  -2.895  0.00  0.00    +0.035 C 
ATOM      3  C   UNL     1      -9.290  -2.701  -3.630  0.00  0.00    +0.010 C 
ATOM      4  C   UNL     1     -10.180  -3.307  -2.543  0.00  0.00    +0.005 C 
ATOM      5  C   UNL     1     -11.090  -4.383  -3.129  0.00  0.00    +0.000 C 
ATOM      6  C   UNL     1     -10.217  -5.508  -3.696  0.00  0.00    +0.002 C 
ATOM      7  C   UNL     1      -9.376  -4.938  -4.838  0.00  0.00    +0.021 C 
ATOM      8  C   UNL     1      -8.498  -3.792  -4.374  0.00  0.00    +0.084 C 
ATOM      9  N   UNL     1      -7.453  -4.230  -3.438  0.00  0.00    -0.161 NA
ENDROOT
BRANCH   1  12
ATOM     10  N   UNL     1      -5.135  -2.009  -1.663  0.00  0.00    -0.300 N 
ATOM     11  C   UNL     1      -5.861  -1.732  -0.422  0.00  0.00    +0.132 C 
ATOM     12  C   UNL     1      -5.746  -2.665  -2.670  0.00  0.00    +0.234 C 
ATOM     13  O   UNL     1      -5.145  -2.895  -3.697  0.00  0.00    -0.274 OA
BRANCH  10  17
ATOM     14  N   UNL     1      -1.441  -0.243  -0.663  0.00  0.00    +0.380 N 
ATOM     15  C   UNL     1      -2.202   0.389  -1.747  0.00  0.00    -0.077 C 
ATOM     16  C   UNL     1      -3.666  -0.051  -1.671  0.00  0.00    +0.004 C 
ATOM     17  C   UNL     1      -3.744  -1.574  -1.811  0.00  0.00    +0.072 C 
ATOM     18  C   UNL     1      -2.886  -2.221  -0.720  0.00  0.00    +0.004 C 
ATOM     19  C   UNL     1      -1.451  -1.701  -0.831  0.00  0.00    -0.077 C 
ATOM     20  H   UNL     1      -1.861  -0.005   0.224  0.00  0.00    -0.082 HD
BRANCH  14  22
ATOM     21  C   UNL     1      -0.033   1.743  -0.393  0.00  0.00    -0.017 C 
ATOM     22  C   UNL     1      -0.055   0.242  -0.692  0.00  0.00    -0.082 C 
ENDBRANCH  14  22
ENDBRANCH  10  17
ENDBRANCH   1  12
BRANCH   9  23
ATOM     23  S   UNL     1      -6.716  -5.713  -3.420  0.00  0.00    +0.062 S 
ATOM     24  O   UNL     1      -6.363  -5.974  -2.068  0.00  0.00    -0.153 OA
ATOM     25  O   UNL     1      -7.544  -6.588  -4.173  0.00  0.00    -0.153 OA
BRANCH  23  26
ATOM     26  C   UNL     1      -5.206  -5.554  -4.314  0.00  0.00    +0.112 A 
ATOM     27  C   UNL     1      -4.008  -5.442  -3.631  0.00  0.00    -0.020 A 
ATOM     28  C   UNL     1      -2.823  -5.318  -4.330  0.00  0.00    +0.051 A 
ATOM     29  C   UNL     1      -2.835  -5.306  -5.717  0.00  0.00    +0.121 A 
ATOM     30  C   UNL     1      -4.037  -5.419  -6.399  0.00  0.00    +0.051 A 
ATOM     31  C   UNL     1      -5.219  -5.548  -5.696  0.00  0.00    -0.020 A 
ATOM     32  C   UNL     1      -6.525  -5.678  -6.437  0.00  0.00    +0.046 C 
ATOM     33  C   UNL     1      -3.997  -5.455  -2.124  0.00  0.00    +0.046 C 
BRANCH  29  34
ATOM     34  O   UNL     1      -1.670  -5.183  -6.406  0.00  0.00    -0.495 OA
ATOM     35  C   UNL     1      -1.758  -5.178  -7.833  0.00  0.00    +0.277 C 
ENDBRANCH  29  34
ENDBRANCH  23  26
ENDBRANCH   9  23
TORSDOF 6
