REMARK  Name = ZINC39412460
REMARK  4 active torsions:
REMARK  status: ('A' for Active; 'I' for Inactive)
REMARK    1  A    between atoms: C_1  and  C_2
REMARK    2  A    between atoms: N_16  and  N_17
REMARK    3  A    between atoms: C_21  and  C_30
REMARK    4  A    between atoms: N_25  and  C_28
REMARK                            x       y       z     vdW  Elec       q    Type
REMARK                         _______ _______ _______ _____ _____    ______ ____
ROOT
ATOM      1  C   UNL     1       1.342   1.569   0.772  0.00  0.00    +0.046 C 
ATOM      2  C   UNL     1       1.169   0.079   0.626  0.00  0.00    -0.027 A 
ATOM      3  C   UNL     1       1.267  -0.505  -0.590  0.00  0.00    +0.005 A 
ATOM      4  C   UNL     1       1.113  -1.888  -0.758  0.00  0.00    +0.001 A 
ATOM      5  C   UNL     1       0.830  -2.716   0.273  0.00  0.00    +0.012 A 
ATOM      6  C   UNL     1       0.674  -2.208   1.582  0.00  0.00    +0.025 A 
ATOM      7  C   UNL     1       0.280  -2.754   2.777  0.00  0.00    +0.115 C 
ATOM      8  C   UNL     1       0.589  -1.693   3.827  0.00  0.00    +0.253 C 
ATOM      9  N   UNL     1       0.782  -0.460   3.075  0.00  0.00    -0.358 N 
ATOM     10  C   UNL     1       0.898  -0.755   1.803  0.00  0.00    +0.049 A 
ATOM     11  N   UNL     1      -0.561  -1.673   4.733  0.00  0.00    -0.220 NA
ATOM     12  C   UNL     1      -1.259  -2.770   4.869  0.00  0.00    +0.227 C 
ATOM     13  N   UNL     1      -1.016  -3.909   4.178  0.00  0.00    -0.247 N 
ATOM     14  N   UNL     1      -0.277  -3.917   3.118  0.00  0.00    -0.171 NA
ATOM     15  N   UNL     1      -2.308  -2.767   5.773  0.00  0.00    -0.205 N 
ATOM     16  H   UNL     1      -2.845  -3.566   5.896  0.00  0.00    +0.177 HD
ATOM     17  H   UNL     1      -1.415  -4.739   4.482  0.00  0.00    +0.192 HD
ATOM     18  H   UNL     1       0.821   0.432   3.454  0.00  0.00    +0.162 HD
ENDROOT
BRANCH  15  19
ATOM     19  N   UNL     1      -2.572  -1.702   6.452  0.00  0.00    -0.174 NA
ATOM     20  C   UNL     1      -3.496  -1.730   7.384  0.00  0.00    +0.153 C 
ATOM     21  C   UNL     1      -4.203  -2.917   7.917  0.00  0.00    +0.030 A 
ATOM     22  C   UNL     1      -4.132  -4.277   7.632  0.00  0.00    +0.015 A 
ATOM     23  C   UNL     1      -4.941  -5.163   8.314  0.00  0.00    -0.049 A 
ATOM     24  C   UNL     1      -5.820  -4.700   9.278  0.00  0.00    +0.020 A 
ATOM     25  C   UNL     1      -5.898  -3.353   9.569  0.00  0.00    +0.040 A 
ATOM     26  C   UNL     1      -5.090  -2.444   8.892  0.00  0.00    +0.060 A 
ATOM     27  N   UNL     1      -4.972  -1.062   8.988  0.00  0.00    -0.268 N 
ATOM     28  C   UNL     1      -4.050  -0.587   8.134  0.00  0.00    +0.271 C 
ATOM     29  O   UNL     1      -3.731   0.580   8.000  0.00  0.00    -0.268 OA
ATOM     30  C   UNL     1      -5.750  -0.229   9.909  0.00  0.00    +0.138 C 
ATOM     31 BR   UNL     1      -7.105  -2.741  10.890  0.00  0.00    -0.048 Br
ATOM     32  C   UNL     1      -4.868  -6.637   8.008  0.00  0.00    +0.044 C 
ENDBRANCH  15  19
TORSDOF 1
