REMARK  Name = ZINC15708158
REMARK  5 active torsions:
REMARK  status: ('A' for Active; 'I' for Inactive)
REMARK    1  A    between atoms: C_12  and  C_14
REMARK    2  A    between atoms: C_14  and  C_15
REMARK    3  A    between atoms: C_15  and  C_16
REMARK    4  A    between atoms: C_25  and  N_28
REMARK    5  A    between atoms: N_31  and  C_32
REMARK                            x       y       z     vdW  Elec       q    Type
REMARK                         _______ _______ _______ _____ _____    ______ ____
ROOT
ATOM      1  C   UNL     1      -5.293   0.893   2.683  0.00  0.00    -0.050 C 
ATOM      2  C   UNL     1      -5.709  -0.499   3.180  0.00  0.00    +0.089 C 
ATOM      3  N   UNL     1      -6.183  -1.351   2.096  0.00  0.00    -0.318 N 
ATOM      4  C   UNL     1      -6.074  -1.054   0.786  0.00  0.00    +0.200 C 
ATOM      5  O   UNL     1      -6.396  -1.864  -0.056  0.00  0.00    -0.278 OA
ATOM      6  C   UNL     1      -5.553   0.287   0.387  0.00  0.00    +0.021 C 
ATOM      7  C   UNL     1      -3.919   1.875   0.828  0.00  0.00    -0.055 C 
ATOM      8  C   UNL     1      -3.669   1.423  -0.638  0.00  0.00    +0.057 C 
ATOM      9  C   UNL     1      -4.732   0.323  -0.903  0.00  0.00    +0.014 C 
ATOM     10  H   UNL     1      -6.606  -2.190   2.334  0.00  0.00    +0.149 HD
ATOM     11  N   UNL     1      -4.587   0.674   1.369  0.00  0.00    +0.391 N 
ATOM     12  H   UNL     1      -3.889  -0.069   1.494  0.00  0.00    -0.080 HD
ENDROOT
BRANCH   8  13
ATOM     13  N   UNL     1      -2.319   0.871  -0.778  0.00  0.00    -0.298 N 
ATOM     14  C   UNL     1      -1.279   1.690  -1.030  0.00  0.00    +0.304 C 
ATOM     15  O   UNL     1      -1.461   2.887  -1.141  0.00  0.00    -0.253 OA
ATOM     16  N   UNL     1      -0.037   1.182  -1.159  0.00  0.00    -0.269 N 
ATOM     17  H   UNL     1      -2.174  -0.084  -0.689  0.00  0.00    +0.150 HD
ATOM     18  H   UNL     1       0.099   0.222  -1.141  0.00  0.00    +0.156 HD
BRANCH  16  19
ATOM     19  C   UNL     1       1.063   2.045  -1.325  0.00  0.00    +0.042 A 
ATOM     20  C   UNL     1       2.304   1.714  -0.805  0.00  0.00    +0.031 A 
ATOM     21  C   UNL     1       3.342   2.566  -0.988  0.00  0.00    +0.047 A 
ATOM     22  S   UNL     1       2.576   3.893  -1.905  0.00  0.00    -0.103 S 
ATOM     23  C   UNL     1       0.925   3.222  -1.992  0.00  0.00    +0.068 A 
ENDBRANCH  16  19
ENDBRANCH   8  13
BRANCH   1  24
ATOM     24  C   UNL     1      -4.378   1.560   3.711  0.00  0.00    -0.005 C 
BRANCH  24  25
ATOM     25  C   UNL     1      -5.174   1.863   4.982  0.00  0.00    +0.094 C 
BRANCH  25  37
ATOM     26  C   UNL     1      -7.202   1.251  12.901  0.00  0.00    +0.005 A 
ATOM     27  C   UNL     1      -6.097   0.786  13.603  0.00  0.00    +0.018 A 
ATOM     28  C   UNL     1      -4.840   0.913  13.046  0.00  0.00    +0.084 A 
ATOM     29  C   UNL     1      -5.707   1.922  11.159  0.00  0.00    +0.099 A 
ATOM     30  C   UNL     1      -7.001   1.833  11.663  0.00  0.00    +0.042 A 
ATOM     31  N   UNL     1      -5.491   2.499   9.913  0.00  0.00    -0.314 N 
ATOM     32  C   UNL     1      -4.062   2.500   9.574  0.00  0.00    +0.125 C 
ATOM     33  C   UNL     1      -3.846   3.302   8.286  0.00  0.00    +0.126 C 
ATOM     34  N   UNL     1      -4.732   2.759   7.245  0.00  0.00    -0.298 N 
ATOM     35  C   UNL     1      -6.161   2.605   7.558  0.00  0.00    +0.126 C 
ATOM     36  C   UNL     1      -6.284   1.825   8.877  0.00  0.00    +0.125 C 
ATOM     37  C   UNL     1      -4.248   2.418   6.034  0.00  0.00    +0.216 C 
ATOM     38  O   UNL     1      -3.068   2.556   5.792  0.00  0.00    -0.276 OA
ATOM     39  N   UNL     1      -4.606   1.474  11.829  0.00  0.00    -0.350 N 
ATOM     40  H   UNL     1      -3.660   1.554  11.439  0.00  0.00    +0.166 HD
ENDBRANCH  25  37
ENDBRANCH  24  25
ENDBRANCH   1  24
TORSDOF 5
