REMARK  Name = ZINC11715703
REMARK  13 active torsions:
REMARK  status: ('A' for Active; 'I' for Inactive)
REMARK    1  A    between atoms: C_1  and  C_2
REMARK    2  A    between atoms: C_2  and  C_30
REMARK    3  A    between atoms: C_8  and  C_9
REMARK    4  A    between atoms: C_8  and  N_65
REMARK    5  A    between atoms: C_12  and  O_15
REMARK    6  A    between atoms: O_15  and  C_16
REMARK    7  A    between atoms: C_16  and  C_17
REMARK    8  A    between atoms: C_17  and  C_19
REMARK    9  A    between atoms: C_17  and  O_29
REMARK   10  A    between atoms: C_19  and  N_67
REMARK   11  A    between atoms: C_22  and  C_25
REMARK   12  A    between atoms: C_25  and  O_27
REMARK   13  A    between atoms: O_27  and  C_28
REMARK                            x       y       z     vdW  Elec       q    Type
REMARK                         _______ _______ _______ _____ _____    ______ ____
ROOT
ATOM      1  C   UNL     1       0.132   1.178   1.108  0.00  0.00    -0.064 A 
ATOM      2  C   UNL     1       1.312   1.885   1.250  0.00  0.00    +0.005 A 
ATOM      3  C   UNL     1       2.524   1.260   1.033  0.00  0.00    +0.046 A 
ATOM      4  C   UNL     1       2.557  -0.080   0.674  0.00  0.00    +0.121 A 
ATOM      5  C   UNL     1       1.372  -0.788   0.533  0.00  0.00    +0.046 A 
ATOM      6  C   UNL     1       0.163  -0.157   0.750  0.00  0.00    +0.005 A 
ENDROOT
BRANCH   1   7
ATOM      7  C   UNL     1      -1.189   1.865   1.338  0.00  0.00    -0.042 C 
BRANCH   7  17
ATOM      8  C   UNL     1      -2.335   4.156   2.777  0.00  0.00    -0.000 C 
ATOM      9  C   UNL     1      -2.675   2.692   3.062  0.00  0.00    +0.007 C 
ATOM     10  C   UNL     1      -3.069   2.543   4.505  0.00  0.00    +0.202 C 
ATOM     11  O   UNL     1      -3.797   3.378   4.997  0.00  0.00    -0.277 OA
ATOM     12  N   UNL     1      -2.650   1.528   5.268  0.00  0.00    -0.318 N 
ATOM     13  C   UNL     1      -1.744   0.491   4.783  0.00  0.00    +0.085 C 
ATOM     14  C   UNL     1      -1.730   0.481   3.253  0.00  0.00    -0.058 C 
ATOM     15  C   UNL     1      -3.840   2.260   2.170  0.00  0.00    -0.000 C 
ATOM     16  H   UNL     1      -2.962   1.479   6.185  0.00  0.00    +0.149 HD
ATOM     17  N   UNL     1      -1.487   1.862   2.789  0.00  0.00    +0.393 N 
ATOM     18  H   UNL     1      -0.682   2.249   3.296  0.00  0.00    -0.080 HD
ENDBRANCH   7  17
ENDBRANCH   1   7
BRANCH   4  19
ATOM     19  O   UNL     1       3.749  -0.698   0.461  0.00  0.00    -0.489 OA
BRANCH  19  20
ATOM     20  C   UNL     1       4.928   0.092   0.625  0.00  0.00    +0.258 C 
BRANCH  20  21
ATOM     21  C   UNL     1       6.162  -0.769   0.345  0.00  0.00    +0.135 C 
BRANCH  21  22
ATOM     22  O   UNL     1       6.257  -1.799   1.330  0.00  0.00    -0.390 OA
ATOM     23  H   UNL     1       6.338  -1.471   2.236  0.00  0.00    +0.210 HD
ENDBRANCH  21  22
BRANCH  21  24
ATOM     24  C   UNL     1       7.416   0.106   0.398  0.00  0.00    -0.044 C 
BRANCH  24  30
ATOM     25  C   UNL     1       8.444  -1.516  -1.077  0.00  0.00    -0.078 C 
ATOM     26  C   UNL     1       9.629  -2.472  -1.226  0.00  0.00    -0.004 C 
ATOM     27  C   UNL     1      10.928  -1.663  -1.283  0.00  0.00    +0.094 C 
ATOM     28  C   UNL     1      11.045  -0.811  -0.016  0.00  0.00    -0.004 C 
ATOM     29  C   UNL     1       9.818   0.097   0.098  0.00  0.00    -0.078 C 
ATOM     30  N   UNL     1       8.604  -0.743   0.173  0.00  0.00    +0.381 N 
ATOM     31  H   UNL     1       8.700  -1.398   0.959  0.00  0.00    -0.082 HD
BRANCH  27  32
ATOM     32  C   UNL     1      12.103  -2.602  -1.369  0.00  0.00    +0.310 C 
ATOM     33  O   UNL     1      12.949  -2.592  -0.506  0.00  0.00    -0.251 OA
BRANCH  32  34
ATOM     34  O   UNL     1      12.211  -3.449  -2.405  0.00  0.00    -0.468 OA
ATOM     35  C   UNL     1      13.369  -4.324  -2.422  0.00  0.00    +0.280 C 
ENDBRANCH  32  34
ENDBRANCH  27  32
ENDBRANCH  24  30
ENDBRANCH  21  24
ENDBRANCH  20  21
ENDBRANCH  19  20
ENDBRANCH   4  19
TORSDOF 10
