REMARK  Name = ZINC44830106
REMARK  10 active torsions:
REMARK  status: ('A' for Active; 'I' for Inactive)
REMARK    1  A    between atoms: C_1  and  C_2
REMARK    2  A    between atoms: C_2  and  O_32
REMARK    3  A    between atoms: C_3  and  O_31
REMARK    4  A    between atoms: C_5  and  O_21
REMARK    5  A    between atoms: C_7  and  C_10
REMARK    6  A    between atoms: C_10  and  O_11
REMARK    7  A    between atoms: O_11  and  C_12
REMARK    8  A    between atoms: C_12  and  C_13
REMARK    9  A    between atoms: O_21  and  C_22
REMARK   10  A    between atoms: C_22  and  C_23
REMARK                            x       y       z     vdW  Elec       q    Type
REMARK                         _______ _______ _______ _____ _____    ______ ____
ROOT
ATOM      1  C   UNL     1      -0.019   1.526   0.010  0.00  0.00    +0.077 C 
ATOM      2  C   UNL     1       0.002  -0.004   0.002  0.00  0.00    +0.194 C 
ATOM      3  C   UNL     1       0.790  -0.524  -1.221  0.00  0.00    +0.204 C 
ATOM      4  C   UNL     1       1.536  -1.767  -0.685  0.00  0.00    +0.183 C 
ATOM      5  C   UNL     1       1.110  -1.851   0.797  0.00  0.00    +0.179 C 
ATOM      6  O   UNL     1       0.726  -0.503   1.147  0.00  0.00    -0.338 OA
ENDROOT
BRANCH   3   7
ATOM      7  O   UNL     1      -0.104  -0.889  -2.274  0.00  0.00    -0.384 OA
ATOM      8  H   UNL     1      -0.640  -0.155  -2.606  0.00  0.00    +0.210 HD
ENDBRANCH   3   7
BRANCH   2   9
ATOM      9  O   UNL     1      -1.331  -0.519  -0.007  0.00  0.00    -0.363 OA
ATOM     10  H   UNL     1      -1.864  -0.244   0.752  0.00  0.00    +0.213 HD
ENDBRANCH   2   9
BRANCH   5  11
ATOM     11  C   UNL     1       2.283  -2.315   1.663  0.00  0.00    +0.194 C 
BRANCH  11  12
ATOM     12  O   UNL     1       1.839  -2.498   3.009  0.00  0.00    -0.373 OA
BRANCH  12  13
ATOM     13  C   UNL     1       2.864  -2.933   3.905  0.00  0.00    +0.196 C 
BRANCH  13  14
ATOM     14  C   UNL     1       2.287  -3.092   5.288  0.00  0.00    -0.004 A 
ATOM     15  C   UNL     1       0.949  -2.828   5.513  0.00  0.00    +0.009 A 
ATOM     16  C   UNL     1       0.419  -2.973   6.782  0.00  0.00    +0.020 A 
ATOM     17  C   UNL     1       1.228  -3.384   7.827  0.00  0.00    +0.042 A 
ATOM     18  C   UNL     1       2.567  -3.649   7.601  0.00  0.00    +0.040 A 
ATOM     19  C   UNL     1       3.096  -3.507   6.331  0.00  0.00    +0.048 A 
ATOM     20 CL   UNL     1       4.774  -3.845   6.046  0.00  0.00    -0.083 Cl
ATOM     21 CL   UNL     1       0.563  -3.566   9.420  0.00  0.00    -0.083 Cl
ENDBRANCH  13  14
ENDBRANCH  12  13
ENDBRANCH  11  12
ENDBRANCH   5  11
BRANCH   4  22
ATOM     22  O   UNL     1       1.127  -2.940  -1.393  0.00  0.00    -0.367 OA
BRANCH  22  23
ATOM     23  C   UNL     1       1.933  -3.240  -2.535  0.00  0.00    +0.197 C 
BRANCH  23  24
ATOM     24  C   UNL     1       1.415  -4.488  -3.201  0.00  0.00    -0.004 A 
ATOM     25  C   UNL     1       0.312  -5.142  -2.683  0.00  0.00    +0.009 A 
ATOM     26  C   UNL     1      -0.164  -6.287  -3.293  0.00  0.00    +0.020 A 
ATOM     27  C   UNL     1       0.463  -6.779  -4.424  0.00  0.00    +0.042 A 
ATOM     28  C   UNL     1       1.566  -6.126  -4.944  0.00  0.00    +0.040 A 
ATOM     29  C   UNL     1       2.039  -4.977  -4.335  0.00  0.00    +0.048 A 
ATOM     30 CL   UNL     1       3.419  -4.153  -4.989  0.00  0.00    -0.083 Cl
ATOM     31 CL   UNL     1      -0.134  -8.218  -5.191  0.00  0.00    -0.083 Cl
ENDBRANCH  23  24
ENDBRANCH  22  23
ENDBRANCH   4  22
TORSDOF 9
