REMARK  Name = ZINC56904526
REMARK  7 active torsions:
REMARK  status: ('A' for Active; 'I' for Inactive)
REMARK    1  A    between atoms: C_1  and  C_2
REMARK    2  A    between atoms: C_4  and  C_7
REMARK    3  A    between atoms: C_13  and  C_15
REMARK    4  A    between atoms: C_18  and  S_21
REMARK    5  A    between atoms: S_21  and  N_24
REMARK    6  A    between atoms: N_24  and  C_25
REMARK    7  A    between atoms: N_24  and  C_26
REMARK                            x       y       z     vdW  Elec       q    Type
REMARK                         _______ _______ _______ _____ _____    ______ ____
ROOT
ATOM      1  C   UNL     1      -7.376  -5.422   0.001  0.00  0.00    +0.037 A 
ATOM      2  C   UNL     1      -8.194  -4.290  -0.003  0.00  0.00    +0.015 A 
ATOM      3  C   UNL     1      -9.565  -4.435  -0.002  0.00  0.00    +0.029 A 
ATOM      4  C   UNL     1     -10.131  -5.697   0.004  0.00  0.00    +0.106 A 
ATOM      5  C   UNL     1      -9.326  -6.823   0.008  0.00  0.00    +0.029 A 
ATOM      6  C   UNL     1      -7.953  -6.693   0.001  0.00  0.00    +0.015 A 
ENDROOT
BRANCH   1  13
ATOM      7  C   UNL     1      -1.978  -3.080  -0.006  0.00  0.00    +0.269 A 
ATOM      8  N   UNL     1      -1.907  -4.390  -0.007  0.00  0.00    -0.104 NA
ATOM      9  N   UNL     1      -3.095  -4.882  -0.005  0.00  0.00    -0.092 NA
ATOM     10  C   UNL     1      -3.972  -3.908  -0.003  0.00  0.00    +0.315 A 
ATOM     11  O   UNL     1      -3.287  -2.748   0.002  0.00  0.00    -0.403 OA
ATOM     12  N   UNL     1      -5.351  -4.046  -0.001  0.00  0.00    -0.234 N 
ATOM     13  C   UNL     1      -5.905  -5.274  -0.001  0.00  0.00    +0.252 C 
ATOM     14  O   UNL     1      -5.196  -6.261  -0.003  0.00  0.00    -0.270 OA
ATOM     15  H   UNL     1      -5.917  -3.258   0.000  0.00  0.00    +0.160 HD
BRANCH   7  19
ATOM     16  C   UNL     1      -0.018   1.503   0.010  0.00  0.00    +0.073 C 
ATOM     17  C   UNL     1       0.002  -0.004   0.002  0.00  0.00    +0.076 A 
ATOM     18  N   UNL     1      -1.013  -0.826   0.002  0.00  0.00    -0.240 NA
ATOM     19  C   UNL     1      -0.837  -2.142  -0.006  0.00  0.00    +0.135 A 
ATOM     20  C   UNL     1       0.462  -2.583  -0.014  0.00  0.00    +0.080 A 
ATOM     21  S   UNL     1       1.338  -1.027  -0.017  0.00  0.00    -0.080 S 
ENDBRANCH   7  19
ENDBRANCH   1  13
BRANCH   4  22
ATOM     22  S   UNL     1     -11.884  -5.873   0.007  0.00  0.00    +0.061 S 
ATOM     23  O   UNL     1     -12.164  -7.150   0.563  0.00  0.00    -0.153 OA
ATOM     24  O   UNL     1     -12.412  -4.672   0.554  0.00  0.00    -0.153 OA
BRANCH  22  25
ATOM     25  N   UNL     1     -12.373  -5.928  -1.574  0.00  0.00    -0.177 NA
ATOM     26  C   UNL     1     -12.463  -7.215  -2.269  0.00  0.00    +0.132 C 
BRANCH  25  27
ATOM     27  C   UNL     1     -12.716  -4.690  -2.278  0.00  0.00    +0.080 C 
ATOM     28  C   UNL     1     -14.171  -4.756  -2.747  0.00  0.00    +0.020 C 
ATOM     29  C   UNL     1     -14.529  -3.463  -3.483  0.00  0.00    +0.002 C 
ATOM     30  C   UNL     1     -13.610  -3.294  -4.694  0.00  0.00    +0.000 C 
ATOM     31  C   UNL     1     -12.155  -3.228  -4.225  0.00  0.00    +0.002 C 
ATOM     32  C   UNL     1     -11.797  -4.521  -3.490  0.00  0.00    +0.020 C 
ENDBRANCH  25  27
ENDBRANCH  22  25
ENDBRANCH   4  22
TORSDOF 5
