REMARK  Name = ZINC36590441
REMARK  14 active torsions:
REMARK  status: ('A' for Active; 'I' for Inactive)
REMARK    1  A    between atoms: C_1  and  C_2
REMARK    2  A    between atoms: C_2  and  C_3
REMARK    3  A    between atoms: C_2  and  C_4
REMARK    4  A    between atoms: C_2  and  N_5
REMARK    5  A    between atoms: N_5  and  C_6
REMARK    6  A    between atoms: C_6  and  C_8
REMARK    7  A    between atoms: C_6  and  C_17
REMARK    8  A    between atoms: C_11  and  N_14
REMARK    9  A    between atoms: N_14  and  C_15
REMARK   10  A    between atoms: N_14  and  C_16
REMARK   11  A    between atoms: N_19  and  C_20
REMARK   12  A    between atoms: C_26  and  C_28
REMARK   13  A    between atoms: C_28  and  C_29
REMARK   14  A    between atoms: C_28  and  C_35
REMARK                            x       y       z     vdW  Elec       q    Type
REMARK                         _______ _______ _______ _____ _____    ______ ____
ROOT
ATOM      1  N   UNL     1       1.608  -1.807  -0.615  0.00  0.00    -0.280 N 
ATOM      2  C   UNL     1       1.782  -1.653   0.713  0.00  0.00    +0.229 C 
ATOM      3  O   UNL     1       2.743  -1.043   1.131  0.00  0.00    -0.275 OA
ENDROOT
BRANCH   1   5
ATOM      4  C   UNL     1       0.557  -2.824  -2.575  0.00  0.00    +0.031 C 
ATOM      5  C   UNL     1       0.355  -2.366  -1.129  0.00  0.00    +0.030 C 
ATOM      6  C   UNL     1      -0.739  -1.298  -1.079  0.00  0.00    +0.031 C 
ATOM      7  C   UNL     1      -0.060  -3.562  -0.269  0.00  0.00    +0.031 C 
ENDBRANCH   1   5
BRANCH   1   8
ATOM      8  C   UNL     1       2.670  -1.415  -1.543  0.00  0.00    +0.193 C 
BRANCH   8   9
ATOM      9  C   UNL     1       3.835  -2.361  -1.403  0.00  0.00    -0.018 A 
ATOM     10  C   UNL     1       4.029  -3.045  -0.217  0.00  0.00    +0.008 A 
ATOM     11  C   UNL     1       5.095  -3.913  -0.085  0.00  0.00    +0.023 A 
ATOM     12  C   UNL     1       5.972  -4.099  -1.145  0.00  0.00    +0.029 A 
ATOM     13  C   UNL     1       5.774  -3.411  -2.336  0.00  0.00    +0.023 A 
ATOM     14  C   UNL     1       4.703  -2.549  -2.463  0.00  0.00    +0.008 A 
BRANCH  12  15
ATOM     15  N   UNL     1       7.051  -4.976  -1.015  0.00  0.00    -0.336 N 
ATOM     16  C   UNL     1       7.191  -5.792   0.194  0.00  0.00    +0.129 C 
ATOM     17  C   UNL     1       8.044  -5.081  -2.088  0.00  0.00    +0.129 C 
ENDBRANCH  12  15
ENDBRANCH   8   9
BRANCH   8  18
ATOM     18  C   UNL     1       3.122  -0.012  -1.227  0.00  0.00    +0.238 C 
ATOM     19  O   UNL     1       2.596   0.605  -0.326  0.00  0.00    -0.273 OA
ATOM     20  N   UNL     1       4.111   0.555  -1.945  0.00  0.00    -0.311 N 
ATOM     21  H   UNL     1       4.532   0.061  -2.666  0.00  0.00    +0.149 HD
BRANCH  20  22
ATOM     22  C   UNL     1       4.551   1.919  -1.637  0.00  0.00    +0.073 C 
ATOM     23  C   UNL     1       3.649   2.921  -2.361  0.00  0.00    +0.022 C 
ATOM     24  C   UNL     1       4.108   4.344  -2.039  0.00  0.00    +0.002 C 
ATOM     25  C   UNL     1       5.553   4.532  -2.504  0.00  0.00    +0.000 C 
ATOM     26  C   UNL     1       6.455   3.530  -1.780  0.00  0.00    +0.002 C 
ATOM     27  C   UNL     1       5.996   2.106  -2.101  0.00  0.00    +0.022 C 
ENDBRANCH  20  22
ENDBRANCH   8  18
ENDBRANCH   1   8
BRANCH   2  28
ATOM     28  C   UNL     1       0.783  -2.238   1.677  0.00  0.00    +0.135 C 
BRANCH  28  29
ATOM     29  C   UNL     1       1.383  -2.279   3.059  0.00  0.00    -0.031 A 
ATOM     30  C   UNL     1       1.879  -1.122   3.631  0.00  0.00    +0.005 A 
ATOM     31  C   UNL     1       2.429  -1.160   4.899  0.00  0.00    +0.000 A 
ATOM     32  C   UNL     1       2.482  -2.353   5.595  0.00  0.00    +0.000 A 
ATOM     33  C   UNL     1       1.985  -3.509   5.023  0.00  0.00    +0.000 A 
ATOM     34  C   UNL     1       1.431  -3.471   3.757  0.00  0.00    +0.005 A 
ENDBRANCH  28  29
BRANCH  28  35
ATOM     35  C   UNL     1      -0.459  -1.384   1.694  0.00  0.00    -0.031 A 
ATOM     36  C   UNL     1      -1.707  -1.979   1.682  0.00  0.00    +0.005 A 
ATOM     37  C   UNL     1      -2.846  -1.196   1.697  0.00  0.00    +0.000 A 
ATOM     38  C   UNL     1      -2.737   0.182   1.724  0.00  0.00    +0.000 A 
ATOM     39  C   UNL     1      -1.490   0.777   1.737  0.00  0.00    +0.000 A 
ATOM     40  C   UNL     1      -0.350  -0.006   1.726  0.00  0.00    +0.005 A 
ENDBRANCH  28  35
ENDBRANCH   2  28
TORSDOF 9
