REMARK  Name = ZINC39664042
REMARK  11 active torsions:
REMARK  status: ('A' for Active; 'I' for Inactive)
REMARK    1  A    between atoms: C_1  and  C_2
REMARK    2  A    between atoms: C_2  and  O_3
REMARK    3  A    between atoms: O_3  and  C_4
REMARK    4  A    between atoms: C_7  and  C_10
REMARK    5  A    between atoms: C_14  and  C_23
REMARK    6  A    between atoms: N_25  and  C_26
REMARK    7  A    between atoms: C_26  and  C_27
REMARK    8  A    between atoms: C_27  and  C_29
REMARK    9  A    between atoms: C_27  and  N_37
REMARK   10  A    between atoms: C_32  and  O_35
REMARK   11  A    between atoms: O_35  and  C_36
REMARK                            x       y       z     vdW  Elec       q    Type
REMARK                         _______ _______ _______ _____ _____    ______ ____
ROOT
ATOM      1  C   UNL     1       1.092  -6.087  -1.888  0.00  0.00    +0.247 C 
ATOM      2  O   UNL     1       0.702  -6.912  -1.085  0.00  0.00    -0.270 OA
ATOM      3  N   UNL     1       1.619  -6.486  -3.063  0.00  0.00    -0.296 N 
ATOM      4  C   UNL     1       2.258  -5.647  -4.104  0.00  0.00    +0.121 C 
ATOM      5  C   UNL     1       3.452  -6.490  -4.605  0.00  0.00    +0.100 C 
ATOM      6  C   UNL     1       3.072  -7.943  -4.277  0.00  0.00    -0.004 C 
ATOM      7  C   UNL     1       1.695  -7.865  -3.602  0.00  0.00    +0.115 C 
ATOM      8  C   UNL     1       4.089  -8.552  -3.316  0.00  0.00    -0.010 C 
ATOM      9  C   UNL     1       3.722 -10.014  -3.049  0.00  0.00    -0.082 C 
ATOM     10  N   UNL     1       3.711 -10.756  -4.316  0.00  0.00    +0.379 N 
ATOM     11  C   UNL     1       2.666 -10.224  -5.199  0.00  0.00    -0.082 C 
ATOM     12  C   UNL     1       2.989  -8.770  -5.556  0.00  0.00    -0.010 C 
ATOM     13  H   UNL     1       4.609 -10.664  -4.766  0.00  0.00    -0.086 HD
ATOM     14  H   UNL     1       3.528 -11.731  -4.131  0.00  0.00    -0.086 HD
ENDROOT
BRANCH   1  18
ATOM     15  C   UNL     1       0.793  -1.946  -0.993  0.00  0.00    +0.121 A 
ATOM     16  C   UNL     1       0.910  -2.363  -2.314  0.00  0.00    +0.046 A 
ATOM     17  C   UNL     1       1.008  -3.705  -2.608  0.00  0.00    +0.016 A 
ATOM     18  C   UNL     1       0.989  -4.648  -1.577  0.00  0.00    +0.037 A 
ATOM     19  C   UNL     1       0.871  -4.224  -0.251  0.00  0.00    +0.016 A 
ATOM     20  C   UNL     1       0.779  -2.881   0.036  0.00  0.00    +0.046 A 
BRANCH  15  21
ATOM     21  O   UNL     1       0.698  -0.623  -0.707  0.00  0.00    -0.492 OA
BRANCH  21  23
ATOM     22  C   UNL     1       0.602   1.718  -1.297  0.00  0.00    +0.048 C 
ATOM     23  C   UNL     1       0.719   0.283  -1.812  0.00  0.00    +0.225 C 
ENDBRANCH  21  23
ENDBRANCH  15  21
ENDBRANCH   1  18
BRANCH   5  24
ATOM     24  C   UNL     1       4.713  -6.098  -3.878  0.00  0.00    +0.218 C 
ATOM     25  O   UNL     1       4.660  -5.748  -2.718  0.00  0.00    -0.275 OA
ATOM     26  N   UNL     1       5.899  -6.136  -4.517  0.00  0.00    -0.316 N 
ATOM     27  H   UNL     1       5.941  -6.416  -5.445  0.00  0.00    +0.149 HD
BRANCH  26  28
ATOM     28  C   UNL     1       7.124  -5.755  -3.811  0.00  0.00    +0.093 C 
BRANCH  28  29
ATOM     29  C   UNL     1       8.332  -6.000  -4.717  0.00  0.00    -0.020 C 
BRANCH  29  30
ATOM     30  C   UNL     1       8.267  -5.072  -5.903  0.00  0.00    -0.059 A 
ATOM     31  C   UNL     1       8.679  -3.758  -5.775  0.00  0.00    +0.005 A 
ATOM     32  C   UNL     1       8.620  -2.906  -6.860  0.00  0.00    +0.046 A 
ATOM     33  C   UNL     1       8.147  -3.369  -8.080  0.00  0.00    +0.120 A 
ATOM     34  C   UNL     1       7.735  -4.688  -8.206  0.00  0.00    +0.046 A 
ATOM     35  C   UNL     1       7.801  -5.538  -7.118  0.00  0.00    +0.005 A 
BRANCH  33  36
ATOM     36  O   UNL     1       8.087  -2.532  -9.149  0.00  0.00    -0.495 OA
ATOM     37  C   UNL     1       7.590  -3.078 -10.373  0.00  0.00    +0.277 C 
ENDBRANCH  33  36
ENDBRANCH  29  30
BRANCH  29  38
ATOM     38  N   UNL     1       9.568  -5.746  -3.964  0.00  0.00    +0.385 N 
ATOM     39  C   UNL     1       9.733  -6.762  -2.893  0.00  0.00    -0.078 C 
ATOM     40  C   UNL     1      11.253  -6.722  -2.597  0.00  0.00    -0.020 C 
ATOM     41  C   UNL     1      11.873  -6.511  -3.998  0.00  0.00    -0.020 C 
ATOM     42  C   UNL     1      10.744  -5.899  -4.848  0.00  0.00    -0.078 C 
ATOM     43  H   UNL     1       9.550  -4.819  -3.567  0.00  0.00    -0.081 HD
ENDBRANCH  29  38
ENDBRANCH  28  29
ENDBRANCH  26  28
ENDBRANCH   5  24
TORSDOF 9
