REMARK  Name = ZINC36646393
REMARK  6 active torsions:
REMARK  status: ('A' for Active; 'I' for Inactive)
REMARK    1  A    between atoms: C_1  and  O_2
REMARK    2  A    between atoms: O_2  and  C_3
REMARK    3  A    between atoms: C_8  and  C_9
REMARK    4  A    between atoms: C_9  and  C_11
REMARK    5  A    between atoms: C_9  and  N_21
REMARK    6  A    between atoms: C_16  and  O_17
REMARK                            x       y       z     vdW  Elec       q    Type
REMARK                         _______ _______ _______ _____ _____    ______ ____
ROOT
ATOM      1  C   UNL     1       0.027  -2.874  -0.014  0.00  0.00    +0.001 C 
ENDROOT
BRANCH   1   7
ATOM      2  C   UNL     1      -0.468  -0.496   0.604  0.00  0.00    +0.126 A 
ATOM      3  C   UNL     1      -0.233   0.638   1.366  0.00  0.00    +0.095 A 
ATOM      4  C   UNL     1       0.761   0.631   2.330  0.00  0.00    +0.170 A 
ATOM      5  C   UNL     1       1.523  -0.518   2.533  0.00  0.00    +0.167 A 
ATOM      6  C   UNL     1       1.284  -1.648   1.770  0.00  0.00    +0.055 A 
ATOM      7  C   UNL     1       0.288  -1.640   0.811  0.00  0.00    -0.011 A 
ATOM      8  O   UNL     1       2.426  -0.272   3.528  0.00  0.00    -0.453 OA
ATOM      9  C   UNL     1       2.483   1.161   3.650  0.00  0.00    +0.466 C 
ATOM     10  O   UNL     1       1.186   1.595   3.198  0.00  0.00    -0.452 OA
BRANCH   2  12
ATOM     11  C   UNL     1      -2.183   0.724  -0.503  0.00  0.00    +0.277 C 
ATOM     12  O   UNL     1      -1.444  -0.489  -0.343  0.00  0.00    -0.495 OA
ENDBRANCH   2  12
ENDBRANCH   1   7
BRANCH   1  13
ATOM     13  C   UNL     1       0.962  -2.896  -1.195  0.00  0.00    -0.011 A 
ATOM     14  C   UNL     1       2.190  -3.523  -1.092  0.00  0.00    +0.055 A 
ATOM     15  C   UNL     1       3.052  -3.545  -2.176  0.00  0.00    +0.167 A 
ATOM     16  C   UNL     1       2.680  -2.934  -3.371  0.00  0.00    +0.170 A 
ATOM     17  C   UNL     1       1.450  -2.307  -3.472  0.00  0.00    +0.095 A 
ATOM     18  C   UNL     1       0.588  -2.291  -2.386  0.00  0.00    +0.122 A 
ATOM     19  O   UNL     1       3.691  -3.092  -4.275  0.00  0.00    -0.452 OA
ATOM     20  C   UNL     1       4.850  -3.449  -3.498  0.00  0.00    +0.466 C 
ATOM     21  O   UNL     1       4.296  -4.087  -2.332  0.00  0.00    -0.453 OA
BRANCH  18  22
ATOM     22  O   UNL     1      -0.622  -1.680  -2.486  0.00  0.00    -0.506 OA
ATOM     23  H   UNL     1      -0.594  -0.725  -2.337  0.00  0.00    +0.292 HD
ENDBRANCH  18  22
ENDBRANCH   1  13
BRANCH   1  24
ATOM     24  N   UNL     1       0.250  -4.070   0.810  0.00  0.00    +0.387 N 
ATOM     25  C   UNL     1      -0.723  -4.109   1.931  0.00  0.00    -0.078 C 
ATOM     26  C   UNL     1      -0.748  -5.606   2.327  0.00  0.00    -0.020 C 
ATOM     27  C   UNL     1      -0.632  -6.327   0.964  0.00  0.00    -0.020 C 
ATOM     28  C   UNL     1      -0.002  -5.291   0.015  0.00  0.00    -0.078 C 
ATOM     29  H   UNL     1       1.194  -4.076   1.167  0.00  0.00    -0.080 HD
ENDBRANCH   1  24
TORSDOF 5
