REMARK  Name = ZINC49885834
REMARK  7 active torsions:
REMARK  status: ('A' for Active; 'I' for Inactive)
REMARK    1  A    between atoms: C_4  and  N_27
REMARK    2  A    between atoms: C_5  and  N_7
REMARK    3  A    between atoms: C_8  and  C_10
REMARK    4  A    between atoms: C_10  and  S_11
REMARK    5  A    between atoms: S_11  and  C_12
REMARK    6  A    between atoms: C_13  and  C_25
REMARK    7  A    between atoms: C_14  and  C_20
REMARK                            x       y       z     vdW  Elec       q    Type
REMARK                         _______ _______ _______ _____ _____    ______ ____
ROOT
ATOM      1  S   UNL     1      -1.677  -4.792  -0.112  0.00  0.00    -0.102 S 
ENDROOT
BRANCH   1   2
ATOM      2  C   UNL     1      -1.539  -6.441   0.026  0.00  0.00    +0.085 C 
ATOM      3  C   UNL     1      -2.781  -7.289  -0.050  0.00  0.00    +0.155 C 
ATOM      4  C   UNL     1      -2.568  -8.566   0.772  0.00  0.00    +0.087 C 
ATOM      5  C   UNL     1      -1.295  -9.257   0.269  0.00  0.00    +0.110 C 
ATOM      6  C   UNL     1      -0.152  -8.277   0.322  0.00  0.00    +0.238 C 
ATOM      7  N   UNL     1      -0.354  -6.969   0.192  0.00  0.00    -0.177 NA
ATOM      8  O   UNL     1       0.979  -8.690   0.484  0.00  0.00    -0.274 OA
BRANCH   4   9
ATOM      9  C   UNL     1      -3.749  -9.486   0.596  0.00  0.00    +0.110 A 
ATOM     10  C   UNL     1      -4.561  -9.919   1.576  0.00  0.00    +0.045 A 
ATOM     11  C   UNL     1      -5.526 -10.755   0.969  0.00  0.00    +0.041 A 
ATOM     12  C   UNL     1      -5.246 -10.781  -0.346  0.00  0.00    +0.195 A 
ATOM     13  O   UNL     1      -4.172 -10.006  -0.568  0.00  0.00    -0.467 OA
ENDBRANCH   4   9
BRANCH   3  14
ATOM     14  C   UNL     1      -3.048  -7.646  -1.453  0.00  0.00    +0.073 C 
ATOM     15  N   UNL     1      -3.254  -7.921  -2.535  0.00  0.00    -0.196 NA
ENDBRANCH   3  14
ENDBRANCH   1   2
BRANCH   1  16
ATOM     16  C   UNL     1       0.030  -4.196   0.026  0.00  0.00    +0.171 C 
BRANCH  16  18
ATOM     17  N   UNL     1       1.217  -2.026  -0.008  0.00  0.00    -0.283 N 
ATOM     18  C   UNL     1       0.048  -2.693  -0.084  0.00  0.00    +0.227 C 
ATOM     19  O   UNL     1      -0.989  -2.084  -0.239  0.00  0.00    -0.275 OA
ATOM     20  H   UNL     1       2.053  -2.515   0.039  0.00  0.00    +0.155 HD
BRANCH  17  25
ATOM     21  C   UNL     1       0.212   1.452   0.639  0.00  0.00    +0.002 A 
ATOM     22  C   UNL     1       1.238   2.140   0.017  0.00  0.00    +0.002 A 
ATOM     23  C   UNL     1       2.256   1.449  -0.613  0.00  0.00    +0.034 A 
ATOM     24  C   UNL     1       2.252   0.068  -0.623  0.00  0.00    +0.147 A 
ATOM     25  C   UNL     1       1.224  -0.626   0.001  0.00  0.00    +0.064 A 
ATOM     26  C   UNL     1       0.203   0.071   0.633  0.00  0.00    +0.025 A 
BRANCH  24  27
ATOM     27  N   UNL     1       3.342  -0.671  -1.299  0.00  0.00    +0.058 N 
ATOM     28  O   UNL     1       4.188  -0.068  -1.918  0.00  0.00    -0.126 OA
ATOM     29  O   UNL     1       3.387  -1.877  -1.231  0.00  0.00    -0.126 OA
ENDBRANCH  24  27
ENDBRANCH  17  25
ENDBRANCH  16  18
ENDBRANCH   1  16
TORSDOF 7
