REMARK  Name = ZINC58892645
REMARK  12 active torsions:
REMARK  status: ('A' for Active; 'I' for Inactive)
REMARK    1  A    between atoms: C_1  and  C_2
REMARK    2  A    between atoms: C_2  and  O_3
REMARK    3  A    between atoms: O_3  and  C_4
REMARK    4  A    between atoms: C_7  and  C_10
REMARK    5  A    between atoms: C_10  and  C_12
REMARK    6  A    between atoms: C_10  and  O_28
REMARK    7  A    between atoms: C_12  and  C_13
REMARK    8  A    between atoms: C_13  and  C_14
REMARK    9  A    between atoms: N_16  and  N_17
REMARK   10  A    between atoms: C_18  and  C_19
REMARK   11  A    between atoms: C_22  and  O_26
REMARK   12  A    between atoms: C_24  and  O_25
REMARK                            x       y       z     vdW  Elec       q    Type
REMARK                         _______ _______ _______ _____ _____    ______ ____
ROOT
ATOM      1  C   UNL     1      -1.065  -8.600   3.588  0.00  0.00    +0.232 C 
ATOM      2  O   UNL     1      -1.827  -7.814   4.109  0.00  0.00    -0.274 OA
ATOM      3  N   UNL     1      -1.220  -9.924   3.790  0.00  0.00    -0.207 N 
ATOM      4  H   UNL     1      -0.610 -10.553   3.373  0.00  0.00    +0.177 HD
ENDROOT
BRANCH   3   5
ATOM      5  N   UNL     1      -2.261 -10.391   4.602  0.00  0.00    -0.188 NA
ATOM      6  C   UNL     1      -2.410 -11.666   4.797  0.00  0.00    +0.142 C 
BRANCH   6   7
ATOM      7  C   UNL     1      -3.505 -12.157   5.651  0.00  0.00    +0.037 A 
ATOM      8  C   UNL     1      -3.665 -13.529   5.867  0.00  0.00    +0.032 A 
ATOM      9  C   UNL     1      -4.691 -13.984   6.667  0.00  0.00    +0.060 A 
ATOM     10  C   UNL     1      -5.569 -13.083   7.259  0.00  0.00    +0.134 A 
ATOM     11  C   UNL     1      -5.419 -11.720   7.050  0.00  0.00    +0.092 A 
ATOM     12  C   UNL     1      -4.388 -11.251   6.254  0.00  0.00    +0.129 A 
ATOM     13 BR   UNL     1      -4.906 -15.840   6.958  0.00  0.00    -0.047 Br
BRANCH  12  14
ATOM     14  O   UNL     1      -4.236  -9.916   6.054  0.00  0.00    -0.506 OA
ATOM     15  H   UNL     1      -4.722  -9.575   5.290  0.00  0.00    +0.292 HD
ENDBRANCH  12  14
BRANCH  10  16
ATOM     16  O   UNL     1      -6.578 -13.540   8.046  0.00  0.00    -0.506 OA
ATOM     17  H   UNL     1      -6.343 -13.622   8.980  0.00  0.00    +0.292 HD
ENDBRANCH  10  16
ENDBRANCH   6   7
ENDBRANCH   3   5
BRANCH   1  18
ATOM     18  C   UNL     1       0.056  -8.098   2.714  0.00  0.00    +0.100 C 
BRANCH  18  19
ATOM     19  C   UNL     1       0.007  -6.569   2.651  0.00  0.00    +0.045 C 
BRANCH  19  20
ATOM     20  C   UNL     1       1.144  -6.059   1.764  0.00  0.00    +0.145 C 
BRANCH  20  24
ATOM     21  C   UNL     1       0.802  -1.824   1.306  0.00  0.00    +0.121 A 
ATOM     22  C   UNL     1       0.260  -2.673   0.351  0.00  0.00    +0.046 A 
ATOM     23  C   UNL     1       0.372  -4.041   0.502  0.00  0.00    +0.010 A 
ATOM     24  C   UNL     1       1.024  -4.566   1.603  0.00  0.00    -0.019 A 
ATOM     25  C   UNL     1       1.565  -3.722   2.555  0.00  0.00    +0.010 A 
ATOM     26  C   UNL     1       1.460  -2.353   2.406  0.00  0.00    +0.046 A 
BRANCH  21  27
ATOM     27  O   UNL     1       0.693  -0.477   1.160  0.00  0.00    -0.492 OA
BRANCH  27  29
ATOM     28  C   UNL     1      -0.019   1.526   0.010  0.00  0.00    +0.048 C 
ATOM     29  C   UNL     1       0.002  -0.004   0.002  0.00  0.00    +0.225 C 
ENDBRANCH  27  29
ENDBRANCH  21  27
ENDBRANCH  20  24
BRANCH  20  30
ATOM     30  O   UNL     1       2.399  -6.373   2.372  0.00  0.00    -0.387 OA
ATOM     31  H   UNL     1       2.522  -5.980   3.247  0.00  0.00    +0.210 HD
ENDBRANCH  20  30
ENDBRANCH  19  20
ENDBRANCH  18  19
ENDBRANCH   1  18
TORSDOF 11
