REMARK  Name = ZINC08685978
REMARK  6 active torsions:
REMARK  status: ('A' for Active; 'I' for Inactive)
REMARK    1  A    between atoms: C_1  and  C_2
REMARK    2  A    between atoms: C_7  and  N_8
REMARK    3  A    between atoms: C_9  and  S_26
REMARK    4  A    between atoms: N_10  and  C_11
REMARK    5  A    between atoms: C_20  and  C_21
REMARK    6  A    between atoms: C_20  and  N_50
REMARK                            x       y       z     vdW  Elec       q    Type
REMARK                         _______ _______ _______ _____ _____    ______ ____
ROOT
ATOM      1  C   UNL     1       0.624  -0.932  -5.678  0.00  0.00    +0.069 C 
ATOM      2  C   UNL     1       0.356  -0.183  -6.986  0.00  0.00    +0.007 C 
ATOM      3  C   UNL     1       1.309   1.020  -7.075  0.00  0.00    -0.066 C 
ATOM      4  C   UNL     1       1.260   1.762  -5.720  0.00  0.00    -0.017 C 
ATOM      5  C   UNL     1       2.340   1.079  -4.855  0.00  0.00    -0.017 C 
ATOM      6  C   UNL     1       2.943  -0.015  -5.766  0.00  0.00    -0.066 C 
ATOM      7  C   UNL     1       2.109  -1.292  -5.582  0.00  0.00    +0.007 C 
ATOM      8  N   UNL     1       2.669   0.473  -7.113  0.00  0.00    +0.388 N 
ATOM      9  H   UNL     1       2.720  -0.301  -7.785  0.00  0.00    -0.080 HD
ENDROOT
BRANCH   1  12
ATOM     10  N   UNL     1      -0.958   0.182  -2.575  0.00  0.00    -0.226 NA
ATOM     11  C   UNL     1      -0.769  -0.455  -3.709  0.00  0.00    +0.152 C 
ATOM     12  N   UNL     1       0.255  -0.081  -4.545  0.00  0.00    -0.321 N 
ATOM     13  H   UNL     1       0.734   0.748  -4.384  0.00  0.00    +0.148 HD
BRANCH  10  20
ATOM     14  C   UNL     1      -0.259  -0.340   0.129  0.00  0.00    +0.046 C 
ATOM     15  C   UNL     1      -1.668  -0.485  -0.385  0.00  0.00    -0.025 A 
ATOM     16  C   UNL     1      -2.678  -0.879   0.468  0.00  0.00    +0.005 A 
ATOM     17  C   UNL     1      -3.972  -1.013  -0.003  0.00  0.00    +0.000 A 
ATOM     18  C   UNL     1      -4.263  -0.752  -1.331  0.00  0.00    +0.002 A 
ATOM     19  C   UNL     1      -3.262  -0.357  -2.194  0.00  0.00    +0.028 A 
ATOM     20  C   UNL     1      -1.955  -0.215  -1.725  0.00  0.00    +0.069 A 
ENDBRANCH  10  20
BRANCH  11  21
ATOM     21  S   UNL     1      -1.828  -1.790  -4.157  0.00  0.00    -0.108 S 
ATOM     22  H   UNL     1      -1.290  -2.117  -5.418  0.00  0.00    +0.110 HD
ENDBRANCH  11  21
ENDBRANCH   1  12
BRANCH   8  23
ATOM     23  C   UNL     1       3.651   1.534  -7.508  0.00  0.00    -0.002 C 
BRANCH  23  24
ATOM     24  C   UNL     1       5.056   1.019  -7.333  0.00  0.00    +0.089 A 
ATOM     25  C   UNL     1       5.788   0.395  -8.273  0.00  0.00    +0.042 A 
ATOM     26  C   UNL     1       7.036   0.087  -7.683  0.00  0.00    +0.041 A 
ATOM     27  C   UNL     1       6.991   0.540  -6.417  0.00  0.00    +0.195 A 
ATOM     28  O   UNL     1       5.791   1.109  -6.213  0.00  0.00    -0.470 OA
ENDBRANCH  23  24
ENDBRANCH   8  23
TORSDOF 5
