REMARK  Name = ZINC13506876
REMARK  10 active torsions:
REMARK  status: ('A' for Active; 'I' for Inactive)
REMARK    1  A    between atoms: C_1  and  C_2
REMARK    2  A    between atoms: C_7  and  C_8
REMARK    3  A    between atoms: C_8  and  C_10
REMARK    4  A    between atoms: C_8  and  N_18
REMARK    5  A    between atoms: N_12  and  C_13
REMARK    6  A    between atoms: N_18  and  C_19
REMARK    7  A    between atoms: C_19  and  C_20
REMARK    8  A    between atoms: C_27  and  C_29
REMARK    9  A    between atoms: C_29  and  N_30
REMARK   10  A    between atoms: C_31  and  C_33
REMARK                            x       y       z     vdW  Elec       q    Type
REMARK                         _______ _______ _______ _____ _____    ______ ____
ROOT
ATOM      1  N   UNL     1      -2.739   0.202   1.348  0.00  0.00    -0.280 N 
ATOM      2  C   UNL     1      -2.022  -0.840   0.880  0.00  0.00    +0.234 C 
ATOM      3  O   UNL     1      -1.702  -0.879  -0.289  0.00  0.00    -0.274 OA
ENDROOT
BRANCH   1   4
ATOM      4  C   UNL     1      -3.231   1.226   0.423  0.00  0.00    +0.193 C 
BRANCH   4  11
ATOM      5  C   UNL     1      -1.360   3.061   1.641  0.00  0.00    +0.044 C 
ATOM      6  C   UNL     1      -1.184   2.650   0.202  0.00  0.00    -0.045 A 
ATOM      7  C   UNL     1      -0.130   3.154  -0.538  0.00  0.00    +0.004 A 
ATOM      8  C   UNL     1       0.031   2.777  -1.857  0.00  0.00    +0.000 A 
ATOM      9  C   UNL     1      -0.860   1.894  -2.438  0.00  0.00    +0.000 A 
ATOM     10  C   UNL     1      -1.914   1.389  -1.699  0.00  0.00    +0.006 A 
ATOM     11  C   UNL     1      -2.079   1.772  -0.381  0.00  0.00    -0.015 A 
ENDBRANCH   4  11
BRANCH   4  12
ATOM     12  C   UNL     1      -4.249   0.618  -0.506  0.00  0.00    +0.238 C 
ATOM     13  O   UNL     1      -4.334  -0.588  -0.607  0.00  0.00    -0.273 OA
ATOM     14  N   UNL     1      -5.065   1.413  -1.226  0.00  0.00    -0.311 N 
ATOM     15  H   UNL     1      -4.950   2.376  -1.199  0.00  0.00    +0.149 HD
BRANCH  14  16
ATOM     16  C   UNL     1      -6.125   0.824  -2.048  0.00  0.00    +0.073 C 
ATOM     17  C   UNL     1      -5.579   0.483  -3.450  0.00  0.00    +0.022 C 
ATOM     18  C   UNL     1      -6.754   0.809  -4.404  0.00  0.00    +0.002 C 
ATOM     19  C   UNL     1      -7.364   2.085  -3.773  0.00  0.00    +0.002 C 
ATOM     20  C   UNL     1      -7.260   1.842  -2.253  0.00  0.00    +0.022 C 
ENDBRANCH  14  16
ENDBRANCH   4  12
ENDBRANCH   1   4
BRANCH   1  21
ATOM     21  C   UNL     1      -3.027   0.308   2.780  0.00  0.00    +0.144 C 
BRANCH  21  22
ATOM     22  C   UNL     1      -4.390  -0.269   3.063  0.00  0.00    -0.030 A 
ATOM     23  C   UNL     1      -5.519   0.514   2.906  0.00  0.00    +0.008 A 
ATOM     24  C   UNL     1      -6.769  -0.016   3.160  0.00  0.00    +0.038 A 
ATOM     25  C   UNL     1      -6.891  -1.329   3.583  0.00  0.00    +0.123 A 
ATOM     26  C   UNL     1      -5.760  -2.111   3.745  0.00  0.00    +0.038 A 
ATOM     27  C   UNL     1      -4.511  -1.580   3.485  0.00  0.00    +0.008 A 
ATOM     28  F   UNL     1      -8.113  -1.847   3.836  0.00  0.00    -0.205 F 
ENDBRANCH  21  22
ENDBRANCH   1  21
BRANCH   2  29
ATOM     29  C   UNL     1      -1.618  -1.954   1.810  0.00  0.00    +0.200 C 
BRANCH  29  30
ATOM     30  N   UNL     1      -0.751  -2.896   1.097  0.00  0.00    -0.300 N 
ATOM     31  C   UNL     1      -0.265  -3.979   1.734  0.00  0.00    +0.280 C 
ATOM     32  O   UNL     1      -0.546  -4.176   2.902  0.00  0.00    -0.267 OA
ATOM     33  H   UNL     1      -0.528  -2.739   0.166  0.00  0.00    +0.150 HD
BRANCH  31  34
ATOM     34  C   UNL     1       0.603  -4.921   1.020  0.00  0.00    +0.189 A 
ATOM     35  C   UNL     1       1.161  -6.053   1.542  0.00  0.00    +0.054 A 
ATOM     36  C   UNL     1       1.909  -6.646   0.514  0.00  0.00    +0.042 A 
ATOM     37  C   UNL     1       1.777  -5.861  -0.578  0.00  0.00    +0.196 A 
ATOM     38  O   UNL     1       0.985  -4.825  -0.271  0.00  0.00    -0.458 OA
ENDBRANCH  31  34
ENDBRANCH  29  30
ENDBRANCH   2  29
TORSDOF 9
