REMARK  Name = ZINC14456502
REMARK  8 active torsions:
REMARK  status: ('A' for Active; 'I' for Inactive)
REMARK    1  A    between atoms: C_1  and  C_2
REMARK    2  A    between atoms: C_5  and  C_7
REMARK    3  A    between atoms: C_18  and  S_23
REMARK    4  A    between atoms: S_23  and  N_26
REMARK    5  A    between atoms: N_26  and  C_27
REMARK    6  A    between atoms: C_27  and  C_28
REMARK    7  A    between atoms: C_27  and  C_29
REMARK    8  A    between atoms: C_27  and  C_30
REMARK                            x       y       z     vdW  Elec       q    Type
REMARK                         _______ _______ _______ _____ _____    ______ ____
ROOT
ATOM      1  C   UNL     1      -4.489   1.431   3.478  0.00  0.00    +0.111 C 
ATOM      2  C   UNL     1      -3.094   1.778   4.005  0.00  0.00    +0.029 C 
ATOM      3  C   UNL     1      -2.434   2.742   2.978  0.00  0.00    +0.033 C 
ATOM      4  C   UNL     1      -1.896   1.807   1.913  0.00  0.00    -0.030 C 
ATOM      5  C   UNL     1      -1.741   0.600   2.397  0.00  0.00    -0.023 C 
ATOM      6  C   UNL     1      -2.158   0.561   3.848  0.00  0.00    +0.049 C 
ATOM      7  C   UNL     1      -2.821  -0.735   4.192  0.00  0.00    -0.018 A 
ATOM      8  C   UNL     1      -2.033  -1.869   4.340  0.00  0.00    +0.034 A 
ATOM      9  C   UNL     1      -2.604  -3.083   4.660  0.00  0.00    +0.106 A 
ATOM     10  C   UNL     1      -3.972  -3.185   4.840  0.00  0.00    +0.030 A 
ATOM     11  C   UNL     1      -4.766  -2.065   4.695  0.00  0.00    +0.025 A 
ATOM     12  C   UNL     1      -4.192  -0.843   4.371  0.00  0.00    +0.031 A 
ATOM     13  N   UNL     1      -5.010   0.283   4.226  0.00  0.00    -0.336 N 
ATOM     14  H   UNL     1      -5.900   0.303   4.611  0.00  0.00    +0.147 HD
ENDROOT
BRANCH   1  19
ATOM     15  C   UNL     1      -3.853  -0.761  -1.707  0.00  0.00    +0.051 C 
ATOM     16  C   UNL     1      -4.100   0.040  -0.454  0.00  0.00    -0.013 A 
ATOM     17  C   UNL     1      -4.533   1.318  -0.330  0.00  0.00    +0.011 A 
ATOM     18  C   UNL     1      -4.694   1.851   0.936  0.00  0.00    +0.013 A 
ATOM     19  C   UNL     1      -4.403   1.083   2.014  0.00  0.00    +0.010 A 
ATOM     20  S   UNL     1      -3.892  -0.447   1.251  0.00  0.00    -0.097 S 
ENDBRANCH   1  19
BRANCH   9  21
ATOM     21  S   UNL     1      -1.587  -4.510   4.842  0.00  0.00    +0.059 S 
ATOM     22  O   UNL     1      -0.388  -4.076   5.471  0.00  0.00    -0.153 OA
ATOM     23  O   UNL     1      -2.410  -5.528   5.394  0.00  0.00    -0.153 OA
BRANCH  21  24
ATOM     24  N   UNL     1      -1.169  -5.011   3.320  0.00  0.00    -0.185 NA
ATOM     25  H   UNL     1      -0.246  -4.958   3.029  0.00  0.00    +0.149 HD
BRANCH  24  26
ATOM     26  C   UNL     1      -2.195  -5.535   2.414  0.00  0.00    +0.032 C 
ATOM     27  C   UNL     1      -3.287  -4.482   2.218  0.00  0.00    +0.029 C 
ATOM     28  C   UNL     1      -1.559  -5.869   1.063  0.00  0.00    +0.029 C 
ATOM     29  C   UNL     1      -2.808  -6.801   3.016  0.00  0.00    +0.029 C 
ENDBRANCH  24  26
ENDBRANCH  21  24
ENDBRANCH   9  21
TORSDOF 4
