REMARK  Name = ZINC39851714
REMARK  13 active torsions:
REMARK  status: ('A' for Active; 'I' for Inactive)
REMARK    1  A    between atoms: C_1  and  C_2
REMARK    2  A    between atoms: C_2  and  C_3
REMARK    3  A    between atoms: C_3  and  N_4
REMARK    4  A    between atoms: C_5  and  N_26
REMARK    5  A    between atoms: C_6  and  C_14
REMARK    6  A    between atoms: C_7  and  C_13
REMARK    7  A    between atoms: C_8  and  C_11
REMARK    8  A    between atoms: N_18  and  C_22
REMARK    9  A    between atoms: C_22  and  C_23
REMARK   10  A    between atoms: C_23  and  C_24
REMARK   11  A    between atoms: C_23  and  C_25
REMARK   12  A    between atoms: N_26  and  C_27
REMARK   13  A    between atoms: C_27  and  C_28
REMARK                            x       y       z     vdW  Elec       q    Type
REMARK                         _______ _______ _______ _____ _____    ______ ____
ROOT
ATOM      1  N   UNL     1       0.997  -2.278   1.144  0.00  0.00    -0.295 N 
ATOM      2  C   UNL     1      -0.007  -2.922   1.793  0.00  0.00    +0.109 A 
ATOM      3  C   UNL     1       0.179  -4.226   2.281  0.00  0.00    +0.019 A 
ATOM      4  C   UNL     1       1.417  -4.864   2.092  0.00  0.00    -0.017 A 
ATOM      5  C   UNL     1       2.430  -4.183   1.423  0.00  0.00    +0.120 A 
ATOM      6  C   UNL     1       2.189  -2.870   0.946  0.00  0.00    +0.270 A 
ATOM      7  O   UNL     1       3.071  -2.270   0.355  0.00  0.00    -0.266 OA
ATOM      8  C   UNL     1       1.643  -6.263   2.606  0.00  0.00    +0.046 C 
ENDROOT
BRANCH   3   9
ATOM      9  C   UNL     1      -0.907  -4.914   2.981  0.00  0.00    +0.032 C 
ATOM     10  C   UNL     1      -1.474  -6.024   2.434  0.00  0.00    +0.077 C 
ATOM     11  C   UNL     1      -1.241  -6.629   1.161  0.00  0.00    +0.258 C 
ATOM     12  O   UNL     1      -0.435  -6.157   0.380  0.00  0.00    -0.269 OA
ATOM     13  N   UNL     1      -1.926  -7.718   0.858  0.00  0.00    -0.255 N 
ATOM     14  C   UNL     1      -2.820  -8.242   1.725  0.00  0.00    +0.121 C 
ATOM     15  S   UNL     1      -3.807  -9.629   1.542  0.00  0.00    -0.027 S 
ATOM     16  S   UNL     1      -2.707  -7.125   3.115  0.00  0.00    -0.061 S 
BRANCH  13  17
ATOM     17  C   UNL     1      -1.713  -8.367  -0.439  0.00  0.00    +0.118 C 
BRANCH  17  18
ATOM     18  C   UNL     1      -0.600  -9.408  -0.311  0.00  0.00    +0.001 C 
ATOM     19  C   UNL     1      -1.051 -10.525   0.631  0.00  0.00    +0.009 C 
ATOM     20  C   UNL     1      -0.291  -9.996  -1.690  0.00  0.00    +0.009 C 
ENDBRANCH  17  18
ENDBRANCH  13  17
ENDBRANCH   3   9
BRANCH   5  21
ATOM     21  C   UNL     1       3.703  -4.806   1.215  0.00  0.00    +0.105 C 
ATOM     22  N   UNL     1       4.712  -5.299   1.050  0.00  0.00    -0.191 NA
ENDBRANCH   5  21
BRANCH   2  23
ATOM     23  N   UNL     1      -1.206  -2.297   1.973  0.00  0.00    -0.326 N 
ATOM     24  H   UNL     1      -1.880  -2.330   1.276  0.00  0.00    +0.148 HD
BRANCH  23  25
ATOM     25  C   UNL     1      -1.476  -1.575   3.219  0.00  0.00    +0.139 C 
BRANCH  25  26
ATOM     26  C   UNL     1      -2.803  -0.869   3.114  0.00  0.00    -0.012 A 
ATOM     27  C   UNL     1      -2.846   0.481   2.818  0.00  0.00    +0.006 A 
ATOM     28  C   UNL     1      -4.063   1.129   2.720  0.00  0.00    +0.000 A 
ATOM     29  C   UNL     1      -5.238   0.427   2.919  0.00  0.00    +0.001 A 
ATOM     30  C   UNL     1      -5.196  -0.922   3.215  0.00  0.00    +0.020 A 
ATOM     31  C   UNL     1      -3.978  -1.572   3.307  0.00  0.00    +0.046 A 
ATOM     32 CL   UNL     1      -3.925  -3.269   3.672  0.00  0.00    -0.083 Cl
ENDBRANCH  25  26
ENDBRANCH  23  25
ENDBRANCH   2  23
BRANCH   1  33
ATOM     33  C   UNL     1       0.777  -0.919   0.646  0.00  0.00    +0.126 C 
BRANCH  33  35
ATOM     34  C   UNL     1      -0.195   0.434  -1.217  0.00  0.00    +0.005 C 
ATOM     35  C   UNL     1       0.146  -0.982  -0.747  0.00  0.00    +0.018 C 
ENDBRANCH  33  35
ENDBRANCH   1  33
TORSDOF 9
