REMARK  Name = ZINC20759851
REMARK  11 active torsions:
REMARK  status: ('A' for Active; 'I' for Inactive)
REMARK    1  A    between atoms: C_1  and  O_2
REMARK    2  A    between atoms: O_2  and  C_3
REMARK    3  A    between atoms: C_5  and  C_11
REMARK    4  A    between atoms: C_7  and  O_9
REMARK    5  A    between atoms: O_9  and  C_10
REMARK    6  A    between atoms: N_13  and  C_14
REMARK    7  A    between atoms: C_14  and  C_16
REMARK    8  A    between atoms: C_14  and  C_20
REMARK    9  A    between atoms: C_16  and  C_17
REMARK   10  A    between atoms: C_17  and  S_18
REMARK   11  A    between atoms: S_18  and  C_19
REMARK                            x       y       z     vdW  Elec       q    Type
REMARK                         _______ _______ _______ _____ _____    ______ ____
ROOT
ATOM      1  C   UNL     1       1.984  -6.139  -3.427  0.00  0.00    +0.160 C 
ENDROOT
BRANCH   1   2
ATOM      2  C   UNL     1       3.137  -6.466  -4.341  0.00  0.00    +0.236 C 
ATOM      3  O   UNL     1       3.643  -5.593  -5.014  0.00  0.00    -0.274 OA
ATOM      4  N   UNL     1       3.605  -7.728  -4.410  0.00  0.00    -0.300 N 
ATOM      5  C   UNL     1       2.932  -8.817  -3.690  0.00  0.00    +0.110 C 
ATOM      6  C   UNL     1       2.610  -9.939  -4.682  0.00  0.00    +0.047 C 
ATOM      7  C   UNL     1       3.889 -10.358  -5.406  0.00  0.00    +0.064 C 
ATOM      8  C   UNL     1       4.458  -9.171  -6.183  0.00  0.00    +0.047 C 
ATOM      9  C   UNL     1       4.796  -8.042  -5.211  0.00  0.00    +0.110 C 
ATOM     10  C   UNL     1       3.587 -11.488  -6.357  0.00  0.00    +0.057 A 
ATOM     11  C   UNL     1       4.371 -12.583  -6.481  0.00  0.00    +0.039 A 
ATOM     12  N   UNL     1       3.798 -13.384  -7.416  0.00  0.00    -0.349 N 
ATOM     13  H   UNL     1       4.128 -14.243  -7.721  0.00  0.00    +0.166 HD
ATOM     14  C   UNL     1       2.677 -12.754  -7.842  0.00  0.00    +0.171 A 
ATOM     15  N   UNL     1       2.562 -11.620  -7.200  0.00  0.00    -0.348 N 
ATOM     16  C   UNL     1       5.635 -12.793  -5.688  0.00  0.00    +0.070 C 
ATOM     17  C   UNL     1       6.042 -11.442  -5.083  0.00  0.00    +0.088 C 
ATOM     18  N   UNL     1       4.881 -10.826  -4.425  0.00  0.00    -0.305 NA
ATOM     19  H   UNL     1       5.167 -10.076  -3.814  0.00  0.00    +0.123 HD
ATOM     20  H   UNL     1       1.845 -10.977  -7.319  0.00  0.00    +0.166 HD
ENDBRANCH   1   2
BRANCH   1  23
ATOM     21  C   UNL     1       1.487  -4.321  -1.883  0.00  0.00    +0.245 C 
ATOM     22  O   UNL     1       0.914  -5.121  -1.171  0.00  0.00    -0.270 OA
ATOM     23  N   UNL     1       2.056  -4.729  -3.035  0.00  0.00    -0.300 N 
ATOM     24  H   UNL     1       2.514  -4.090  -3.603  0.00  0.00    +0.150 HD
BRANCH  21  27
ATOM     25  C   UNL     1       1.044  -1.139   0.073  0.00  0.00    +0.124 A 
ATOM     26  C   UNL     1       0.972  -2.473  -0.295  0.00  0.00    +0.059 A 
ATOM     27  C   UNL     1       1.560  -2.898  -1.487  0.00  0.00    +0.044 A 
ATOM     28  C   UNL     1       2.219  -1.977  -2.303  0.00  0.00    +0.059 A 
ATOM     29  C   UNL     1       2.285  -0.646  -1.927  0.00  0.00    +0.124 A 
ATOM     30  C   UNL     1       1.694  -0.226  -0.745  0.00  0.00    +0.091 A 
BRANCH  25  32
ATOM     31  C   UNL     1       0.577   0.666   1.548  0.00  0.00    +0.277 C 
ATOM     32  O   UNL     1       0.471  -0.724   1.233  0.00  0.00    -0.495 OA
ENDBRANCH  25  32
BRANCH  29  33
ATOM     33  O   UNL     1       2.926   0.252  -2.721  0.00  0.00    -0.495 OA
ATOM     34  C   UNL     1       2.957   1.609  -2.274  0.00  0.00    +0.277 C 
ENDBRANCH  29  33
ENDBRANCH  21  27
ENDBRANCH   1  23
BRANCH   1  35
ATOM     35  C   UNL     1       0.665  -6.397  -4.159  0.00  0.00    +0.042 C 
BRANCH  35  36
ATOM     36  C   UNL     1      -0.502  -6.204  -3.188  0.00  0.00    +0.071 C 
BRANCH  36  37
ATOM     37  S   UNL     1      -2.066  -6.510  -4.055  0.00  0.00    -0.164 S 
ATOM     38  C   UNL     1      -3.332  -6.243  -2.784  0.00  0.00    +0.084 C 
ENDBRANCH  36  37
ENDBRANCH  35  36
ENDBRANCH   1  35
TORSDOF 8
