REMARK  Name = ZINC21653157
REMARK  5 active torsions:
REMARK  status: ('A' for Active; 'I' for Inactive)
REMARK    1  A    between atoms: N_9  and  C_31
REMARK    2  A    between atoms: C_13  and  C_17
REMARK    3  A    between atoms: C_19  and  C_22
REMARK    4  A    between atoms: C_22  and  N_23
REMARK    5  A    between atoms: C_24  and  C_26
REMARK                            x       y       z     vdW  Elec       q    Type
REMARK                         _______ _______ _______ _____ _____    ______ ____
ROOT
ATOM      1  C   UNL     1      -0.038  -0.129   0.261  0.00  0.00    +0.001 A 
ATOM      2  C   UNL     1      -0.085   1.253   0.171  0.00  0.00    +0.001 A 
ATOM      3  C   UNL     1       1.082   1.978   0.040  0.00  0.00    +0.016 A 
ATOM      4  C   UNL     1       2.307   1.325  -0.002  0.00  0.00    +0.025 A 
ATOM      5  C   UNL     1       2.364  -0.072   0.091  0.00  0.00    +0.051 A 
ATOM      6  C   UNL     1       1.168  -0.792   0.222  0.00  0.00    +0.014 A 
ATOM      7  C   UNL     1       3.634  -0.793   0.058  0.00  0.00    +0.252 C 
ATOM      8  O   UNL     1       3.649  -1.798  -0.627  0.00  0.00    -0.270 OA
ATOM      9  N   UNL     1       4.757  -0.508   0.662  0.00  0.00    -0.263 N 
ATOM     10  C   UNL     1       5.079   0.528   1.524  0.00  0.00    +0.051 A 
ATOM     11  C   UNL     1       5.802   0.231   2.679  0.00  0.00    +0.025 A 
ATOM     12  C   UNL     1       6.150   1.227   3.565  0.00  0.00    +0.013 A 
ATOM     13  C   UNL     1       5.781   2.548   3.313  0.00  0.00    +0.024 A 
ATOM     14  C   UNL     1       5.058   2.852   2.161  0.00  0.00    +0.028 A 
ATOM     15  C   UNL     1       4.710   1.847   1.274  0.00  0.00    +0.035 A 
ATOM     16  S   UNL     1       3.793   2.255  -0.175  0.00  0.00    -0.087 S 
ENDROOT
BRANCH  13  17
ATOM     17  C   UNL     1       6.157   3.622   4.264  0.00  0.00    +0.202 A 
ATOM     18  N   UNL     1       6.849   3.469   5.416  0.00  0.00    -0.190 NA
ATOM     19  C   UNL     1       6.951   4.670   5.928  0.00  0.00    +0.245 A 
ATOM     20  O   UNL     1       6.324   5.507   5.095  0.00  0.00    -0.336 OA
ATOM     21  N   UNL     1       5.875   4.894   4.149  0.00  0.00    -0.056 NA
BRANCH  19  22
ATOM     22  C   UNL     1       7.641   5.039   7.216  0.00  0.00    +0.203 C 
BRANCH  22  23
ATOM     23  N   UNL     1       9.045   5.357   6.944  0.00  0.00    -0.300 N 
ATOM     24  C   UNL     1       9.862   5.717   7.954  0.00  0.00    +0.280 C 
ATOM     25  O   UNL     1       9.433   5.777   9.091  0.00  0.00    -0.267 OA
ATOM     26  H   UNL     1       9.432   5.303   5.916  0.00  0.00    +0.150 HD
BRANCH  24  27
ATOM     27  C   UNL     1      11.267   6.036   7.682  0.00  0.00    +0.189 A 
ATOM     28  C   UNL     1      12.198   6.412   8.608  0.00  0.00    +0.054 A 
ATOM     29  C   UNL     1      13.400   6.615   7.911  0.00  0.00    +0.042 A 
ATOM     30  C   UNL     1      13.153   6.357   6.608  0.00  0.00    +0.196 A 
ATOM     31  O   UNL     1      11.868   6.003   6.475  0.00  0.00    -0.458 OA
ENDBRANCH  24  27
ENDBRANCH  22  23
ENDBRANCH  19  22
ENDBRANCH  13  17
BRANCH   9  32
ATOM     32  C   UNL     1       5.855  -1.437   0.383  0.00  0.00    +0.082 C 
ATOM     33  C   UNL     1       7.223  -0.835   0.053  0.00  0.00    +0.025 C 
ATOM     34  C   UNL     1       6.389  -1.490  -1.050  0.00  0.00    +0.025 C 
ENDBRANCH   9  32
TORSDOF 5
