REMARK  Name = ZINC40176778
REMARK  8 active torsions:
REMARK  status: ('A' for Active; 'I' for Inactive)
REMARK    1  A    between atoms: C_1  and  C_2
REMARK    2  A    between atoms: C_2  and  N_3
REMARK    3  A    between atoms: N_3  and  S_4
REMARK    4  A    between atoms: S_4  and  C_7
REMARK    5  A    between atoms: C_10  and  N_13
REMARK    6  A    between atoms: N_13  and  S_14
REMARK    7  A    between atoms: S_14  and  C_17
REMARK    8  A    between atoms: C_20  and  N_23
REMARK                            x       y       z     vdW  Elec       q    Type
REMARK                         _______ _______ _______ _____ _____    ______ ____
ROOT
ATOM      1  S   UNL     1      -0.005  -5.830   5.198  0.00  0.00    +0.092 S 
ATOM      2  O   UNL     1      -0.025  -4.527   5.764  0.00  0.00    -0.148 OA
ATOM      3  O   UNL     1      -1.187  -6.593   5.000  0.00  0.00    -0.148 OA
ENDROOT
BRANCH   1   4
ATOM      4  C   UNL     1       1.059  -6.803   6.211  0.00  0.00    +0.110 A 
ATOM      5  C   UNL     1       0.920  -8.178   6.236  0.00  0.00    +0.031 A 
ATOM      6  C   UNL     1       1.752  -8.944   7.029  0.00  0.00    +0.026 A 
ATOM      7  C   UNL     1       2.729  -8.331   7.802  0.00  0.00    +0.044 A 
ATOM      8  C   UNL     1       2.866  -6.949   7.775  0.00  0.00    +0.026 A 
ATOM      9  C   UNL     1       2.034  -6.190   6.976  0.00  0.00    +0.031 A 
BRANCH   7  10
ATOM     10  N   UNL     1       3.575  -9.105   8.609  0.00  0.00    -0.210 N 
ATOM     11  C   UNL     1       3.537  -9.065   9.946  0.00  0.00    +0.227 C 
ATOM     12  O   UNL     1       2.789  -8.377  10.607  0.00  0.00    -0.275 OA
ATOM     13  C   UNL     1       4.574 -10.016  10.502  0.00  0.00    +0.106 C 
ATOM     14  C   UNL     1       5.226 -10.618   9.241  0.00  0.00    +0.106 C 
ATOM     15  C   UNL     1       4.484  -9.949   8.105  0.00  0.00    +0.227 C 
ATOM     16  O   UNL     1       4.683 -10.144   6.925  0.00  0.00    -0.275 OA
ENDBRANCH   7  10
ENDBRANCH   1   4
BRANCH   1  17
ATOM     17  N   UNL     1       0.722  -5.691   3.717  0.00  0.00    -0.098 NA
BRANCH  17  21
ATOM     18  C   UNL     1      -1.132  -3.526   0.682  0.00  0.00    +0.105 A 
ATOM     19  C   UNL     1       0.091  -4.128   0.451  0.00  0.00    +0.030 A 
ATOM     20  C   UNL     1       0.709  -4.847   1.456  0.00  0.00    +0.028 A 
ATOM     21  C   UNL     1       0.100  -4.964   2.699  0.00  0.00    +0.074 A 
ATOM     22  C   UNL     1      -1.129  -4.358   2.927  0.00  0.00    +0.028 A 
ATOM     23  C   UNL     1      -1.738  -3.636   1.920  0.00  0.00    +0.030 A 
BRANCH  18  24
ATOM     24  S   UNL     1      -1.917  -2.610  -0.603  0.00  0.00    +0.058 S 
ATOM     25  O   UNL     1      -3.306  -2.598  -0.302  0.00  0.00    -0.153 OA
ATOM     26  O   UNL     1      -1.408  -3.114  -1.830  0.00  0.00    -0.153 OA
BRANCH  24  27
ATOM     27  N   UNL     1      -1.392  -1.045  -0.479  0.00  0.00    -0.190 NA
ATOM     28  H   UNL     1      -2.019  -0.339  -0.255  0.00  0.00    +0.148 HD
BRANCH  27  30
ATOM     29  C   UNL     1       0.175   0.784  -0.905  0.00  0.00    +0.022 C 
ATOM     30  C   UNL     1       0.019  -0.725  -0.708  0.00  0.00    +0.102 C 
ENDBRANCH  27  30
ENDBRANCH  24  27
ENDBRANCH  18  24
ENDBRANCH  17  21
ENDBRANCH   1  17
TORSDOF 7
