REMARK  Name = ZINC39012712
REMARK  9 active torsions:
REMARK  status: ('A' for Active; 'I' for Inactive)
REMARK    1  A    between atoms: C_1  and  N_2
REMARK    2  A    between atoms: N_2  and  C_3
REMARK    3  A    between atoms: N_2  and  C_4
REMARK    4  A    between atoms: C_7  and  C_10
REMARK    5  A    between atoms: N_16  and  N_17
REMARK    6  A    between atoms: C_18  and  C_19
REMARK    7  A    between atoms: C_23  and  O_26
REMARK    8  A    between atoms: C_24  and  O_25
REMARK    9  A    between atoms: O_26  and  C_27
REMARK                            x       y       z     vdW  Elec       q    Type
REMARK                         _______ _______ _______ _____ _____    ______ ____
ROOT
ATOM      1  C   UNL     1      -4.989  -2.977   0.109  0.00  0.00    +0.264 C 
ATOM      2  N   UNL     1      -4.720  -4.151  -0.737  0.00  0.00    -0.189 NA
ATOM      3  N   UNL     1      -5.326  -4.003  -1.801  0.00  0.00    -0.219 N 
ATOM      4  C   UNL     1      -6.032  -2.842  -1.864  0.00  0.00    +0.174 C 
ATOM      5  S   UNL     1      -6.977  -2.341  -3.201  0.00  0.00    -0.015 S 
ATOM      6  N   UNL     1      -5.880  -2.141  -0.716  0.00  0.00    -0.172 N 
ATOM      7  H   UNL     1      -5.301  -4.651  -2.522  0.00  0.00    +0.176 HD
ENDROOT
BRANCH   1  11
ATOM      8  C   UNL     1      -1.360  -0.894   0.981  0.00  0.00    +0.029 A 
ATOM      9  C   UNL     1      -1.353  -2.276   0.841  0.00  0.00    +0.023 A 
ATOM     10  C   UNL     1      -2.527  -2.946   0.560  0.00  0.00    +0.009 A 
ATOM     11  C   UNL     1      -3.709  -2.243   0.417  0.00  0.00    -0.002 A 
ATOM     12  C   UNL     1      -3.720  -0.867   0.555  0.00  0.00    +0.009 A 
ATOM     13  C   UNL     1      -2.550  -0.191   0.842  0.00  0.00    +0.023 A 
BRANCH   8  15
ATOM     14  C   UNL     1      -0.184   1.244   1.418  0.00  0.00    +0.129 C 
ATOM     15  N   UNL     1      -0.174  -0.213   1.266  0.00  0.00    -0.336 N 
ATOM     16  C   UNL     1       1.080  -0.956   1.412  0.00  0.00    +0.129 C 
ENDBRANCH   8  15
ENDBRANCH   1  11
BRANCH   6  17
ATOM     17  N   UNL     1      -6.442  -0.901  -0.384  0.00  0.00    -0.183 NA
ATOM     18  C   UNL     1      -7.300  -0.342  -1.183  0.00  0.00    +0.142 C 
BRANCH  18  19
ATOM     19  C   UNL     1      -7.767   1.030  -0.919  0.00  0.00    +0.040 A 
ATOM     20  C   UNL     1      -8.695   1.633  -1.774  0.00  0.00    +0.013 A 
ATOM     21  C   UNL     1      -9.129   2.917  -1.524  0.00  0.00    +0.004 A 
ATOM     22  C   UNL     1      -8.651   3.616  -0.429  0.00  0.00    +0.049 A 
ATOM     23  C   UNL     1      -7.730   3.032   0.426  0.00  0.00    +0.162 A 
ATOM     24  C   UNL     1      -7.288   1.735   0.191  0.00  0.00    +0.167 A 
BRANCH  24  25
ATOM     25  O   UNL     1      -6.390   1.157   1.032  0.00  0.00    -0.503 OA
ATOM     26  H   UNL     1      -5.467   1.309   0.786  0.00  0.00    +0.292 HD
ENDBRANCH  24  25
BRANCH  23  27
ATOM     27  O   UNL     1      -7.264   3.725   1.500  0.00  0.00    -0.491 OA
ATOM     28  C   UNL     1      -7.766   5.050   1.685  0.00  0.00    +0.277 C 
ENDBRANCH  23  27
ENDBRANCH  18  19
ENDBRANCH   6  17
TORSDOF 6
