REMARK  Name = ZINC01881532
REMARK  9 active torsions:
REMARK  status: ('A' for Active; 'I' for Inactive)
REMARK    1  A    between atoms: C_1  and  C_2
REMARK    2  A    between atoms: C_3  and  C_38
REMARK    3  A    between atoms: N_9  and  C_32
REMARK    4  A    between atoms: C_10  and  S_12
REMARK    5  A    between atoms: S_12  and  S_13
REMARK    6  A    between atoms: S_13  and  C_14
REMARK    7  A    between atoms: C_18  and  C_22
REMARK    8  A    between atoms: C_19  and  C_21
REMARK    9  A    between atoms: N_25  and  C_26
REMARK                            x       y       z     vdW  Elec       q    Type
REMARK                         _______ _______ _______ _____ _____    ______ ____
ROOT
ATOM      1  S   UNL     1      -2.154  -3.947   6.042  0.00  0.00    -0.011 S 
ENDROOT
BRANCH   1  11
ATOM      2  C   UNL     1       0.675   1.872   3.468  0.00  0.00    +0.045 C 
ATOM      3  C   UNL     1       0.019   0.633   2.915  0.00  0.00    -0.026 A 
ATOM      4  C   UNL     1      -0.119   0.472   1.591  0.00  0.00    -0.008 A 
ATOM      5  S   UNL     1      -0.931  -1.109   1.449  0.00  0.00    -0.073 S 
ATOM      6  C   UNL     1      -1.061  -1.509   3.173  0.00  0.00    +0.117 A 
ATOM      7  C   UNL     1      -0.464  -0.404   3.811  0.00  0.00    +0.076 A 
ATOM      8  C   UNL     1      -0.422  -0.457   5.239  0.00  0.00    +0.268 A 
ATOM      9  O   UNL     1       0.072   0.457   5.877  0.00  0.00    -0.267 OA
ATOM     10  N   UNL     1      -0.936  -1.529   5.871  0.00  0.00    -0.255 N 
ATOM     11  C   UNL     1      -1.494  -2.564   5.172  0.00  0.00    +0.188 A 
ATOM     12  N   UNL     1      -1.555  -2.534   3.854  0.00  0.00    -0.215 NA
ATOM     13  C   UNL     1       0.308   1.405   0.488  0.00  0.00    +0.052 C 
BRANCH  10  14
ATOM     14  C   UNL     1      -0.897  -1.585   7.271  0.00  0.00    +0.052 A 
ATOM     15  C   UNL     1       0.231  -2.074   7.917  0.00  0.00    +0.026 A 
ATOM     16  C   UNL     1       0.265  -2.129   9.296  0.00  0.00    +0.002 A 
ATOM     17  C   UNL     1      -0.822  -1.697  10.034  0.00  0.00    +0.000 A 
ATOM     18  C   UNL     1      -1.946  -1.210   9.394  0.00  0.00    +0.002 A 
ATOM     19  C   UNL     1      -1.985  -1.148   8.015  0.00  0.00    +0.026 A 
ENDBRANCH  10  14
ENDBRANCH   1  11
BRANCH   1  20
ATOM     20  S   UNL     1      -2.850  -5.180   4.560  0.00  0.00    -0.011 S 
BRANCH  20  21
ATOM     21  C   UNL     1      -1.432  -6.108   4.077  0.00  0.00    +0.188 A 
ATOM     22  N   UNL     1      -0.277  -5.894   4.678  0.00  0.00    -0.215 NA
ATOM     23  C   UNL     1       0.806  -6.578   4.334  0.00  0.00    +0.117 A 
ATOM     24  C   UNL     1       0.783  -7.557   3.322  0.00  0.00    +0.076 A 
ATOM     25  C   UNL     1       2.057  -8.211   3.074  0.00  0.00    -0.026 A 
ATOM     26  C   UNL     1       3.129  -7.854   3.796  0.00  0.00    -0.008 A 
ATOM     27  S   UNL     1       2.494  -6.590   4.882  0.00  0.00    -0.073 S 
ATOM     28  C   UNL     1       4.534  -8.391   3.710  0.00  0.00    +0.052 C 
ATOM     29  C   UNL     1       2.172  -9.279   2.017  0.00  0.00    +0.045 C 
ATOM     30  C   UNL     1      -0.480  -7.768   2.687  0.00  0.00    +0.268 A 
ATOM     31  O   UNL     1      -0.595  -8.596   1.800  0.00  0.00    -0.267 OA
ATOM     32  N   UNL     1      -1.543  -7.045   3.086  0.00  0.00    -0.255 N 
BRANCH  32  33
ATOM     33  C   UNL     1      -2.785  -7.252   2.470  0.00  0.00    +0.052 A 
ATOM     34  C   UNL     1      -3.676  -8.178   2.996  0.00  0.00    +0.026 A 
ATOM     35  C   UNL     1      -4.900  -8.379   2.388  0.00  0.00    +0.002 A 
ATOM     36  C   UNL     1      -5.237  -7.660   1.256  0.00  0.00    +0.000 A 
ATOM     37  C   UNL     1      -4.352  -6.738   0.730  0.00  0.00    +0.002 A 
ATOM     38  C   UNL     1      -3.129  -6.527   1.337  0.00  0.00    +0.026 A 
ENDBRANCH  32  33
ENDBRANCH  20  21
ENDBRANCH   1  20
TORSDOF 5
