REMARK  Name = ZINC65259939
REMARK  4 active torsions:
REMARK  status: ('A' for Active; 'I' for Inactive)
REMARK    1  A    between atoms: C_4  and  C_7
REMARK    2  A    between atoms: C_7  and  N_8
REMARK    3  A    between atoms: N_22  and  S_24
REMARK    4  A    between atoms: S_24  and  C_27
REMARK                            x       y       z     vdW  Elec       q    Type
REMARK                         _______ _______ _______ _____ _____    ______ ____
ROOT
ATOM      1  N   UNL     1       4.152  -0.952   1.338  0.00  0.00    -0.371 N 
ATOM      2  C   UNL     1       5.264  -1.574   1.560  0.00  0.00    +0.098 C 
ATOM      3  N   UNL     1       6.068  -2.018   0.525  0.00  0.00    -0.301 N 
ATOM      4  C   UNL     1       6.715  -3.255   0.687  0.00  0.00    +0.053 A 
ATOM      5  C   UNL     1       7.321  -3.865  -0.401  0.00  0.00    +0.025 A 
ATOM      6  C   UNL     1       7.965  -5.079  -0.241  0.00  0.00    +0.002 A 
ATOM      7  C   UNL     1       8.007  -5.685   1.001  0.00  0.00    +0.002 A 
ATOM      8  C   UNL     1       7.403  -5.085   2.090  0.00  0.00    +0.025 A 
ATOM      9  C   UNL     1       6.751  -3.870   1.937  0.00  0.00    +0.049 A 
ATOM     10  N   UNL     1       6.120  -3.274   3.039  0.00  0.00    -0.329 N 
ATOM     11  C   UNL     1       5.757  -1.849   2.965  0.00  0.00    +0.100 C 
ATOM     12  C   UNL     1       4.647  -1.542   3.968  0.00  0.00    +0.036 C 
ATOM     13  C   UNL     1       5.135  -1.854   5.385  0.00  0.00    +0.020 C 
ATOM     14  C   UNL     1       6.347  -0.974   5.707  0.00  0.00    +0.109 C 
ATOM     15  N   UNL     1       7.365  -1.167   4.666  0.00  0.00    -0.174 NA
ATOM     16  C   UNL     1       6.980  -0.982   3.259  0.00  0.00    +0.142 C 
ATOM     17  H   UNL     1       3.610  -0.648   2.082  0.00  0.00    +0.161 HD
ATOM     18  H   UNL     1       5.928  -3.792   3.836  0.00  0.00    +0.147 HD
ATOM     19  H   UNL     1       6.181  -1.494  -0.283  0.00  0.00    +0.153 HD
ENDROOT
BRANCH  15  20
ATOM     20  S   UNL     1       8.915  -1.587   5.069  0.00  0.00    +0.062 S 
ATOM     21  O   UNL     1       9.743  -1.161   3.996  0.00  0.00    -0.153 OA
ATOM     22  O   UNL     1       9.119  -1.153   6.407  0.00  0.00    -0.153 OA
BRANCH  20  23
ATOM     23  C   UNL     1       8.989  -3.348   5.094  0.00  0.00    +0.123 A 
ATOM     24  C   UNL     1       8.713  -4.045   6.260  0.00  0.00    +0.031 A 
ATOM     25  C   UNL     1       8.783  -5.430   6.232  0.00  0.00    +0.022 A 
ATOM     26  C   UNL     1       9.123  -6.064   5.052  0.00  0.00    +0.111 A 
ATOM     27  N   UNL     1       9.380  -5.367   3.962  0.00  0.00    -0.261 NA
ATOM     28  C   UNL     1       9.317  -4.050   3.950  0.00  0.00    +0.139 A 
ENDBRANCH  20  23
ENDBRANCH  15  20
BRANCH   1  29
ATOM     29  C   UNL     1       3.711  -0.707  -0.038  0.00  0.00    +0.149 C 
BRANCH  29  33
ATOM     30  C   UNL     1      -0.017   1.378   0.010  0.00  0.00    +0.000 A 
ATOM     31  C   UNL     1       1.171   2.086   0.002  0.00  0.00    +0.000 A 
ATOM     32  C   UNL     1       2.377   1.411  -0.013  0.00  0.00    +0.005 A 
ATOM     33  C   UNL     1       2.396   0.029  -0.020  0.00  0.00    -0.028 A 
ATOM     34  C   UNL     1       1.208  -0.679  -0.012  0.00  0.00    +0.005 A 
ATOM     35  C   UNL     1       0.002  -0.004   0.002  0.00  0.00    +0.000 A 
ENDBRANCH  29  33
ENDBRANCH   1  29
TORSDOF 4
