REMARK  Name = ZINC39761275
REMARK  12 active torsions:
REMARK  status: ('A' for Active; 'I' for Inactive)
REMARK    1  A    between atoms: C_1  and  O_2
REMARK    2  A    between atoms: O_2  and  C_3
REMARK    3  A    between atoms: C_7  and  C_9
REMARK    4  A    between atoms: N_11  and  CA_12
REMARK    5  A    between atoms: CA_12  and  C_14
REMARK    6  A    between atoms: CA_12  and  C_16
REMARK    7  A    between atoms: C_14  and  O_15
REMARK    8  A    between atoms: C_19  and  S_27
REMARK    9  A    between atoms: N_20  and  C_21
REMARK   10  A    between atoms: S_27  and  C_28
REMARK   11  A    between atoms: C_28  and  C_29
REMARK   12  A    between atoms: C_32  and  N_35
REMARK                            x       y       z     vdW  Elec       q    Type
REMARK                         _______ _______ _______ _____ _____    ______ ____
ROOT
ATOM      1  C   UNL     1      -5.129  -6.674  -0.564  0.00  0.00    +0.161 A 
ATOM      2  N   UNL     1      -6.304  -6.176  -0.299  0.00  0.00    -0.131 NA
ATOM      3  N   UNL     1      -7.208  -6.788  -0.977  0.00  0.00    -0.122 NA
ATOM      4  C   UNL     1      -6.656  -7.720  -1.720  0.00  0.00    +0.196 A 
ATOM      5  N   UNL     1      -5.309  -7.673  -1.484  0.00  0.00    -0.273 N 
ENDROOT
BRANCH   5   6
ATOM      6  C   UNL     1      -4.319  -8.482  -2.061  0.00  0.00    +0.050 A 
ATOM      7  C   UNL     1      -3.351  -7.918  -2.881  0.00  0.00    +0.026 A 
ATOM      8  C   UNL     1      -2.377  -8.717  -3.448  0.00  0.00    +0.002 A 
ATOM      9  C   UNL     1      -2.367 -10.078  -3.201  0.00  0.00    +0.000 A 
ATOM     10  C   UNL     1      -3.331 -10.642  -2.385  0.00  0.00    +0.002 A 
ATOM     11  C   UNL     1      -4.303  -9.847  -1.810  0.00  0.00    +0.026 A 
ENDBRANCH   5   6
BRANCH   1  12
ATOM     12  CA  UNL     1      -3.816  -6.230   0.026  0.00  0.00    +0.167 C 
BRANCH  12  15
ATOM     13  C   UNL     1      -2.555  -4.144   0.018  0.00  0.00    +0.245 C 
ATOM     14  O   UNL     1      -1.531  -4.798   0.009  0.00  0.00    -0.270 OA
ATOM     15  N   UNL     1      -3.751  -4.766   0.026  0.00  0.00    -0.299 N 
ATOM     16  H   UNL     1      -4.569  -4.245   0.033  0.00  0.00    +0.150 HD
BRANCH  13  21
ATOM     17  C   UNL     1      -1.200  -0.637   0.010  0.00  0.00    +0.121 A 
ATOM     18  C   UNL     1      -2.375   0.103   0.020  0.00  0.00    +0.045 A 
ATOM     19  C   UNL     1      -3.601  -0.536   0.028  0.00  0.00    +0.004 A 
ATOM     20  C   UNL     1      -3.665  -1.914   0.027  0.00  0.00    +0.013 A 
ATOM     21  C   UNL     1      -2.490  -2.667   0.018  0.00  0.00    +0.040 A 
ATOM     22  C   UNL     1      -1.254  -2.021   0.003  0.00  0.00    +0.058 A 
BRANCH  17  24
ATOM     23  C   UNL     1      -0.017   1.425   0.010  0.00  0.00    +0.277 C 
ATOM     24  O   UNL     1       0.002  -0.004   0.002  0.00  0.00    -0.495 OA
ENDBRANCH  17  24
ENDBRANCH  13  21
ENDBRANCH  12  15
BRANCH  12  25
ATOM     25  C   UNL     1      -3.702  -6.745   1.462  0.00  0.00    +0.186 C 
BRANCH  25  26
ATOM     26  O   UNL     1      -4.839  -6.317   2.214  0.00  0.00    -0.393 OA
ATOM     27  H   UNL     1      -4.833  -6.608   3.136  0.00  0.00    +0.209 HD
ENDBRANCH  25  26
ENDBRANCH  12  25
ENDBRANCH   1  12
BRANCH   4  28
ATOM     28  S   UNL     1      -7.491  -8.817  -2.817  0.00  0.00    -0.081 S 
BRANCH  28  29
ATOM     29  C   UNL     1      -9.236  -8.347  -2.663  0.00  0.00    +0.112 C 
BRANCH  29  30
ATOM     30  C   UNL     1     -10.072  -9.220  -3.563  0.00  0.00    -0.037 A 
ATOM     31  C   UNL     1     -10.317  -8.834  -4.868  0.00  0.00    +0.007 A 
ATOM     32  C   UNL     1     -11.084  -9.635  -5.693  0.00  0.00    +0.033 A 
ATOM     33  C   UNL     1     -11.606 -10.822  -5.213  0.00  0.00    +0.126 A 
ATOM     34  C   UNL     1     -11.361 -11.208  -3.909  0.00  0.00    +0.033 A 
ATOM     35  C   UNL     1     -10.590 -10.409  -3.085  0.00  0.00    +0.007 A 
BRANCH  33  36
ATOM     36  N   UNL     1     -12.429 -11.679  -6.096  0.00  0.00    +0.056 N 
ATOM     37  O   UNL     1     -12.644 -11.342  -7.237  0.00  0.00    -0.126 OA
ATOM     38  O   UNL     1     -12.885 -12.717  -5.677  0.00  0.00    -0.126 OA
ENDBRANCH  33  36
ENDBRANCH  29  30
ENDBRANCH  28  29
ENDBRANCH   4  28
TORSDOF 11
