REMARK  Name = ZINC20752716
REMARK  7 active torsions:
REMARK  status: ('A' for Active; 'I' for Inactive)
REMARK    1  A    between atoms: C_1  and  C_2
REMARK    2  A    between atoms: C_2  and  C_3
REMARK    3  A    between atoms: C_2  and  C_4
REMARK    4  A    between atoms: C_2  and  N_5
REMARK    5  A    between atoms: N_5  and  S_6
REMARK    6  A    between atoms: S_6  and  C_9
REMARK    7  A    between atoms: C_22  and  C_25
REMARK                            x       y       z     vdW  Elec       q    Type
REMARK                         _______ _______ _______ _____ _____    ______ ____
ROOT
ATOM      1  C   UNL     1       6.354   2.566  -0.030  0.00  0.00    +0.106 A 
ATOM      2  C   UNL     1       6.559   3.371   1.076  0.00  0.00    +0.030 A 
ATOM      3  C   UNL     1       5.479   3.786   1.829  0.00  0.00    +0.025 A 
ATOM      4  C   UNL     1       4.193   3.396   1.475  0.00  0.00    +0.031 A 
ATOM      5  C   UNL     1       3.983   2.592   0.365  0.00  0.00    -0.018 A 
ATOM      6  C   UNL     1       5.077   2.180  -0.383  0.00  0.00    +0.034 A 
ATOM      7  C   UNL     1       2.617   2.154  -0.058  0.00  0.00    +0.049 C 
ATOM      8  C   UNL     1       2.371   0.704   0.285  0.00  0.00    -0.023 C 
ATOM      9  C   UNL     1       1.122   0.529   0.644  0.00  0.00    -0.030 C 
ATOM     10  C   UNL     1       0.363   1.841   0.584  0.00  0.00    +0.033 C 
ATOM     11  C   UNL     1       1.490   2.913   0.668  0.00  0.00    +0.029 C 
ATOM     12  C   UNL     1       1.846   3.084   2.148  0.00  0.00    +0.111 C 
ATOM     13  N   UNL     1       3.109   3.823   2.250  0.00  0.00    -0.336 N 
ATOM     14  H   UNL     1       3.187   4.689   2.923  0.00  0.00    +0.147 HD
ENDROOT
BRANCH  12  15
ATOM     15  C   UNL     1       2.001   1.729   2.790  0.00  0.00    +0.010 A 
ATOM     16  C   UNL     1       1.124   1.046   3.565  0.00  0.00    +0.013 A 
ATOM     17  C   UNL     1       1.484  -0.197   4.050  0.00  0.00    +0.008 A 
ATOM     18  C   UNL     1       2.704  -0.697   3.736  0.00  0.00    +0.045 A 
ATOM     19  S   UNL     1       3.388   0.607   2.725  0.00  0.00    -0.100 S 
ENDBRANCH  12  15
BRANCH   1  20
ATOM     20  S   UNL     1       7.730   2.032  -0.993  0.00  0.00    +0.059 S 
ATOM     21  O   UNL     1       7.309   2.053  -2.350  0.00  0.00    -0.153 OA
ATOM     22  O   UNL     1       8.856   2.766  -0.533  0.00  0.00    -0.153 OA
BRANCH  20  23
ATOM     23  N   UNL     1       8.009   0.445  -0.608  0.00  0.00    -0.185 NA
ATOM     24  H   UNL     1       8.004  -0.310  -1.408  0.00  0.00    +0.149 HD
BRANCH  23  26
ATOM     25  C   UNL     1       7.468   0.590   1.772  0.00  0.00    +0.029 C 
ATOM     26  C   UNL     1       8.473   0.088   0.734  0.00  0.00    +0.032 C 
ATOM     27  C   UNL     1       8.600  -1.433   0.842  0.00  0.00    +0.029 C 
ATOM     28  C   UNL     1       9.837   0.732   0.992  0.00  0.00    +0.029 C 
ENDBRANCH  23  26
ENDBRANCH  20  23
ENDBRANCH   1  20
TORSDOF 4
