REMARK  Name = ZINC02145887
REMARK  13 active torsions:
REMARK  status: ('A' for Active; 'I' for Inactive)
REMARK    1  A    between atoms: C_1  and  C_2
REMARK    2  A    between atoms: N_8  and  C_9
REMARK    3  A    between atoms: C_9  and  C_10
REMARK    4  A    between atoms: C_10  and  C_11
REMARK    5  A    between atoms: C_14  and  O_19
REMARK    6  A    between atoms: C_15  and  O_17
REMARK    7  A    between atoms: O_17  and  C_18
REMARK    8  A    between atoms: O_19  and  C_20
REMARK    9  A    between atoms: C_21  and  C_29
REMARK   10  A    between atoms: C_23  and  C_27
REMARK   11  A    between atoms: C_24  and  N_26
REMARK   12  A    between atoms: C_33  and  O_35
REMARK   13  A    between atoms: O_35  and  C_36
REMARK                            x       y       z     vdW  Elec       q    Type
REMARK                         _______ _______ _______ _____ _____    ______ ____
ROOT
ATOM      1  C   UNL     1       7.182   1.985   1.259  0.00  0.00    +0.064 C 
ATOM      2  C   UNL     1       6.004   1.244   1.836  0.00  0.00    +0.022 A 
ATOM      3  C   UNL     1       5.338   0.361   1.076  0.00  0.00    +0.068 A 
ATOM      4  C   UNL     1       4.234  -0.336   1.609  0.00  0.00    +0.141 A 
ATOM      5  C   UNL     1       3.859  -0.099   2.911  0.00  0.00    +0.072 A 
ATOM      6  C   UNL     1       4.585   0.829   3.669  0.00  0.00    +0.259 A 
ATOM      7  O   UNL     1       4.268   1.052   4.827  0.00  0.00    -0.267 OA
ATOM      8  N   UNL     1       5.632   1.474   3.123  0.00  0.00    -0.312 N 
ATOM      9  C   UNL     1       2.689  -0.819   3.522  0.00  0.00    +0.103 C 
ATOM     10  C   UNL     1       2.327  -2.016   2.687  0.00  0.00    +0.098 C 
ATOM     11  C   UNL     1       2.776  -2.147   1.417  0.00  0.00    +0.199 C 
ATOM     12  O   UNL     1       3.563  -1.221   0.841  0.00  0.00    -0.441 OA
ENDROOT
BRANCH   9  13
ATOM     13  C   UNL     1       1.509   0.116   3.594  0.00  0.00    -0.027 A 
ATOM     14  C   UNL     1       0.946   0.423   4.818  0.00  0.00    +0.054 A 
ATOM     15  C   UNL     1      -0.140   1.282   4.889  0.00  0.00    +0.170 A 
ATOM     16  C   UNL     1      -0.662   1.835   3.725  0.00  0.00    +0.208 A 
ATOM     17  C   UNL     1      -0.093   1.524   2.496  0.00  0.00    +0.166 A 
ATOM     18  C   UNL     1       0.989   0.658   2.434  0.00  0.00    +0.054 A 
ATOM     19  O   UNL     1      -1.716   2.639   4.057  0.00  0.00    -0.449 OA
ATOM     20  C   UNL     1      -1.575   2.892   5.468  0.00  0.00    +0.467 C 
ATOM     21  O   UNL     1      -0.865   1.737   5.953  0.00  0.00    -0.452 OA
BRANCH  17  22
ATOM     22  O   UNL     1      -0.600   2.062   1.355  0.00  0.00    -0.491 OA
ATOM     23  C   UNL     1       0.034   1.698   0.128  0.00  0.00    +0.277 C 
ENDBRANCH  17  22
ENDBRANCH   9  13
BRANCH  11  24
ATOM     24  N   UNL     1       2.418  -3.258   0.695  0.00  0.00    -0.328 N 
ATOM     25  H   UNL     1       1.851  -3.935   1.097  0.00  0.00    +0.145 HD
ATOM     26  H   UNL     1       2.732  -3.367  -0.216  0.00  0.00    +0.145 HD
ENDBRANCH  11  24
BRANCH  10  27
ATOM     27  C   UNL     1       1.492  -3.036   3.246  0.00  0.00    +0.101 C 
ATOM     28  N   UNL     1       0.830  -3.845   3.690  0.00  0.00    -0.191 NA
ENDBRANCH  10  27
BRANCH   8  29
ATOM     29  C   UNL     1       6.383   2.442   3.928  0.00  0.00    +0.130 C 
BRANCH  29  30
ATOM     30  C   UNL     1       7.491   1.717   4.694  0.00  0.00    +0.057 C 
BRANCH  30  31
ATOM     31  C   UNL     1       8.263   2.712   5.522  0.00  0.00    -0.042 A 
ATOM     32  C   UNL     1       9.370   3.343   4.986  0.00  0.00    +0.007 A 
ATOM     33  C   UNL     1      10.078   4.261   5.740  0.00  0.00    +0.049 A 
ATOM     34  C   UNL     1       9.685   4.541   7.038  0.00  0.00    +0.161 A 
ATOM     35  C   UNL     1       8.574   3.902   7.579  0.00  0.00    +0.162 A 
ATOM     36  C   UNL     1       7.865   2.987   6.817  0.00  0.00    +0.053 A 
BRANCH  35  37
ATOM     37  O   UNL     1       8.184   4.174   8.853  0.00  0.00    -0.491 OA
ATOM     38  C   UNL     1       7.034   3.481   9.342  0.00  0.00    +0.277 C 
ENDBRANCH  35  37
BRANCH  34  39
ATOM     39  O   UNL     1      10.384   5.440   7.783  0.00  0.00    -0.491 OA
ATOM     40  C   UNL     1      11.513   6.058   7.162  0.00  0.00    +0.277 C 
ENDBRANCH  34  39
ENDBRANCH  30  31
ENDBRANCH  29  30
ENDBRANCH   8  29
TORSDOF 9
