REMARK  Name = ZINC08443110
REMARK  11 active torsions:
REMARK  status: ('A' for Active; 'I' for Inactive)
REMARK    1  A    between atoms: C_1  and  C_2
REMARK    2  A    between atoms: C_2  and  O_3
REMARK    3  A    between atoms: O_3  and  C_4
REMARK    4  A    between atoms: C_4  and  C_6
REMARK    5  A    between atoms: C_7  and  C_21
REMARK    6  A    between atoms: C_9  and  N_20
REMARK    7  A    between atoms: C_10  and  C_18
REMARK    8  A    between atoms: C_11  and  C_13
REMARK    9  A    between atoms: C_21  and  S_22
REMARK   10  A    between atoms: S_22  and  C_23
REMARK   11  A    between atoms: C_24  and  C_34
REMARK                            x       y       z     vdW  Elec       q    Type
REMARK                         _______ _______ _______ _____ _____    ______ ____
ROOT
ATOM      1  C   UNL     1      -1.540   3.861   2.435  0.00  0.00    +0.088 C 
ATOM      2  C   UNL     1      -1.454   5.172   2.690  0.00  0.00    +0.128 C 
ATOM      3  O   UNL     1      -1.955   5.719   3.808  0.00  0.00    -0.444 OA
ATOM      4  C   UNL     1      -2.879   5.045   4.514  0.00  0.00    +0.198 C 
ATOM      5  C   UNL     1      -3.054   3.709   4.370  0.00  0.00    +0.099 C 
ATOM      6  C   UNL     1      -2.219   2.925   3.398  0.00  0.00    +0.111 C 
ENDROOT
BRANCH   6   7
ATOM      7  C   UNL     1      -1.177   2.144   4.156  0.00  0.00    +0.003 A 
ATOM      8  C   UNL     1      -0.987   0.803   4.212  0.00  0.00    +0.012 A 
ATOM      9  C   UNL     1       0.048   0.304   4.980  0.00  0.00    +0.008 A 
ATOM     10  C   UNL     1       0.837   1.169   5.663  0.00  0.00    +0.045 A 
ATOM     11  S   UNL     1       0.124   2.745   5.221  0.00  0.00    -0.101 S 
ENDBRANCH   6   7
BRANCH   4  12
ATOM     12  N   UNL     1      -3.666   5.729   5.407  0.00  0.00    -0.328 N 
ATOM     13  H   UNL     1      -3.552   6.686   5.521  0.00  0.00    +0.145 HD
ATOM     14  H   UNL     1      -4.337   5.256   5.924  0.00  0.00    +0.145 HD
ENDBRANCH   4  12
BRANCH   1  15
ATOM     15  C   UNL     1      -0.989   3.347   1.236  0.00  0.00    +0.339 C 
ATOM     16  O   UNL     1      -1.712   3.110   0.286  0.00  0.00    -0.245 OA
BRANCH  15  17
ATOM     17  O   UNL     1       0.338   3.121   1.146  0.00  0.00    -0.462 OA
BRANCH  17  19
ATOM     18  C   UNL     1       2.341   2.412  -0.006  0.00  0.00    +0.048 C 
ATOM     19  C   UNL     1       0.826   2.602  -0.093  0.00  0.00    +0.229 C 
ENDBRANCH  17  19
ENDBRANCH  15  17
ENDBRANCH   1  15
BRANCH   5  20
ATOM     20  C   UNL     1      -4.051   3.038   5.148  0.00  0.00    +0.101 C 
ATOM     21  N   UNL     1      -4.843   2.505   5.766  0.00  0.00    -0.191 NA
ENDBRANCH   5  20
BRANCH   2  22
ATOM     22  C   UNL     1      -0.770   6.065   1.687  0.00  0.00    +0.150 C 
BRANCH  22  23
ATOM     23  S   UNL     1      -2.014   7.006   0.770  0.00  0.00    -0.097 S 
BRANCH  23  24
ATOM     24  C   UNL     1      -0.968   7.936  -0.299  0.00  0.00    +0.115 A 
ATOM     25  C   UNL     1      -1.534   8.836  -1.221  0.00  0.00    +0.084 A 
ATOM     26  C   UNL     1      -0.681   9.562  -2.062  0.00  0.00    +0.027 A 
ATOM     27  C   UNL     1       0.682   9.355  -1.940  0.00  0.00    -0.025 A 
ATOM     28  C   UNL     1       1.165   8.463  -1.015  0.00  0.00    +0.046 A 
ATOM     29  N   UNL     1       0.346   7.788  -0.226  0.00  0.00    -0.244 NA
ATOM     30  C   UNL     1       2.659   8.248  -0.882  0.00  0.00    +0.056 C 
ATOM     31  C   UNL     1       3.277   9.503  -0.264  0.00  0.00    +0.006 C 
ATOM     32  C   UNL     1       3.596  10.534  -1.328  0.00  0.00    +0.001 C 
ATOM     33  C   UNL     1       2.378  11.151  -1.987  0.00  0.00    +0.005 C 
ATOM     34  C   UNL     1       1.635  10.116  -2.836  0.00  0.00    +0.037 C 
BRANCH  25  35
ATOM     35  C   UNL     1      -2.954   9.005  -1.299  0.00  0.00    +0.102 C 
ATOM     36  N   UNL     1      -4.080   9.139  -1.360  0.00  0.00    -0.191 NA
ENDBRANCH  25  35
ENDBRANCH  23  24
ENDBRANCH  22  23
ENDBRANCH   2  22
TORSDOF 10
