REMARK  Name = ZINC63135276
REMARK  11 active torsions:
REMARK  status: ('A' for Active; 'I' for Inactive)
REMARK    1  A    between atoms: C_1  and  C_2
REMARK    2  A    between atoms: C_2  and  C_3
REMARK    3  A    between atoms: C_3  and  C_4
REMARK    4  A    between atoms: C_4  and  C_5
REMARK    5  A    between atoms: C_7  and  C_11
REMARK    6  A    between atoms: C_11  and  C_13
REMARK    7  A    between atoms: C_11  and  S_14
REMARK    8  A    between atoms: S_14  and  C_15
REMARK    9  A    between atoms: C_18  and  C_27
REMARK   10  A    between atoms: N_19  and  C_20
REMARK   11  A    between atoms: C_20  and  C_21
REMARK                            x       y       z     vdW  Elec       q    Type
REMARK                         _______ _______ _______ _____ _____    ______ ____
ROOT
ATOM      1  C   UNL     1      -3.905  -7.168   1.279  0.00  0.00    +0.192 A 
ATOM      2  N   UNL     1      -4.761  -7.243   2.287  0.00  0.00    -0.122 NA
ATOM      3  N   UNL     1      -4.923  -8.468   2.640  0.00  0.00    -0.129 NA
ATOM      4  C   UNL     1      -4.178  -9.255   1.877  0.00  0.00    +0.163 A 
ATOM      5  N   UNL     1      -3.512  -8.437   0.982  0.00  0.00    -0.300 N 
ENDROOT
BRANCH   4   6
ATOM      6  C   UNL     1      -4.086 -10.654   1.958  0.00  0.00    +0.025 C 
ATOM      7  C   UNL     1      -4.834 -11.502   2.775  0.00  0.00    +0.006 A 
ATOM      8  C   UNL     1      -5.854 -11.261   3.719  0.00  0.00    +0.010 A 
ATOM      9  C   UNL     1      -6.418 -12.303   4.383  0.00  0.00    +0.001 A 
ATOM     10  C   UNL     1      -6.012 -13.620   4.155  0.00  0.00    +0.002 A 
ATOM     11  C   UNL     1      -5.038 -13.925   3.263  0.00  0.00    +0.026 A 
ATOM     12  C   UNL     1      -4.403 -12.889   2.531  0.00  0.00    +0.043 A 
ATOM     13  N   UNL     1      -3.448 -12.922   1.623  0.00  0.00    -0.380 N 
ATOM     14  C   UNL     1      -3.160 -11.557   1.173  0.00  0.00    +0.152 C 
ATOM     15  H   UNL     1      -3.008 -13.724   1.300  0.00  0.00    +0.160 HD
ENDBRANCH   4   6
BRANCH   1  16
ATOM     16  S   UNL     1      -3.378  -5.696   0.467  0.00  0.00    -0.078 S 
BRANCH  16  17
ATOM     17  C   UNL     1      -4.264  -4.373   1.336  0.00  0.00    +0.103 C 
ATOM     18  C   UNL     1      -5.768  -4.526   1.100  0.00  0.00    +0.024 C 
BRANCH  17  21
ATOM     19  C   UNL     1      -1.780  -2.705  -0.117  0.00  0.00    +0.103 C 
ATOM     20  N   UNL     1      -2.357  -2.850   1.025  0.00  0.00    -0.346 N 
ATOM     21  C   UNL     1      -3.800  -3.015   0.807  0.00  0.00    +0.256 C 
ATOM     22  O   UNL     1      -3.977  -2.946  -0.617  0.00  0.00    -0.247 OA
ATOM     23  N   UNL     1      -2.675  -2.745  -1.145  0.00  0.00    -0.252 N 
ATOM     24  H   UNL     1      -2.457  -2.654  -2.086  0.00  0.00    +0.195 HD
ATOM     25  H   UNL     1      -1.913  -2.850   1.887  0.00  0.00    +0.163 HD
BRANCH  19  26
ATOM     26  C   UNL     1      -0.296  -2.508  -0.294  0.00  0.00    +0.074 C 
BRANCH  26  27
ATOM     27  C   UNL     1       0.029  -1.014  -0.257  0.00  0.00    +0.007 C 
BRANCH  27  29
ATOM     28  C   UNL     1       1.859   0.681  -0.400  0.00  0.00    +0.004 C 
ATOM     29  C   UNL     1       1.535  -0.814  -0.437  0.00  0.00    -0.003 C 
ENDBRANCH  27  29
ENDBRANCH  26  27
ENDBRANCH  19  26
ENDBRANCH  17  21
ENDBRANCH  16  17
ENDBRANCH   1  16
BRANCH   5  30
ATOM     30  C   UNL     1      -2.575  -8.850  -0.066  0.00  0.00    +0.157 C 
BRANCH  30  31
ATOM     31  C   UNL     1      -3.353  -9.205  -1.334  0.00  0.00    +0.138 C 
ATOM     32  C   UNL     1      -2.382  -9.725  -2.416  0.00  0.00    +0.035 C 
ATOM     33  C   UNL     1      -2.959  -9.090  -3.710  0.00  0.00    +0.031 C 
ATOM     34  C   UNL     1      -3.485  -7.739  -3.165  0.00  0.00    +0.160 C 
ATOM     35  O   UNL     1      -3.996  -8.035  -1.854  0.00  0.00    -0.375 OA
ENDBRANCH  30  31
ENDBRANCH   5  30
TORSDOF 9
