REMARK  Name = ZINC63596510
REMARK  6 active torsions:
REMARK  status: ('A' for Active; 'I' for Inactive)
REMARK    1  A    between atoms: C_2  and  C_3
REMARK    2  A    between atoms: C_3  and  N_4
REMARK    3  A    between atoms: C_5  and  C_21
REMARK    4  A    between atoms: C_9  and  S_10
REMARK    5  A    between atoms: S_10  and  C_11
REMARK    6  A    between atoms: C_11  and  C_12
REMARK                            x       y       z     vdW  Elec       q    Type
REMARK                         _______ _______ _______ _____ _____    ______ ____
ROOT
ATOM      1  N   UNL     1       1.367  -1.676   1.111  0.00  0.00    -0.280 N 
ATOM      2  C   UNL     1       1.871  -1.396   2.467  0.00  0.00    +0.227 C 
ATOM      3  N   UNL     1       1.688  -2.671   3.182  0.00  0.00    -0.241 N 
ATOM      4  N   UNL     1       1.125  -3.559   2.258  0.00  0.00    -0.162 NA
ATOM      5  C   UNL     1       0.945  -2.997   1.111  0.00  0.00    +0.176 C 
ATOM      6  H   UNL     1       1.913  -2.857   4.107  0.00  0.00    +0.171 HD
ENDROOT
BRANCH   2   7
ATOM      7  C   UNL     1       1.063  -0.302   3.116  0.00  0.00    +0.081 A 
ATOM      8  C   UNL     1       0.914  -0.286   4.490  0.00  0.00    +0.027 A 
ATOM      9  C   UNL     1       0.168   0.725   5.077  0.00  0.00    +0.003 A 
ATOM     10  C   UNL     1      -0.402   1.686   4.256  0.00  0.00    +0.020 A 
ATOM     11  C   UNL     1      -0.209   1.605   2.890  0.00  0.00    +0.111 A 
ATOM     12  N   UNL     1       0.510   0.632   2.367  0.00  0.00    -0.256 NA
ENDBRANCH   2   7
BRANCH   1  13
ATOM     13  C   UNL     1       1.317  -0.740  -0.015  0.00  0.00    +0.136 C 
BRANCH  13  15
ATOM     14  C   UNL     1      -0.016   1.306   0.009  0.00  0.00    +0.005 C 
ATOM     15  C   UNL     1       0.002  -0.004   0.002  0.00  0.00    -0.016 C 
ENDBRANCH  13  15
ENDBRANCH   1  13
BRANCH   5  16
ATOM     16  S   UNL     1       0.249  -3.810  -0.288  0.00  0.00    -0.085 S 
BRANCH  16  17
ATOM     17  C   UNL     1      -0.102  -5.487   0.308  0.00  0.00    +0.124 C 
BRANCH  17  18
ATOM     18  C   UNL     1      -0.718  -6.312  -0.824  0.00  0.00    +0.184 C 
ATOM     19  N   UNL     1       0.182  -6.327  -1.984  0.00  0.00    -0.363 N 
ATOM     20  C   UNL     1      -0.458  -5.787  -2.981  0.00  0.00    +0.060 A 
ATOM     21  C   UNL     1      -0.089  -5.525  -4.379  0.00  0.00    +0.027 A 
ATOM     22  C   UNL     1      -0.980  -4.937  -5.203  0.00  0.00    +0.002 A 
ATOM     23  C   UNL     1      -2.266  -4.556  -4.780  0.00  0.00    +0.002 A 
ATOM     24  C   UNL     1      -2.704  -4.749  -3.520  0.00  0.00    +0.027 A 
ATOM     25  C   UNL     1      -1.819  -5.384  -2.534  0.00  0.00    +0.060 A 
ATOM     26  N   UNL     1      -1.969  -5.690  -1.278  0.00  0.00    -0.363 N 
ATOM     27  H   UNL     1       1.087  -6.676  -2.004  0.00  0.00    +0.162 HD
ATOM     28  H   UNL     1      -2.761  -5.536  -0.740  0.00  0.00    +0.162 HD
ENDBRANCH  17  18
ENDBRANCH  16  17
ENDBRANCH   5  16
TORSDOF 6
