REMARK  Name = ZINC36017201
REMARK  16 active torsions:
REMARK  status: ('A' for Active; 'I' for Inactive)
REMARK    1  A    between atoms: C_1  and  C_2
REMARK    2  A    between atoms: C_2  and  N_3
REMARK    3  A    between atoms: C_4  and  C_26
REMARK    4  A    between atoms: C_5  and  C_21
REMARK    5  A    between atoms: C_6  and  C_11
REMARK    6  A    between atoms: C_13  and  O_19
REMARK    7  A    between atoms: C_16  and  O_17
REMARK    8  A    between atoms: O_17  and  C_18
REMARK    9  A    between atoms: O_19  and  C_20
REMARK   10  A    between atoms: C_21  and  O_23
REMARK   11  A    between atoms: O_23  and  C_24
REMARK   12  A    between atoms: C_24  and  C_25
REMARK   13  A    between atoms: C_26  and  N_27
REMARK   14  A    between atoms: C_34  and  C_36
REMARK   15  A    between atoms: C_36  and  C_37
REMARK   16  A    between atoms: C_36  and  C_38
REMARK                            x       y       z     vdW  Elec       q    Type
REMARK                         _______ _______ _______ _____ _____    ______ ____
ROOT
ATOM      1  N   UNL     1       0.461  -0.445  -1.341  0.00  0.00    -0.261 N 
ATOM      2  C   UNL     1      -0.428  -0.711  -2.343  0.00  0.00    +0.010 C 
ATOM      3  C   UNL     1      -0.013  -1.202  -3.530  0.00  0.00    +0.077 C 
ATOM      4  C   UNL     1       1.471  -1.447  -3.713  0.00  0.00    +0.147 C 
ATOM      5  N   UNL     1       2.345  -1.127  -2.572  0.00  0.00    -0.288 N 
ATOM      6  C   UNL     1       1.782  -0.638  -1.450  0.00  0.00    +0.307 C 
ATOM      7  O   UNL     1       2.495  -0.367  -0.503  0.00  0.00    -0.252 OA
ATOM      8  H   UNL     1       3.304  -1.262  -2.628  0.00  0.00    +0.151 HD
ENDROOT
BRANCH   4   9
ATOM      9  C   UNL     1       1.663  -2.903  -4.051  0.00  0.00    +0.023 A 
ATOM     10  C   UNL     1       1.917  -3.817  -3.047  0.00  0.00    +0.055 A 
ATOM     11  C   UNL     1       2.094  -5.157  -3.358  0.00  0.00    +0.121 A 
ATOM     12  C   UNL     1       2.016  -5.579  -4.677  0.00  0.00    +0.049 A 
ATOM     13  C   UNL     1       1.762  -4.665  -5.680  0.00  0.00    +0.049 A 
ATOM     14  C   UNL     1       1.580  -3.326  -5.369  0.00  0.00    +0.126 A 
BRANCH  14  15
ATOM     15  O   UNL     1       1.324  -2.427  -6.356  0.00  0.00    -0.495 OA
ATOM     16  C   UNL     1       1.147  -2.946  -7.676  0.00  0.00    +0.277 C 
ENDBRANCH  14  15
BRANCH  11  17
ATOM     17  O   UNL     1       2.345  -6.057  -2.369  0.00  0.00    -0.495 OA
ATOM     18  C   UNL     1       2.516  -7.420  -2.762  0.00  0.00    +0.277 C 
ENDBRANCH  11  17
ENDBRANCH   4   9
BRANCH   1  20
ATOM     19  C   UNL     1       0.095   1.609  -0.065  0.00  0.00    +0.025 C 
ATOM     20  C   UNL     1      -0.058   0.087  -0.079  0.00  0.00    +0.111 C 
ENDBRANCH   1  20
BRANCH   3  21
ATOM     21  C   UNL     1      -0.933  -1.479  -4.569  0.00  0.00    +0.339 C 
ATOM     22  O   UNL     1      -1.007  -0.736  -5.530  0.00  0.00    -0.245 OA
BRANCH  21  23
ATOM     23  O   UNL     1      -1.728  -2.566  -4.494  0.00  0.00    -0.462 OA
BRANCH  23  24
ATOM     24  C   UNL     1      -2.553  -2.846  -5.626  0.00  0.00    +0.229 C 
ATOM     25  C   UNL     1      -3.465  -4.035  -5.312  0.00  0.00    +0.048 C 
ENDBRANCH  23  24
ENDBRANCH  21  23
ENDBRANCH   3  21
BRANCH   2  26
ATOM     26  C   UNL     1      -1.895  -0.452  -2.119  0.00  0.00    -0.026 C 
BRANCH  26  27
ATOM     27  N   UNL     1      -2.214   0.929  -2.506  0.00  0.00    +0.384 N 
ATOM     28  C   UNL     1      -3.552   1.248  -2.013  0.00  0.00    -0.077 C 
ATOM     29  C   UNL     1      -3.639   2.732  -1.731  0.00  0.00    +0.000 C 
ATOM     30  C   UNL     1      -4.197   3.457  -2.969  0.00  0.00    +0.106 C 
ATOM     31  N   UNL     1      -3.639   2.889  -4.213  0.00  0.00    -0.303 N 
ATOM     32  C   UNL     1      -2.245   2.520  -4.340  0.00  0.00    +0.089 C 
ATOM     33  C   UNL     1      -2.050   1.049  -3.904  0.00  0.00    -0.059 C 
ATOM     34  C   UNL     1      -4.458   2.708  -5.268  0.00  0.00    +0.218 C 
ATOM     35  O   UNL     1      -4.023   2.243  -6.300  0.00  0.00    -0.275 OA
ATOM     36  H   UNL     1      -1.555   1.544  -2.054  0.00  0.00    -0.081 HD
BRANCH  34  37
ATOM     37  C   UNL     1      -5.914   3.083  -5.165  0.00  0.00    +0.069 C 
ATOM     38  C   UNL     1      -6.036   4.576  -4.855  0.00  0.00    +0.017 C 
ATOM     39  C   UNL     1      -6.614   2.778  -6.491  0.00  0.00    +0.017 C 
ENDBRANCH  34  37
ENDBRANCH  26  27
ENDBRANCH   2  26
TORSDOF 10
