REMARK  Name = ZINC03568941
REMARK  7 active torsions:
REMARK  status: ('A' for Active; 'I' for Inactive)
REMARK    1  A    between atoms: C_1  and  C_2
REMARK    2  A    between atoms: C_3  and  C_28
REMARK    3  A    between atoms: N_9  and  C_27
REMARK    4  A    between atoms: C_10  and  S_12
REMARK    5  A    between atoms: S_12  and  C_13
REMARK    6  A    between atoms: C_13  and  C_14
REMARK    7  A    between atoms: C_16  and  N_24
REMARK                            x       y       z     vdW  Elec       q    Type
REMARK                         _______ _______ _______ _____ _____    ______ ____
ROOT
ATOM      1  S   UNL     1       1.156   4.188   1.719  0.00  0.00    -0.083 S 
ENDROOT
BRANCH   1  11
ATOM      2  C   UNL     1       1.060  11.147   1.565  0.00  0.00    +0.045 C 
ATOM      3  C   UNL     1       1.065  10.027   0.557  0.00  0.00    -0.026 A 
ATOM      4  C   UNL     1       1.049  10.297  -0.757  0.00  0.00    -0.008 A 
ATOM      5  S   UNL     1       1.064   8.682  -1.512  0.00  0.00    -0.073 S 
ATOM      6  C   UNL     1       1.091   7.690  -0.040  0.00  0.00    +0.117 A 
ATOM      7  C   UNL     1       1.088   8.643   0.997  0.00  0.00    +0.075 A 
ATOM      8  C   UNL     1       1.107   8.115   2.326  0.00  0.00    +0.263 A 
ATOM      9  O   UNL     1       1.106   8.865   3.288  0.00  0.00    -0.267 OA
ATOM     10  N   UNL     1       1.127   6.781   2.502  0.00  0.00    -0.290 N 
ATOM     11  C   UNL     1       1.129   5.927   1.438  0.00  0.00    +0.173 A 
ATOM     12  N   UNL     1       1.117   6.385   0.202  0.00  0.00    -0.216 NA
ATOM     13  C   UNL     1       1.146   6.236   3.861  0.00  0.00    +0.154 C 
ATOM     14  C   UNL     1       1.024  11.643  -1.433  0.00  0.00    +0.052 C 
ENDBRANCH   1  11
BRANCH   1  15
ATOM     15  C   UNL     1       1.149   3.593   0.009  0.00  0.00    +0.116 C 
BRANCH  15  16
ATOM     16  C   UNL     1       1.170   2.086   0.002  0.00  0.00    +0.007 A 
ATOM     17  C   UNL     1      -0.017   1.378   0.010  0.00  0.00    +0.040 A 
ATOM     18  C   UNL     1       0.002  -0.004   0.002  0.00  0.00    +0.127 A 
ATOM     19  C   UNL     1       1.208  -0.681  -0.012  0.00  0.00    +0.042 A 
ATOM     20  C   UNL     1       2.397   0.022  -0.018  0.00  0.00    +0.022 A 
ATOM     21  C   UNL     1       2.381   1.409  -0.013  0.00  0.00    +0.133 A 
ATOM     22  O   UNL     1       3.544   2.113  -0.027  0.00  0.00    -0.466 OA
ATOM     23  C   UNL     1       4.734   1.402   0.324  0.00  0.00    +0.394 C 
ATOM     24  O   UNL     1       4.759   0.167  -0.402  0.00  0.00    -0.339 OA
ATOM     25  C   UNL     1       3.706  -0.726  -0.025  0.00  0.00    +0.202 C 
BRANCH  18  26
ATOM     26  N   UNL     1      -1.270  -0.760   0.009  0.00  0.00    +0.056 N 
ATOM     27  O   UNL     1      -2.333  -0.165   0.021  0.00  0.00    -0.126 OA
ATOM     28  O   UNL     1      -1.254  -1.978   0.002  0.00  0.00    -0.126 OA
ENDBRANCH  18  26
ENDBRANCH  15  16
ENDBRANCH   1  15
TORSDOF 4
