REMARK  Name = ZINC10107412
REMARK  11 active torsions:
REMARK  status: ('A' for Active; 'I' for Inactive)
REMARK    1  A    between atoms: C_1  and  C_2
REMARK    2  A    between atoms: C_2  and  C_3
REMARK    3  A    between atoms: C_6  and  N_9
REMARK    4  A    between atoms: C_10  and  C_35
REMARK    5  A    between atoms: C_11  and  C_34
REMARK    6  A    between atoms: N_19  and  C_24
REMARK    7  A    between atoms: N_22  and  C_23
REMARK    8  A    between atoms: C_24  and  C_25
REMARK    9  A    between atoms: C_25  and  C_26
REMARK   10  A    between atoms: C_26  and  N_71
REMARK   11  A    between atoms: C_30  and  C_33
REMARK                            x       y       z     vdW  Elec       q    Type
REMARK                         _______ _______ _______ _____ _____    ______ ____
ROOT
ATOM      1  N   UNL     1      -0.826   6.465   1.397  0.00  0.00    -0.282 N 
ATOM      2  C   UNL     1      -1.471   6.927   2.530  0.00  0.00    +0.043 A 
ATOM      3  C   UNL     1      -1.868   5.875   3.240  0.00  0.00    +0.044 A 
ATOM      4  N   UNL     1      -1.494   4.726   2.564  0.00  0.00    -0.274 N 
ATOM      5  C   UNL     1      -0.842   5.093   1.436  0.00  0.00    +0.223 A 
ATOM      6  N   UNL     1      -0.463   4.008   0.777  0.00  0.00    -0.193 NA
ATOM      7  C   UNL     1      -0.837   2.919   1.444  0.00  0.00    +0.170 A 
ATOM      8  C   UNL     1      -1.498   3.340   2.597  0.00  0.00    +0.157 A 
ATOM      9  C   UNL     1      -1.994   2.378   3.492  0.00  0.00    +0.283 A 
ATOM     10  O   UNL     1      -2.571   2.723   4.509  0.00  0.00    -0.265 OA
ATOM     11  N   UNL     1      -1.825   1.068   3.216  0.00  0.00    -0.259 N 
ATOM     12  C   UNL     1      -1.190   0.672   2.100  0.00  0.00    +0.333 A 
ATOM     13  O   UNL     1      -1.056  -0.518   1.885  0.00  0.00    -0.246 OA
ATOM     14  N   UNL     1      -0.698   1.558   1.213  0.00  0.00    -0.279 N 
ATOM     15  C   UNL     1      -0.013   1.086   0.008  0.00  0.00    +0.155 C 
ATOM     16  C   UNL     1      -2.611   5.925   4.550  0.00  0.00    +0.066 C 
ATOM     17  C   UNL     1      -1.686   8.373   2.897  0.00  0.00    +0.066 C 
ENDROOT
BRANCH   1  21
ATOM     18  C   UNL     1       0.860   8.818  -1.600  0.00  0.00    -0.047 A 
ATOM     19  C   UNL     1      -0.221   8.005  -1.888  0.00  0.00    +0.005 A 
ATOM     20  C   UNL     1      -0.782   7.224  -0.896  0.00  0.00    +0.026 A 
ATOM     21  C   UNL     1      -0.259   7.255   0.390  0.00  0.00    +0.050 A 
ATOM     22  C   UNL     1       0.823   8.076   0.676  0.00  0.00    +0.026 A 
ATOM     23  C   UNL     1       1.384   8.851  -0.321  0.00  0.00    +0.005 A 
BRANCH  18  25
ATOM     24  C   UNL     1       0.778  11.033  -2.712  0.00  0.00    +0.009 C 
ATOM     25  C   UNL     1       1.470   9.668  -2.684  0.00  0.00    +0.032 C 
ENDBRANCH  18  25
ENDBRANCH   1  21
BRANCH  11  26
ATOM     26  C   UNL     1      -2.341   0.062   4.147  0.00  0.00    +0.128 C 
BRANCH  26  27
ATOM     27  C   UNL     1      -1.265  -0.275   5.181  0.00  0.00    +0.003 C 
BRANCH  27  28
ATOM     28  C   UNL     1      -1.804  -1.325   6.154  0.00  0.00    -0.077 C 
BRANCH  28  35
ATOM     29  C   UNL     1      -0.144  -0.429   7.671  0.00  0.00    -0.079 C 
ATOM     30  C   UNL     1       1.021  -0.806   8.589  0.00  0.00    -0.018 C 
ATOM     31  C   UNL     1       0.498  -1.668   9.741  0.00  0.00    -0.001 C 
ATOM     32  C   UNL     1      -0.194  -2.908   9.168  0.00  0.00    -0.031 C 
ATOM     33  C   UNL     1      -1.323  -2.470   8.233  0.00  0.00    -0.076 C 
ATOM     34  C   UNL     1      -0.772  -3.745  10.310  0.00  0.00    +0.005 C 
ATOM     35  N   UNL     1      -0.750  -1.665   7.133  0.00  0.00    +0.380 N 
ATOM     36  H   UNL     1      -0.023  -2.215   6.662  0.00  0.00    -0.082 HD
ENDBRANCH  28  35
ENDBRANCH  27  28
ENDBRANCH  26  27
ENDBRANCH  11  26
TORSDOF 6
