REMARK  Name = ZINC39353757
REMARK  7 active torsions:
REMARK  status: ('A' for Active; 'I' for Inactive)
REMARK    1  A    between atoms: C_1  and  C_2
REMARK    2  A    between atoms: C_5  and  O_8
REMARK    3  A    between atoms: O_8  and  C_9
REMARK    4  A    between atoms: C_9  and  C_10
REMARK    5  A    between atoms: N_19  and  C_20
REMARK    6  A    between atoms: C_26  and  C_28
REMARK    7  A    between atoms: C_31  and  C_37
REMARK                            x       y       z     vdW  Elec       q    Type
REMARK                         _______ _______ _______ _____ _____    ______ ____
ROOT
ATOM      1  C   UNL     1       0.090  -6.306   1.041  0.00  0.00    +0.197 C 
ATOM      2  N   UNL     1      -1.071  -6.726   0.246  0.00  0.00    -0.322 N 
ATOM      3  C   UNL     1      -0.582  -7.322  -0.925  0.00  0.00    +0.050 A 
ATOM      4  C   UNL     1      -1.257  -7.882  -2.003  0.00  0.00    +0.025 A 
ATOM      5  C   UNL     1      -0.550  -8.419  -3.061  0.00  0.00    +0.002 A 
ATOM      6  C   UNL     1       0.832  -8.401  -3.053  0.00  0.00    +0.002 A 
ATOM      7  C   UNL     1       1.512  -7.847  -1.986  0.00  0.00    +0.025 A 
ATOM      8  C   UNL     1       0.810  -7.304  -0.916  0.00  0.00    +0.053 A 
ATOM      9  N   UNL     1       1.271  -6.696   0.261  0.00  0.00    -0.304 N 
ATOM     10  H   UNL     1      -2.004  -6.612   0.486  0.00  0.00    +0.148 HD
ENDROOT
BRANCH   9  11
ATOM     11  C   UNL     1       2.670  -6.487   0.643  0.00  0.00    +0.078 C 
ATOM     12  C   UNL     1       3.381  -7.840   0.735  0.00  0.00    +0.041 C 
ATOM     13  C   UNL     1       4.834  -7.620   1.167  0.00  0.00    +0.109 C 
ATOM     14  N   UNL     1       5.464  -6.669   0.241  0.00  0.00    -0.300 N 
ATOM     15  C   UNL     1       4.814  -5.372   0.010  0.00  0.00    +0.109 C 
ATOM     16  C   UNL     1       3.361  -5.616  -0.409  0.00  0.00    +0.041 C 
ATOM     17  C   UNL     1       6.617  -6.980  -0.383  0.00  0.00    +0.231 C 
ATOM     18  O   UNL     1       7.190  -8.015  -0.118  0.00  0.00    -0.274 OA
BRANCH  17  19
ATOM     19  C   UNL     1       7.194  -6.041  -1.412  0.00  0.00    +0.184 C 
ATOM     20  C   UNL     1       6.513  -6.281  -2.725  0.00  0.00    -0.000 C 
ATOM     21  C   UNL     1       7.179  -6.324  -3.868  0.00  0.00    -0.033 C 
ATOM     22  C   UNL     1       8.645  -6.140  -3.868  0.00  0.00    +0.029 C 
ATOM     23  N   UNL     1       9.339  -6.280  -2.660  0.00  0.00    -0.285 N 
ATOM     24  C   UNL     1       8.673  -6.262  -1.496  0.00  0.00    +0.233 C 
ATOM     25  O   UNL     1       9.296  -6.429  -0.469  0.00  0.00    -0.274 OA
ATOM     26  C   UNL     1       9.295  -5.847  -4.998  0.00  0.00    +0.034 C 
ATOM     27  C   UNL     1       6.446  -6.560  -5.163  0.00  0.00    +0.045 C 
ATOM     28  H   UNL     1      10.302  -6.393  -2.665  0.00  0.00    +0.155 HD
ENDBRANCH  17  19
ENDBRANCH   9  11
BRANCH   1  29
ATOM     29  C   UNL     1       0.069  -4.790   1.246  0.00  0.00    +0.271 C 
BRANCH  29  30
ATOM     30  O   UNL     1       0.053  -4.138  -0.025  0.00  0.00    -0.488 OA
BRANCH  30  35
ATOM     31  C   UNL     1      -0.030   1.494  -0.007  0.00  0.00    +0.044 C 
ATOM     32  C   UNL     1      -0.008  -0.013  -0.012  0.00  0.00    -0.050 A 
ATOM     33  C   UNL     1      -0.004  -0.699  -1.212  0.00  0.00    +0.007 A 
ATOM     34  C   UNL     1       0.017  -2.080  -1.219  0.00  0.00    +0.046 A 
ATOM     35  C   UNL     1       0.033  -2.779  -0.021  0.00  0.00    +0.121 A 
ATOM     36  C   UNL     1       0.029  -2.088   1.182  0.00  0.00    +0.046 A 
ATOM     37  C   UNL     1       0.015  -0.706   1.184  0.00  0.00    +0.007 A 
ENDBRANCH  30  35
ENDBRANCH  29  30
ENDBRANCH   1  29
TORSDOF 5
