REMARK  Name = ZINC66864560
REMARK  4 active torsions:
REMARK  status: ('A' for Active; 'I' for Inactive)
REMARK    1  A    between atoms: C_1  and  C_2
REMARK    2  A    between atoms: C_9  and  C_11
REMARK    3  A    between atoms: C_11  and  N_12
REMARK    4  A    between atoms: C_20  and  C_22
REMARK                            x       y       z     vdW  Elec       q    Type
REMARK                         _______ _______ _______ _____ _____    ______ ____
ROOT
ATOM      1  C   UNL     1       0.066  -1.399   4.777  0.00  0.00    -0.020 C 
ENDROOT
BRANCH   1   2
ATOM      2  N   UNL     1       1.448  -1.254   5.252  0.00  0.00    +0.390 N 
ATOM      3  C   UNL     1       2.225  -2.436   4.856  0.00  0.00    -0.056 C 
ATOM      4  C   UNL     1       3.722  -2.167   5.061  0.00  0.00    +0.103 C 
ATOM      5  N   UNL     1       3.910  -1.663   6.427  0.00  0.00    -0.354 N 
ATOM      6  C   UNL     1       5.060  -1.579   7.141  0.00  0.00    +0.086 A 
ATOM      7  C   UNL     1       4.767  -1.059   8.353  0.00  0.00    +0.019 A 
ATOM      8  C   UNL     1       3.378  -0.813   8.383  0.00  0.00    +0.021 A 
ATOM      9  C   UNL     1       2.879  -1.187   7.196  0.00  0.00    +0.005 A 
ATOM     10  C   UNL     1       1.449  -1.121   6.719  0.00  0.00    -0.023 C 
ATOM     11  C   UNL     1       0.834   0.222   7.116  0.00  0.00    -0.007 C 
ATOM     12  H   UNL     1       1.860  -0.430   4.841  0.00  0.00    -0.080 HD
ENDBRANCH   1   2
BRANCH   1  21
ATOM     13  C   UNL     1      -0.018   1.503   0.010  0.00  0.00    +0.047 C 
ATOM     14  C   UNL     1       0.002  -0.004   0.002  0.00  0.00    -0.008 A 
ATOM     15  C   UNL     1       0.006  -0.685  -1.176  0.00  0.00    +0.008 A 
ATOM     16  C   UNL     1       0.025  -2.089  -1.168  0.00  0.00    +0.018 A 
ATOM     17  C   UNL     1       0.039  -2.763   0.001  0.00  0.00    +0.093 A 
ATOM     18  N   UNL     1       0.035  -2.093   1.190  0.00  0.00    -0.306 N 
ATOM     19  C   UNL     1       0.023  -0.722   1.214  0.00  0.00    +0.141 A 
ATOM     20  N   UNL     1       0.030  -0.334   2.482  0.00  0.00    -0.234 NA
ATOM     21  C   UNL     1       0.051  -1.412   3.270  0.00  0.00    +0.044 A 
ATOM     22  C   UNL     1       0.046  -2.516   2.491  0.00  0.00    +0.114 A 
ENDBRANCH   1  21
TORSDOF 2
