REMARK  Name = ZINC22024547
REMARK  14 active torsions:
REMARK  status: ('A' for Active; 'I' for Inactive)
REMARK    1  A    between atoms: C_1  and  C_2
REMARK    2  A    between atoms: C_2  and  N_3
REMARK    3  A    between atoms: N_3  and  C_4
REMARK    4  A    between atoms: N_3  and  S_6
REMARK    5  A    between atoms: C_4  and  C_5
REMARK    6  A    between atoms: S_6  and  C_9
REMARK    7  A    between atoms: C_12  and  O_37
REMARK    8  A    between atoms: C_13  and  N_15
REMARK    9  A    between atoms: C_16  and  C_18
REMARK   10  A    between atoms: C_18  and  C_20
REMARK   11  A    between atoms: C_18  and  N_24
REMARK   12  A    between atoms: C_20  and  C_21
REMARK   13  A    between atoms: C_21  and  C_22
REMARK   14  A    between atoms: C_21  and  C_23
REMARK                            x       y       z     vdW  Elec       q    Type
REMARK                         _______ _______ _______ _____ _____    ______ ____
ROOT
ATOM      1  N   UNL     1      -4.264   1.912   1.934  0.00  0.00    -0.281 N 
ATOM      2  C   UNL     1      -3.023   2.206   1.500  0.00  0.00    +0.238 C 
ATOM      3  O   UNL     1      -2.359   3.038   2.082  0.00  0.00    -0.273 OA
ATOM      4  H   UNL     1      -4.901   1.226   1.355  0.00  0.00    +0.155 HD
ENDROOT
BRANCH   1   9
ATOM      5  C   UNL     1      -4.332   3.467   5.267  0.00  0.00    +0.107 A 
ATOM      6  C   UNL     1      -5.694   3.603   5.469  0.00  0.00    +0.032 A 
ATOM      7  C   UNL     1      -6.585   3.179   4.501  0.00  0.00    +0.049 A 
ATOM      8  C   UNL     1      -6.116   2.617   3.325  0.00  0.00    +0.138 A 
ATOM      9  C   UNL     1      -4.745   2.479   3.121  0.00  0.00    +0.077 A 
ATOM     10  C   UNL     1      -3.856   2.901   4.100  0.00  0.00    +0.055 A 
BRANCH   5  11
ATOM     11  S   UNL     1      -3.202   4.009   6.506  0.00  0.00    +0.061 S 
ATOM     12  O   UNL     1      -1.972   4.272   5.845  0.00  0.00    -0.153 OA
ATOM     13  O   UNL     1      -3.881   4.995   7.272  0.00  0.00    -0.153 OA
BRANCH  11  14
ATOM     14  N   UNL     1      -2.932   2.727   7.517  0.00  0.00    -0.177 NA
BRANCH  14  16
ATOM     15  C   UNL     1      -0.598   2.207   8.029  0.00  0.00    +0.022 C 
ATOM     16  C   UNL     1      -1.840   1.791   7.238  0.00  0.00    +0.106 C 
ENDBRANCH  14  16
BRANCH  14  17
ATOM     17  C   UNL     1      -3.785   2.527   8.691  0.00  0.00    +0.106 C 
ATOM     18  C   UNL     1      -4.909   1.548   8.345  0.00  0.00    +0.022 C 
ENDBRANCH  14  17
ENDBRANCH  11  14
ENDBRANCH   5  11
BRANCH   8  19
ATOM     19  O   UNL     1      -6.992   2.200   2.372  0.00  0.00    -0.505 OA
ATOM     20  H   UNL     1      -6.617   1.754   1.438  0.00  0.00    +0.292 HD
ENDBRANCH   8  19
ENDBRANCH   1   9
BRANCH   2  21
ATOM     21  C   UNL     1      -2.459   1.502   0.293  0.00  0.00    +0.170 C 
BRANCH  21  22
ATOM     22  N   UNL     1      -1.105   1.995   0.028  0.00  0.00    -0.230 N 
ATOM     23  C   UNL     1      -0.008   1.194   0.028  0.00  0.00    +0.227 C 
ATOM     24  O   UNL     1       0.009  -0.018   0.031  0.00  0.00    -0.275 OA
ATOM     25  C   UNL     1       1.179   2.110   0.019  0.00  0.00    +0.091 C 
ATOM     26  C   UNL     1       2.406   1.685  -0.759  0.00  0.00    +0.040 C 
ATOM     27  C   UNL     1       3.286   2.910  -0.896  0.00  0.00    -0.030 C 
ATOM     28  C   UNL     1       2.875   4.130  -0.729  0.00  0.00    -0.030 C 
ATOM     29  C   UNL     1       1.448   4.514  -0.399  0.00  0.00    +0.040 C 
ATOM     30  C   UNL     1       0.580   3.326  -0.754  0.00  0.00    +0.091 C 
ATOM     31  C   UNL     1      -0.828   3.296  -0.240  0.00  0.00    +0.227 C 
ATOM     32  O   UNL     1      -1.570   4.244  -0.097  0.00  0.00    -0.275 OA
ENDBRANCH  21  22
BRANCH  21  33
ATOM     33  C   UNL     1      -3.349   1.778  -0.920  0.00  0.00    +0.035 C 
BRANCH  33  34
ATOM     34  C   UNL     1      -2.849   0.964  -2.116  0.00  0.00    -0.015 C 
ATOM     35  C   UNL     1      -3.017  -0.528  -1.822  0.00  0.00    +0.007 C 
ATOM     36  C   UNL     1      -3.661   1.333  -3.359  0.00  0.00    +0.007 C 
ENDBRANCH  33  34
ENDBRANCH  21  33
ENDBRANCH   2  21
TORSDOF 10
