REMARK  Name = ZINC08762140
REMARK  12 active torsions:
REMARK  status: ('A' for Active; 'I' for Inactive)
REMARK    1  A    between atoms: C_1  and  C_2
REMARK    2  A    between atoms: C_13  and  O_15
REMARK    3  A    between atoms: N_21  and  O_22
REMARK    4  A    between atoms: O_22  and  C_23
REMARK    5  A    between atoms: C_23  and  C_24
REMARK    6  A    between atoms: N_26  and  C_27
REMARK    7  A    between atoms: C_27  and  C_29
REMARK    8  A    between atoms: C_27  and  C_36
REMARK    9  A    between atoms: C_29  and  C_30
REMARK   10  A    between atoms: C_36  and  O_38
REMARK   11  A    between atoms: O_38  and  C_39
REMARK   12  A    between atoms: C_42  and  C_43
REMARK                            x       y       z     vdW  Elec       q    Type
REMARK                         _______ _______ _______ _____ _____    ______ ____
ROOT
ATOM      1  C   UNL     1      -0.305   3.966   0.405  0.00  0.00    +0.014 C 
ATOM      2  C   UNL     1      -1.384   2.924   0.720  0.00  0.00    -0.003 C 
ATOM      3  C   UNL     1      -2.395   3.467   1.699  0.00  0.00    +0.010 C 
ATOM      4  C   UNL     1      -2.016   3.079   3.135  0.00  0.00    +0.005 C 
ATOM      5  C   UNL     1      -0.507   2.923   3.280  0.00  0.00    +0.002 C 
ATOM      6  C   UNL     1      -0.028   1.708   2.483  0.00  0.00    -0.003 C 
ATOM      7  C   UNL     1      -0.793   1.583   1.201  0.00  0.00    +0.001 C 
ATOM      8  C   UNL     1      -0.029   1.090  -0.032  0.00  0.00    +0.007 C 
ATOM      9  C   UNL     1      -0.841   1.633  -1.238  0.00  0.00    +0.032 C 
ATOM     10  C   UNL     1      -2.004   2.459  -0.623  0.00  0.00    +0.121 C 
ATOM     11  C   UNL     1       1.482   1.727   2.309  0.00  0.00    +0.008 C 
ATOM     12  C   UNL     1       2.156   2.173   3.610  0.00  0.00    +0.031 C 
ATOM     13  C   UNL     1       1.202   1.980   4.765  0.00  0.00    -0.062 C 
ATOM     14  C   UNL     1       1.521   1.172   5.764  0.00  0.00    +0.026 C 
ATOM     15  C   UNL     1       0.612   0.964   6.896  0.00  0.00    +0.080 C 
ATOM     16  N   UNL     1       0.975   0.208   7.885  0.00  0.00    -0.089 NA
ATOM     17  C   UNL     1      -0.742   1.625   6.912  0.00  0.00    +0.059 C 
ATOM     18  C   UNL     1      -1.183   1.923   5.478  0.00  0.00    +0.017 C 
ATOM     19  C   UNL     1      -0.112   2.727   4.750  0.00  0.00    -0.007 C 
ATOM     20  C   UNL     1       0.069   4.095   5.410  0.00  0.00    +0.016 C 
ENDROOT
BRANCH  10  21
ATOM     21  O   UNL     1      -2.315   3.587  -1.438  0.00  0.00    -0.391 OA
ATOM     22  H   UNL     1      -2.611   3.358  -2.330  0.00  0.00    +0.210 HD
ENDBRANCH  10  21
BRANCH  16  23
ATOM     23  O   UNL     1       2.246  -0.416   7.871  0.00  0.00    -0.384 OA
BRANCH  23  24
ATOM     24  C   UNL     1       2.512  -1.219   9.023  0.00  0.00    +0.358 C 
BRANCH  24  25
ATOM     25  C   UNL     1       3.884  -1.831   8.902  0.00  0.00    +0.254 C 
ATOM     26  O   UNL     1       4.566  -1.601   7.926  0.00  0.00    -0.272 OA
ATOM     27  N   UNL     1       4.352  -2.632   9.879  0.00  0.00    -0.299 N 
ATOM     28  H   UNL     1       3.806  -2.816  10.660  0.00  0.00    +0.150 HD
BRANCH  27  29
ATOM     29  C   UNL     1       5.686  -3.227   9.762  0.00  0.00    +0.186 C 
BRANCH  29  30
ATOM     30  C   UNL     1       5.600  -4.499   8.958  0.00  0.00    +0.328 C 
ATOM     31  O   UNL     1       4.534  -4.870   8.527  0.00  0.00    -0.249 OA
BRANCH  30  32
ATOM     32  O   UNL     1       6.708  -5.219   8.720  0.00  0.00    -0.467 OA
ATOM     33  C   UNL     1       6.550  -6.432   7.939  0.00  0.00    +0.280 C 
ENDBRANCH  30  32
ENDBRANCH  29  30
BRANCH  29  34
ATOM     34  C   UNL     1       6.228  -3.542  11.158  0.00  0.00    +0.069 C 
BRANCH  34  35
ATOM     35  C   UNL     1       6.430  -2.258  11.920  0.00  0.00    -0.045 A 
ATOM     36  C   UNL     1       7.644  -1.599  11.855  0.00  0.00    +0.004 A 
ATOM     37  C   UNL     1       7.827  -0.418  12.550  0.00  0.00    +0.000 A 
ATOM     38  C   UNL     1       6.800   0.099  13.318  0.00  0.00    +0.000 A 
ATOM     39  C   UNL     1       5.588  -0.563  13.387  0.00  0.00    +0.000 A 
ATOM     40  C   UNL     1       5.403  -1.741  12.688  0.00  0.00    +0.004 A 
ENDBRANCH  34  35
ENDBRANCH  29  34
ENDBRANCH  27  29
ENDBRANCH  24  25
ENDBRANCH  23  24
ENDBRANCH  16  23
TORSDOF 9
