REMARK  Name = ZINC28443906
REMARK  6 active torsions:
REMARK  status: ('A' for Active; 'I' for Inactive)
REMARK    1  A    between atoms: C_4  and  C_7
REMARK    2  A    between atoms: C_11  and  C_30
REMARK    3  A    between atoms: N_15  and  C_20
REMARK    4  A    between atoms: C_20  and  C_21
REMARK    5  A    between atoms: N_23  and  C_24
REMARK    6  A    between atoms: C_24  and  C_25
REMARK                            x       y       z     vdW  Elec       q    Type
REMARK                         _______ _______ _______ _____ _____    ______ ____
ROOT
ATOM      1  C   UNL     1       3.660   2.164  -0.021  0.00  0.00    +0.182 A 
ATOM      2  N   UNL     1       3.770   3.499  -0.015  0.00  0.00    -0.206 NA
ATOM      3  C   UNL     1       5.042   3.835  -0.024  0.00  0.00    +0.172 A 
ATOM      4  C   UNL     1       5.731   5.147  -0.024  0.00  0.00    +0.058 A 
ATOM      5  C   UNL     1       5.164   6.491  -0.011  0.00  0.00    +0.002 A 
ATOM      6  C   UNL     1       6.007   7.553  -0.012  0.00  0.00    +0.056 A 
ATOM      7  S   UNL     1       7.619   6.792  -0.032  0.00  0.00    -0.078 S 
ATOM      8  C   UNL     1       7.122   5.090  -0.037  0.00  0.00    +0.096 A 
ATOM      9  N   UNL     1       7.792   3.897  -0.050  0.00  0.00    -0.277 N 
ATOM     10  C   UNL     1       7.126   2.726  -0.051  0.00  0.00    +0.353 A 
ATOM     11  O   UNL     1       7.751   1.683  -0.062  0.00  0.00    -0.244 OA
ATOM     12  N   UNL     1       5.783   2.689  -0.037  0.00  0.00    -0.161 N 
ATOM     13  N   UNL     1       4.862   1.629  -0.029  0.00  0.00    -0.141 NA
ENDROOT
BRANCH   5  14
ATOM     14  C   UNL     1       3.696   6.691   0.003  0.00  0.00    -0.017 A 
ATOM     15  C   UNL     1       2.890   6.028  -0.921  0.00  0.00    +0.010 A 
ATOM     16  C   UNL     1       1.523   6.215  -0.901  0.00  0.00    +0.020 A 
ATOM     17  C   UNL     1       0.952   7.067   0.029  0.00  0.00    +0.041 A 
ATOM     18  C   UNL     1       1.748   7.732   0.946  0.00  0.00    +0.020 A 
ATOM     19  C   UNL     1       3.115   7.549   0.937  0.00  0.00    +0.010 A 
ATOM     20 CL   UNL     1      -0.768   7.302   0.045  0.00  0.00    -0.084 Cl
ENDBRANCH   5  14
BRANCH   1  24
ATOM     21  C   UNL     1       0.002  -0.004   0.002  0.00  0.00    +0.000 A 
ATOM     22  C   UNL     1      -0.017   1.379   0.010  0.00  0.00    +0.001 A 
ATOM     23  C   UNL     1       1.168   2.088   0.002  0.00  0.00    +0.011 A 
ATOM     24  C   UNL     1       2.384   1.408  -0.013  0.00  0.00    +0.021 A 
ATOM     25  C   UNL     1       2.397   0.014  -0.021  0.00  0.00    +0.011 A 
ATOM     26  C   UNL     1       1.206  -0.684  -0.013  0.00  0.00    +0.001 A 
ENDBRANCH   1  24
BRANCH   9  27
ATOM     27  C   UNL     1       9.257   3.892  -0.063  0.00  0.00    +0.223 C 
BRANCH  27  28
ATOM     28  C   UNL     1       9.772   3.882   1.353  0.00  0.00    +0.233 C 
ATOM     29  O   UNL     1       8.993   3.880   2.282  0.00  0.00    -0.274 OA
ATOM     30  N   UNL     1      11.100   3.877   1.587  0.00  0.00    -0.307 N 
ATOM     31  H   UNL     1      11.807   3.880   0.745  0.00  0.00    +0.149 HD
BRANCH  30  32
ATOM     32  C   UNL     1      11.601   3.868   2.964  0.00  0.00    +0.178 C 
BRANCH  32  33
ATOM     33  C   UNL     1      13.107   3.863   2.950  0.00  0.00    +0.122 A 
ATOM     34  C   UNL     1      13.898   4.952   2.949  0.00  0.00    +0.046 A 
ATOM     35  C   UNL     1      15.233   4.489   2.934  0.00  0.00    +0.041 A 
ATOM     36  C   UNL     1      15.180   3.145   2.927  0.00  0.00    +0.195 A 
ATOM     37  O   UNL     1      13.890   2.771   2.942  0.00  0.00    -0.466 OA
ENDBRANCH  32  33
ENDBRANCH  30  32
ENDBRANCH  27  28
ENDBRANCH   9  27
TORSDOF 6
