REMARK  Name = ZINC05238296
REMARK  9 active torsions:
REMARK  status: ('A' for Active; 'I' for Inactive)
REMARK    1  A    between atoms: C_1  and  C_2
REMARK    2  A    between atoms: C_5  and  C_8
REMARK    3  A    between atoms: C_10  and  S_17
REMARK    4  A    between atoms: C_14  and  C_15
REMARK    5  A    between atoms: S_17  and  C_18
REMARK    6  A    between atoms: C_18  and  C_19
REMARK    7  A    between atoms: N_21  and  C_22
REMARK    8  A    between atoms: C_25  and  C_29
REMARK    9  A    between atoms: C_27  and  C_28
REMARK                            x       y       z     vdW  Elec       q    Type
REMARK                         _______ _______ _______ _____ _____    ______ ____
ROOT
ATOM      1  C   UNL     1       0.023  -4.255   0.006  0.00  0.00    +0.097 A 
ATOM      2  N   UNL     1      -0.617  -4.935  -0.942  0.00  0.00    -0.220 NA
ATOM      3  C   UNL     1      -0.601  -6.260  -0.958  0.00  0.00    +0.193 A 
ATOM      4  N   UNL     1       0.045  -6.970  -0.042  0.00  0.00    -0.182 NA
ATOM      5  C   UNL     1       0.709  -6.377   0.939  0.00  0.00    +0.292 A 
ATOM      6  O   UNL     1       1.364  -7.111   1.869  0.00  0.00    -0.264 OA
ATOM      7  C   UNL     1       0.728  -4.969   0.997  0.00  0.00    +0.144 A 
ENDROOT
BRANCH   1  12
ATOM      8  C   UNL     1      -0.068   1.501   0.048  0.00  0.00    +0.044 C 
ATOM      9  C   UNL     1      -0.044  -0.006   0.037  0.00  0.00    -0.050 A 
ATOM     10  C   UNL     1      -0.030  -0.686  -1.168  0.00  0.00    +0.004 A 
ATOM     11  C   UNL     1      -0.008  -2.065  -1.184  0.00  0.00    +0.010 A 
ATOM     12  C   UNL     1      -0.000  -2.774   0.017  0.00  0.00    +0.002 A 
ATOM     13  C   UNL     1      -0.015  -2.083   1.228  0.00  0.00    +0.010 A 
ATOM     14  C   UNL     1      -0.031  -0.703   1.232  0.00  0.00    +0.004 A 
ENDBRANCH   1  12
BRANCH   7  15
ATOM     15  C   UNL     1       1.437  -4.283   2.035  0.00  0.00    +0.107 C 
ATOM     16  N   UNL     1       2.000  -3.739   2.858  0.00  0.00    -0.191 NA
ENDBRANCH   7  15
BRANCH   3  17
ATOM     17  S   UNL     1      -1.466  -7.106  -2.239  0.00  0.00    -0.077 S 
BRANCH  17  18
ATOM     18  C   UNL     1      -1.180  -8.861  -1.876  0.00  0.00    +0.173 C 
BRANCH  18  19
ATOM     19  C   UNL     1      -1.875  -9.707  -2.910  0.00  0.00    +0.227 C 
ATOM     20  O   UNL     1      -2.502  -9.179  -3.804  0.00  0.00    -0.275 OA
ATOM     21  N   UNL     1      -1.801 -11.051  -2.842  0.00  0.00    -0.285 N 
ATOM     22  H   UNL     1      -1.235 -11.472  -2.176  0.00  0.00    +0.155 HD
BRANCH  21  23
ATOM     23  C   UNL     1      -2.539 -11.839  -3.732  0.00  0.00    +0.036 A 
ATOM     24  C   UNL     1      -3.695 -11.334  -4.314  0.00  0.00    +0.024 A 
ATOM     25  C   UNL     1      -4.422 -12.114  -5.191  0.00  0.00    +0.005 A 
ATOM     26  C   UNL     1      -4.000 -13.397  -5.491  0.00  0.00    -0.050 A 
ATOM     27  C   UNL     1      -2.850 -13.902  -4.913  0.00  0.00    +0.008 A 
ATOM     28  C   UNL     1      -2.115 -13.125  -4.040  0.00  0.00    -0.029 A 
ATOM     29  C   UNL     1      -0.858 -13.674  -3.416  0.00  0.00    +0.045 C 
ATOM     30  C   UNL     1      -4.796 -14.245  -6.449  0.00  0.00    +0.044 C 
ENDBRANCH  21  23
ENDBRANCH  18  19
ENDBRANCH  17  18
ENDBRANCH   3  17
TORSDOF 6
