REMARK  Name = ZINC00926069
REMARK  10 active torsions:
REMARK  status: ('A' for Active; 'I' for Inactive)
REMARK    1  A    between atoms: C_1  and  C_2
REMARK    2  A    between atoms: C_7  and  C_14
REMARK    3  A    between atoms: C_14  and  N_62
REMARK    4  A    between atoms: C_15  and  C_16
REMARK    5  A    between atoms: C_15  and  N_62
REMARK    6  A    between atoms: N_20  and  C_21
REMARK    7  A    between atoms: C_21  and  C_22
REMARK    8  A    between atoms: C_21  and  C_23
REMARK    9  A    between atoms: C_21  and  C_24
REMARK   10  A    between atoms: C_25  and  N_62
REMARK                            x       y       z     vdW  Elec       q    Type
REMARK                         _______ _______ _______ _____ _____    ______ ____
ROOT
ATOM      1  N   UNL     1      -0.190   1.217  -2.884  0.00  0.00    +0.389 N 
ATOM      2  H   UNL     1      -0.206   0.191  -2.835  0.00  0.00    -0.080 HD
ENDROOT
BRANCH   1   3
ATOM      3  C   UNL     1      -0.926   1.764  -1.725  0.00  0.00    -0.068 C 
ATOM      4  C   UNL     1      -0.364   1.143  -0.445  0.00  0.00    -0.015 C 
ATOM      5  C   UNL     1      -1.132   1.683   0.764  0.00  0.00    -0.002 C 
ATOM      6  C   UNL     1      -0.980   3.204   0.826  0.00  0.00    -0.000 C 
ATOM      7  C   UNL     1      -1.542   3.825  -0.454  0.00  0.00    -0.002 C 
ATOM      8  C   UNL     1      -0.774   3.285  -1.663  0.00  0.00    -0.015 C 
ENDBRANCH   1   3
BRANCH   1   9
ATOM      9  C   UNL     1      -0.835   1.648  -4.142  0.00  0.00    -0.037 C 
BRANCH   9  16
ATOM     10  C   UNL     1      -8.344  -1.038  -4.321  0.00  0.00    +0.044 C 
ATOM     11  C   UNL     1      -7.016  -0.336  -4.196  0.00  0.00    -0.048 A 
ATOM     12  C   UNL     1      -6.966   0.951  -3.676  0.00  0.00    +0.004 A 
ATOM     13  C   UNL     1      -5.773   1.605  -3.554  0.00  0.00    +0.010 A 
ATOM     14  C   UNL     1      -4.592   0.974  -3.958  0.00  0.00    -0.001 A 
ATOM     15  C   UNL     1      -3.296   1.644  -3.836  0.00  0.00    +0.017 A 
ATOM     16  C   UNL     1      -2.185   0.985  -4.248  0.00  0.00    +0.001 A 
ATOM     17  C   UNL     1      -2.286  -0.322  -4.771  0.00  0.00    +0.251 A 
ATOM     18  O   UNL     1      -1.275  -0.899  -5.131  0.00  0.00    -0.268 OA
ATOM     19  N   UNL     1      -3.472  -0.947  -4.882  0.00  0.00    -0.322 N 
ATOM     20  H   UNL     1      -3.507  -1.874  -5.257  0.00  0.00    +0.169 HD
ATOM     21  C   UNL     1      -4.639  -0.330  -4.486  0.00  0.00    +0.049 A 
ATOM     22  C   UNL     1      -5.865  -0.976  -4.601  0.00  0.00    +0.029 A 
ENDBRANCH   9  16
ENDBRANCH   1   9
BRANCH   1  23
ATOM     23  C   UNL     1       1.214   1.677  -2.853  0.00  0.00    +0.001 C 
BRANCH  23  24
ATOM     24  C   UNL     1       1.978   0.983  -3.951  0.00  0.00    +0.136 A 
ATOM     25  N   UNL     1       2.054   1.353  -5.206  0.00  0.00    -0.115 NA
ATOM     26  N   UNL     1       2.799   0.505  -5.827  0.00  0.00    -0.023 NA
ATOM     27  N   UNL     1       3.200  -0.397  -5.001  0.00  0.00    -0.043 NA
ATOM     28  N   UNL     1       2.720  -0.134  -3.833  0.00  0.00    -0.226 N 
BRANCH  28  29
ATOM     29  C   UNL     1       2.937  -0.908  -2.608  0.00  0.00    +0.059 C 
ATOM     30  C   UNL     1       1.586  -1.292  -2.001  0.00  0.00    +0.036 C 
ATOM     31  C   UNL     1       3.726  -2.177  -2.940  0.00  0.00    +0.036 C 
ATOM     32  C   UNL     1       3.727  -0.065  -1.605  0.00  0.00    +0.036 C 
ENDBRANCH  28  29
ENDBRANCH  23  24
ENDBRANCH   1  23
TORSDOF 6
