REMARK  Name = ZINC61458666
REMARK  6 active torsions:
REMARK  status: ('A' for Active; 'I' for Inactive)
REMARK    1  A    between atoms: C_1  and  N_2
REMARK    2  A    between atoms: N_2  and  C_3
REMARK    3  A    between atoms: N_2  and  C_8
REMARK    4  A    between atoms: C_3  and  C_4
REMARK    5  A    between atoms: C_11  and  N_16
REMARK    6  A    between atoms: C_13  and  C_14
REMARK                            x       y       z     vdW  Elec       q    Type
REMARK                         _______ _______ _______ _____ _____    ______ ____
ROOT
ATOM      1  C   UNL     1       0.000  -0.691  -1.203  0.00  0.00    +0.040 A 
ATOM      2  C   UNL     1       1.200  -1.026  -1.819  0.00  0.00    +0.026 A 
ATOM      3  C   UNL     1       1.195  -1.709  -3.017  0.00  0.00    +0.034 A 
ATOM      4  C   UNL     1      -0.002  -2.067  -3.618  0.00  0.00    +0.127 A 
ATOM      5  C   UNL     1      -1.202  -1.746  -3.026  0.00  0.00    +0.045 A 
ATOM      6  C   UNL     1      -1.217  -1.058  -1.806  0.00  0.00    +0.037 A 
ENDROOT
BRANCH   4   7
ATOM      7  N   UNL     1       0.011  -2.799  -4.904  0.00  0.00    +0.056 N 
ATOM      8  O   UNL     1       1.063  -3.083  -5.428  0.00  0.00    -0.126 OA
ATOM      9  O   UNL     1      -1.031  -3.114  -5.432  0.00  0.00    -0.126 OA
ENDBRANCH   4   7
BRANCH   1  11
ATOM     10  C   UNL     1      -0.018   1.461   0.010  0.00  0.00    +0.129 C 
ATOM     11  N   UNL     1       0.002  -0.004   0.002  0.00  0.00    -0.332 N 
BRANCH  11  12
ATOM     12  C   UNL     1       0.024  -0.743   1.267  0.00  0.00    +0.108 C 
BRANCH  12  13
ATOM     13  C   UNL     1      -1.411  -1.020   1.720  0.00  0.00    +0.006 C 
ATOM     14  C   UNL     1      -2.019   0.112   2.564  0.00  0.00    +0.005 C 
ATOM     15  C   UNL     1      -2.646  -0.984   3.442  0.00  0.00    +0.001 C 
ATOM     16  C   UNL     1      -1.500  -1.899   2.979  0.00  0.00    +0.005 C 
ENDBRANCH  12  13
ENDBRANCH  11  12
ENDBRANCH   1  11
BRANCH   6  17
ATOM     17  C   UNL     1      -2.491  -0.717  -1.165  0.00  0.00    +0.260 C 
ATOM     18  O   UNL     1      -3.538  -1.036  -1.689  0.00  0.00    -0.296 OA
ENDBRANCH   6  17
TORSDOF 5
