REMARK  Name = ZINC14479135
REMARK  10 active torsions:
REMARK  status: ('A' for Active; 'I' for Inactive)
REMARK    1  A    between atoms: C_1  and  C_2
REMARK    2  A    between atoms: C_5  and  N_9
REMARK    3  A    between atoms: C_7  and  C_8
REMARK    4  A    between atoms: N_9  and  S_10
REMARK    5  A    between atoms: S_10  and  C_13
REMARK    6  A    between atoms: C_26  and  C_29
REMARK    7  A    between atoms: C_32  and  O_37
REMARK    8  A    between atoms: C_33  and  O_35
REMARK    9  A    between atoms: O_35  and  C_36
REMARK   10  A    between atoms: O_37  and  C_38
REMARK                            x       y       z     vdW  Elec       q    Type
REMARK                         _______ _______ _______ _____ _____    ______ ____
ROOT
ATOM      1  C   UNL     1      -7.649   4.364   0.525  0.00  0.00    +0.109 A 
ATOM      2  C   UNL     1      -6.935   3.651   1.471  0.00  0.00    +0.030 A 
ATOM      3  C   UNL     1      -5.622   3.306   1.220  0.00  0.00    +0.025 A 
ATOM      4  C   UNL     1      -5.024   3.674   0.021  0.00  0.00    +0.031 A 
ATOM      5  C   UNL     1      -5.737   4.386  -0.931  0.00  0.00    -0.018 A 
ATOM      6  C   UNL     1      -7.056   4.729  -0.666  0.00  0.00    +0.034 A 
ATOM      7  C   UNL     1      -5.138   4.796  -2.239  0.00  0.00    +0.049 C 
ATOM      8  C   UNL     1      -4.812   6.271  -2.259  0.00  0.00    -0.023 C 
ATOM      9  C   UNL     1      -3.708   6.483  -2.931  0.00  0.00    -0.030 C 
ATOM     10  C   UNL     1      -3.148   5.176  -3.458  0.00  0.00    +0.033 C 
ATOM     11  C   UNL     1      -3.789   4.107  -2.525  0.00  0.00    +0.029 C 
ATOM     12  C   UNL     1      -2.948   4.056  -1.246  0.00  0.00    +0.105 C 
ATOM     13  N   UNL     1      -3.692   3.320  -0.218  0.00  0.00    -0.336 N 
ATOM     14  H   UNL     1      -3.270   2.604   0.284  0.00  0.00    +0.147 HD
ENDROOT
BRANCH  12  15
ATOM     15  C   UNL     1      -1.645   3.353  -1.527  0.00  0.00    -0.023 A 
ATOM     16  C   UNL     1      -1.605   1.973  -1.587  0.00  0.00    +0.009 A 
ATOM     17  C   UNL     1      -0.410   1.323  -1.839  0.00  0.00    +0.050 A 
ATOM     18  C   UNL     1       0.747   2.057  -2.043  0.00  0.00    +0.162 A 
ATOM     19  C   UNL     1       0.706   3.446  -1.988  0.00  0.00    +0.162 A 
ATOM     20  C   UNL     1      -0.493   4.091  -1.729  0.00  0.00    +0.055 A 
BRANCH  19  21
ATOM     21  O   UNL     1       1.839   4.171  -2.187  0.00  0.00    -0.491 OA
ATOM     22  C   UNL     1       1.722   5.593  -2.116  0.00  0.00    +0.277 C 
ENDBRANCH  19  21
BRANCH  18  23
ATOM     23  O   UNL     1       1.922   1.419  -2.297  0.00  0.00    -0.491 OA
ATOM     24  C   UNL     1       1.889  -0.009  -2.339  0.00  0.00    +0.277 C 
ENDBRANCH  18  23
ENDBRANCH  12  15
BRANCH   1  25
ATOM     25  S   UNL     1      -9.324   4.808   0.843  0.00  0.00    +0.072 S 
ATOM     26  O   UNL     1      -9.907   5.120  -0.415  0.00  0.00    -0.150 OA
ATOM     27  O   UNL     1      -9.854   3.807   1.701  0.00  0.00    -0.150 OA
BRANCH  25  28
ATOM     28  N   UNL     1      -9.300   6.215   1.716  0.00  0.00    -0.216 N 
ATOM     29  H   UNL     1      -9.653   6.232   2.619  0.00  0.00    +0.174 HD
BRANCH  28  34
ATOM     30  C   UNL     1      -7.158  10.940  -0.576  0.00  0.00    +0.044 C 
ATOM     31  C   UNL     1      -7.727   9.684   0.033  0.00  0.00    -0.047 A 
ATOM     32  C   UNL     1      -7.012   9.000   0.999  0.00  0.00    +0.005 A 
ATOM     33  C   UNL     1      -7.533   7.852   1.563  0.00  0.00    +0.025 A 
ATOM     34  C   UNL     1      -8.773   7.379   1.151  0.00  0.00    +0.048 A 
ATOM     35  C   UNL     1      -9.488   8.068   0.180  0.00  0.00    +0.028 A 
ATOM     36  C   UNL     1      -8.963   9.218  -0.376  0.00  0.00    -0.046 A 
ATOM     37  C   UNL     1      -9.738   9.966  -1.429  0.00  0.00    +0.044 C 
ENDBRANCH  28  34
ENDBRANCH  25  28
ENDBRANCH   1  25
TORSDOF 6
