REMARK  Name = ZINC08790441
REMARK  5 active torsions:
REMARK  status: ('A' for Active; 'I' for Inactive)
REMARK    1  A    between atoms: CG_7  and  CB_11
REMARK    2  A    between atoms: CB_11  and  CA_12
REMARK    3  A    between atoms: CA_12  and  C_14
REMARK    4  A    between atoms: CA_12  and  N_16
REMARK    5  A    between atoms: C_17  and  C_19
REMARK                            x       y       z     vdW  Elec       q    Type
REMARK                         _______ _______ _______ _____ _____    ______ ____
ROOT
ATOM      1  N   TRP A   1      -0.715   3.835  -1.948  0.00  0.00    -0.300 N 
ATOM      2  C   UNK A   0      -0.534   3.784  -3.283  0.00  0.00    +0.235 C 
ATOM      3  O   UNK A   0      -1.487   3.643  -4.019  0.00  0.00    -0.274 OA
ATOM      4  H   TRP A   1       0.048   3.948  -1.359  0.00  0.00    +0.150 HD
ENDROOT
BRANCH   2   5
ATOM      5  C   UNK A   0       0.853   3.901  -3.860  0.00  0.00    +0.173 C 
ATOM      6  C   UNK A   0       1.462   5.252  -3.415  0.00  0.00    +0.103 C 
ATOM      7  S   UNK A   0       1.592   6.150  -5.018  0.00  0.00    -0.131 S 
ATOM      8  C   UNK A   0       0.465   5.053  -5.978  0.00  0.00    +0.166 C 
ATOM      9  N   UNK A   0       0.770   3.751  -5.314  0.00  0.00    -0.269 N 
ATOM     10  C   UNK A   0       0.890   2.847  -6.310  0.00  0.00    +0.249 C 
ATOM     11  O   UNK A   0       0.766   1.644  -6.183  0.00  0.00    -0.270 OA
ATOM     12  C   UNK A   0       1.193   3.540  -7.577  0.00  0.00    +0.043 A 
ATOM     13  C   UNK A   0       0.957   4.907  -7.389  0.00  0.00    -0.005 A 
ATOM     14  C   UNK A   0       1.176   5.795  -8.417  0.00  0.00    +0.007 A 
ATOM     15  C   UNK A   0       1.613   5.336  -9.648  0.00  0.00    +0.000 A 
ATOM     16  C   UNK A   0       1.827   3.984  -9.851  0.00  0.00    +0.001 A 
ATOM     17  C   UNK A   0       1.615   3.085  -8.826  0.00  0.00    +0.013 A 
ENDBRANCH   2   5
BRANCH   1  18
ATOM     18  CA  TRP A   1      -2.063   3.721  -1.387  0.00  0.00    +0.191 C 
BRANCH  18  19
ATOM     19  C   TRP A   1      -2.722   5.076  -1.383  0.00  0.00    +0.376 C 
ATOM     20  O   TRP A   1      -2.127   6.039  -1.806  0.00  0.00    -0.244 OA
ATOM     21  OXT TRP A   1      -3.971   5.214  -0.910  0.00  0.00    -0.244 OA
ENDBRANCH  18  19
BRANCH  18  22
ATOM     22  CB  TRP A   1      -1.976   3.193   0.046  0.00  0.00    +0.071 C 
BRANCH  22  29
ATOM     23  CZ3 TRP A   1       2.372   1.442  -0.011  0.00  0.00    +0.001 A 
ATOM     24  CH2 TRP A   1       2.396   0.054  -0.019  0.00  0.00    +0.002 A 
ATOM     25  CZ2 TRP A   1       1.224  -0.669  -0.013  0.00  0.00    +0.026 A 
ATOM     26  CE2 TRP A   1       0.002  -0.004   0.002  0.00  0.00    +0.047 A 
ATOM     27  CD2 TRP A   1      -0.017   1.403   0.010  0.00  0.00    +0.003 A 
ATOM     28  CE3 TRP A   1       1.183   2.115   0.002  0.00  0.00    +0.010 A 
ATOM     29  CG  TRP A   1      -1.430   1.788   0.031  0.00  0.00    -0.020 A 
ATOM     30  CD1 TRP A   1      -2.147   0.653   0.026  0.00  0.00    +0.087 A 
ATOM     31  NE1 TRP A   1      -1.308  -0.428   0.012  0.00  0.00    -0.360 N 
ATOM     32  HE1 TRP A   1      -1.593  -1.355   0.010  0.00  0.00    +0.165 HD
ENDBRANCH  22  29
ENDBRANCH  18  22
ENDBRANCH   1  18
TORSDOF 5
