REMARK  Name = ZINC39293125
REMARK  10 active torsions:
REMARK  status: ('A' for Active; 'I' for Inactive)
REMARK    1  A    between atoms: C_1  and  O_2
REMARK    2  A    between atoms: O_2  and  C_3
REMARK    3  A    between atoms: N_15  and  C_17
REMARK    4  A    between atoms: C_17  and  C_18
REMARK    5  A    between atoms: C_18  and  C_19
REMARK    6  A    between atoms: C_19  and  C_20
REMARK    7  A    between atoms: C_20  and  N_21
REMARK    8  A    between atoms: N_21  and  S_22
REMARK    9  A    between atoms: S_22  and  C_25
REMARK   10  A    between atoms: C_30  and  C_31
REMARK                            x       y       z     vdW  Elec       q    Type
REMARK                         _______ _______ _______ _____ _____    ______ ____
ROOT
ATOM      1  C   UNL     1      -2.785  -1.686  -2.021  0.00  0.00    +0.162 A 
ATOM      2  C   UNL     1      -3.990  -1.009  -1.874  0.00  0.00    +0.049 A 
ATOM      3  C   UNL     1      -5.159  -1.672  -1.586  0.00  0.00    +0.006 A 
ATOM      4  C   UNL     1      -5.207  -3.068  -1.439  0.00  0.00    -0.056 A 
ATOM      5  C   UNL     1      -4.036  -3.734  -1.622  0.00  0.00    +0.013 A 
ATOM      6  C   UNL     1      -2.828  -3.081  -1.904  0.00  0.00    +0.167 A 
ATOM      7  O   UNL     1      -1.805  -3.948  -2.076  0.00  0.00    -0.483 OA
ATOM      8  C   UNL     1      -2.196  -5.228  -1.561  0.00  0.00    +0.195 C 
ATOM      9  C   UNL     1      -3.722  -5.220  -1.667  0.00  0.00    +0.053 C 
ATOM     10  C   UNL     1      -4.338  -5.939  -0.484  0.00  0.00    +0.001 C 
ATOM     11  C   UNL     1      -5.837  -5.891  -0.501  0.00  0.00    -0.077 C 
ATOM     12  N   UNL     1      -6.407  -4.668  -0.013  0.00  0.00    +0.382 N 
ATOM     13  C   UNL     1      -6.533  -3.624  -1.012  0.00  0.00    -0.043 C 
ATOM     14  C   UNL     1      -4.230  -5.774  -2.957  0.00  0.00    -0.008 C 
ATOM     15  C   UNL     1      -3.481  -6.278  -3.927  0.00  0.00    +0.043 C 
ATOM     16  C   UNL     1      -2.023  -6.328  -3.744  0.00  0.00    +0.159 C 
ATOM     17  O   UNL     1      -1.256  -6.341  -4.684  0.00  0.00    -0.293 OA
ATOM     18  C   UNL     1      -1.555  -6.361  -2.342  0.00  0.00    +0.124 C 
ATOM     19  H   UNL     1      -5.829  -4.322   0.739  0.00  0.00    -0.081 HD
ENDROOT
BRANCH   1  21
ATOM     20  C   UNL     1      -1.694   0.398  -2.371  0.00  0.00    +0.277 C 
ATOM     21  O   UNL     1      -1.623  -1.026  -2.271  0.00  0.00    -0.491 OA
ENDBRANCH   1  21
BRANCH  12  22
ATOM     22  C   UNL     1      -7.741  -4.958   0.528  0.00  0.00    -0.078 C 
BRANCH  22  23
ATOM     23  C   UNL     1      -7.606  -5.834   1.775  0.00  0.00    -0.017 C 
BRANCH  23  24
ATOM     24  C   UNL     1      -8.997  -6.159   2.324  0.00  0.00    +0.015 C 
BRANCH  24  25
ATOM     25  C   UNL     1      -8.861  -7.035   3.571  0.00  0.00    +0.106 C 
BRANCH  25  26
ATOM     26  N   UNL     1     -10.193  -7.346   4.096  0.00  0.00    -0.190 NA
ATOM     27  H   UNL     1     -10.963  -6.837   3.799  0.00  0.00    +0.148 HD
BRANCH  26  28
ATOM     28  S   UNL     1     -10.384  -8.568   5.197  0.00  0.00    +0.059 S 
ATOM     29  O   UNL     1     -11.763  -8.593   5.541  0.00  0.00    -0.153 OA
ATOM     30  O   UNL     1      -9.711  -9.702   4.667  0.00  0.00    -0.153 OA
BRANCH  28  31
ATOM     31  C   UNL     1      -9.510  -8.099   6.653  0.00  0.00    +0.119 A 
ATOM     32  C   UNL     1      -8.436  -8.848   7.087  0.00  0.00    +0.029 A 
ATOM     33  C   UNL     1      -7.749  -8.481   8.230  0.00  0.00    +0.002 A 
ATOM     34  C   UNL     1      -8.132  -7.361   8.946  0.00  0.00    +0.001 A 
ATOM     35  C   UNL     1      -9.203  -6.602   8.525  0.00  0.00    +0.017 A 
ATOM     36  C   UNL     1      -9.899  -6.963   7.368  0.00  0.00    +0.089 A 
BRANCH  36  37
ATOM     37  C   UNL     1     -11.042  -6.152   6.907  0.00  0.00    +0.388 C 
ATOM     38  O   UNL     1     -11.468  -5.243   7.605  0.00  0.00    -0.241 OA
ATOM     39  O   UNL     1     -11.563  -6.389   5.826  0.00  0.00    -0.241 OA
ENDBRANCH  36  37
ENDBRANCH  28  31
ENDBRANCH  26  28
ENDBRANCH  25  26
ENDBRANCH  24  25
ENDBRANCH  23  24
ENDBRANCH  22  23
ENDBRANCH  12  22
TORSDOF 9
