REMARK  Name = ZINC20702501
REMARK  10 active torsions:
REMARK  status: ('A' for Active; 'I' for Inactive)
REMARK    1  A    between atoms: C_1  and  C_2
REMARK    2  A    between atoms: C_2  and  O_4
REMARK    3  A    between atoms: O_4  and  C_5
REMARK    4  A    between atoms: C_8  and  C_13
REMARK    5  A    between atoms: C_10  and  O_11
REMARK    6  A    between atoms: O_11  and  C_12
REMARK    7  A    between atoms: C_24  and  S_29
REMARK    8  A    between atoms: S_29  and  N_32
REMARK    9  A    between atoms: N_32  and  C_33
REMARK   10  A    between atoms: N_32  and  C_34
REMARK                            x       y       z     vdW  Elec       q    Type
REMARK                         _______ _______ _______ _____ _____    ______ ____
ROOT
ATOM      1  C   UNL     1      -0.442  -6.283   0.005  0.00  0.00    +0.105 C 
ATOM      2  C   UNL     1      -0.027  -6.757  -1.376  0.00  0.00    +0.029 C 
ATOM      3  C   UNL     1      -1.066  -6.638  -2.499  0.00  0.00    +0.033 C 
ATOM      4  C   UNL     1      -0.664  -7.796  -3.415  0.00  0.00    -0.030 C 
ATOM      5  C   UNL     1      -0.039  -8.733  -2.713  0.00  0.00    -0.023 C 
ATOM      6  C   UNL     1       0.031  -8.312  -1.281  0.00  0.00    +0.049 C 
ATOM      7  C   UNL     1       1.156  -8.669  -0.390  0.00  0.00    -0.018 A 
ATOM      8  C   UNL     1       1.934  -9.789  -0.592  0.00  0.00    +0.034 A 
ATOM      9  C   UNL     1       2.966 -10.088   0.278  0.00  0.00    +0.106 A 
ATOM     10  C   UNL     1       3.221  -9.261   1.357  0.00  0.00    +0.030 A 
ATOM     11  C   UNL     1       2.452  -8.136   1.565  0.00  0.00    +0.025 A 
ATOM     12  C   UNL     1       1.416  -7.822   0.694  0.00  0.00    +0.031 A 
ATOM     13  N   UNL     1       0.670  -6.655   0.908  0.00  0.00    -0.336 N 
ATOM     14  H   UNL     1       0.886  -6.081   1.659  0.00  0.00    +0.147 HD
ENDROOT
BRANCH   1  18
ATOM     15  C   UNL     1      -0.981  -2.040   0.008  0.00  0.00    +0.173 A 
ATOM     16  C   UNL     1       0.294  -2.580   0.058  0.00  0.00    +0.050 A 
ATOM     17  C   UNL     1       0.466  -3.951   0.057  0.00  0.00    +0.009 A 
ATOM     18  C   UNL     1      -0.634  -4.788   0.006  0.00  0.00    -0.023 A 
ATOM     19  C   UNL     1      -1.909  -4.257  -0.044  0.00  0.00    +0.055 A 
ATOM     20  C   UNL     1      -2.088  -2.883  -0.038  0.00  0.00    +0.163 A 
BRANCH  20  21
ATOM     21  O   UNL     1      -3.342  -2.358  -0.081  0.00  0.00    -0.491 OA
ATOM     22  C   UNL     1      -4.430  -3.283  -0.127  0.00  0.00    +0.277 C 
ENDBRANCH  20  21
BRANCH  15  23
ATOM     23  O   UNL     1      -1.151  -0.691   0.009  0.00  0.00    -0.422 OA
BRANCH  23  25
ATOM     24  C   UNL     1      -1.447   1.419   1.257  0.00  0.00    +0.136 C 
ATOM     25  C   UNL     1      -1.366  -0.084   1.187  0.00  0.00    +0.309 C 
ATOM     26  O   UNL     1      -1.495  -0.743   2.192  0.00  0.00    -0.251 OA
ENDBRANCH  23  25
ENDBRANCH  15  23
ENDBRANCH   1  18
BRANCH   9  27
ATOM     27  S   UNL     1       3.957 -11.520   0.010  0.00  0.00    +0.061 S 
ATOM     28  O   UNL     1       4.509 -11.873   1.271  0.00  0.00    -0.153 OA
ATOM     29  O   UNL     1       3.170 -12.421  -0.756  0.00  0.00    -0.153 OA
BRANCH  27  30
ATOM     30  N   UNL     1       5.226 -11.065  -0.951  0.00  0.00    -0.177 NA
ATOM     31  C   UNL     1       6.470 -10.584  -0.344  0.00  0.00    +0.132 C 
BRANCH  30  32
ATOM     32  C   UNL     1       5.106 -11.142  -2.409  0.00  0.00    +0.080 C 
ATOM     33  C   UNL     1       6.175 -12.088  -2.960  0.00  0.00    +0.020 C 
ATOM     34  C   UNL     1       6.049 -12.169  -4.483  0.00  0.00    +0.002 C 
ATOM     35  C   UNL     1       6.241 -10.775  -5.085  0.00  0.00    +0.000 C 
ATOM     36  C   UNL     1       5.171  -9.830  -4.535  0.00  0.00    +0.002 C 
ATOM     37  C   UNL     1       5.297  -9.749  -3.012  0.00  0.00    +0.020 C 
ENDBRANCH  30  32
ENDBRANCH  27  30
ENDBRANCH   9  27
TORSDOF 7
