REMARK  Name = ZINC15229886
REMARK  7 active torsions:
REMARK  status: ('A' for Active; 'I' for Inactive)
REMARK    1  A    between atoms: C_1  and  O_2
REMARK    2  A    between atoms: O_2  and  C_3
REMARK    3  A    between atoms: C_6  and  N_9
REMARK    4  A    between atoms: C_15  and  C_16
REMARK    5  A    between atoms: C_18  and  O_24
REMARK    6  A    between atoms: C_19  and  O_23
REMARK    7  A    between atoms: O_24  and  C_25
REMARK                            x       y       z     vdW  Elec       q    Type
REMARK                         _______ _______ _______ _____ _____    ______ ____
ROOT
ATOM      1  N   UNL     1      -4.373  -3.550   0.870  0.00  0.00    -0.226 NA
ATOM      2  C   UNL     1      -4.696  -4.347  -0.123  0.00  0.00    +0.166 C 
ATOM      3  N   UNL     1      -5.850  -5.080  -0.294  0.00  0.00    -0.260 N 
ATOM      4  C   UNL     1      -6.014  -5.839  -1.364  0.00  0.00    +0.256 C 
ATOM      5  O   UNL     1      -7.027  -6.493  -1.531  0.00  0.00    -0.269 OA
ATOM      6  C   UNL     1      -4.913  -5.858  -2.346  0.00  0.00    +0.078 C 
ATOM      7  C   UNL     1      -4.815  -6.537  -3.517  0.00  0.00    +0.028 C 
ATOM      8  S   UNL     1      -3.748  -4.738  -1.585  0.00  0.00    -0.049 S 
ATOM      9  H   UNL     1      -6.549  -5.039   0.378  0.00  0.00    +0.157 HD
ENDROOT
BRANCH   7  10
ATOM     10  C   UNL     1      -3.551  -6.535  -4.264  0.00  0.00    -0.019 A 
ATOM     11  C   UNL     1      -2.361  -6.154  -3.630  0.00  0.00    +0.057 A 
ATOM     12  C   UNL     1      -1.175  -6.155  -4.337  0.00  0.00    +0.163 A 
ATOM     13  C   UNL     1      -1.163  -6.534  -5.679  0.00  0.00    +0.173 A 
ATOM     14  C   UNL     1      -2.341  -6.911  -6.309  0.00  0.00    +0.063 A 
ATOM     15  C   UNL     1      -3.530  -6.919  -5.610  0.00  0.00    +0.027 A 
ATOM     16 BR   UNL     1      -2.315  -7.422  -8.130  0.00  0.00    -0.046 Br
BRANCH  13  17
ATOM     17  O   UNL     1       0.006  -6.533  -6.372  0.00  0.00    -0.503 OA
ATOM     18  H   UNL     1       0.486  -7.372  -6.335  0.00  0.00    +0.292 HD
ENDBRANCH  13  17
BRANCH  12  19
ATOM     19  O   UNL     1      -0.019  -5.785  -3.725  0.00  0.00    -0.491 OA
ATOM     20  C   UNL     1      -0.105  -5.409  -2.349  0.00  0.00    +0.277 C 
ENDBRANCH  12  19
ENDBRANCH   7  10
BRANCH   1  24
ATOM     21  C   UNL     1      -0.736  -1.571   0.843  0.00  0.00    +0.120 A 
ATOM     22  C   UNL     1      -1.894  -0.886   1.185  0.00  0.00    +0.048 A 
ATOM     23  C   UNL     1      -3.107  -1.541   1.196  0.00  0.00    +0.031 A 
ATOM     24  C   UNL     1      -3.170  -2.896   0.861  0.00  0.00    +0.067 A 
ATOM     25  C   UNL     1      -2.003  -3.581   0.517  0.00  0.00    +0.031 A 
ATOM     26  C   UNL     1      -0.795  -2.916   0.504  0.00  0.00    +0.048 A 
BRANCH  21  28
ATOM     27  C   UNL     1       0.447   0.462   1.192  0.00  0.00    +0.277 C 
ATOM     28  O   UNL     1       0.459  -0.921   0.833  0.00  0.00    -0.495 OA
ENDBRANCH  21  28
ENDBRANCH   1  24
TORSDOF 5
