REMARK  Name = ZINC13012628
REMARK  6 active torsions:
REMARK  status: ('A' for Active; 'I' for Inactive)
REMARK    1  A    between atoms: C_3  and  N_9
REMARK    2  A    between atoms: C_6  and  C_7
REMARK    3  A    between atoms: C_10  and  C_12
REMARK    4  A    between atoms: N_18  and  S_19
REMARK    5  A    between atoms: S_19  and  C_22
REMARK    6  A    between atoms: C_25  and  N_28
REMARK                            x       y       z     vdW  Elec       q    Type
REMARK                         _______ _______ _______ _____ _____    ______ ____
ROOT
ATOM      1  C   UNL     1      -1.563   7.949  -0.189  0.00  0.00    +0.166 C 
ATOM      2  C   UNL     1      -0.705   8.402   0.997  0.00  0.00    +0.030 C 
ATOM      3  C   UNL     1      -1.038   9.857   1.336  0.00  0.00    +0.003 C 
ATOM      4  C   UNL     1      -2.511   9.964   1.737  0.00  0.00    +0.017 C 
ATOM      5  C   UNL     1      -3.389   9.529   0.559  0.00  0.00    +0.110 C 
ATOM      6  N   UNL     1      -2.977   8.185   0.133  0.00  0.00    -0.165 NA
ENDROOT
BRANCH   1   8
ATOM      7  N   UNL     1      -1.325   6.009  -1.704  0.00  0.00    -0.284 N 
ATOM      8  C   UNL     1      -1.340   6.480  -0.442  0.00  0.00    +0.236 C 
ATOM      9  O   UNL     1      -1.176   5.723   0.491  0.00  0.00    -0.274 OA
ATOM     10  H   UNL     1      -1.396   6.622  -2.452  0.00  0.00    +0.155 HD
BRANCH   7  13
ATOM     11  C   UNL     1      -0.443   2.829  -3.313  0.00  0.00    +0.020 A 
ATOM     12  C   UNL     1      -0.568   4.181  -3.084  0.00  0.00    +0.024 A 
ATOM     13  C   UNL     1      -1.205   4.638  -1.935  0.00  0.00    +0.034 A 
ATOM     14  C   UNL     1      -1.724   3.731  -1.016  0.00  0.00    +0.024 A 
ATOM     15  C   UNL     1      -1.608   2.378  -1.241  0.00  0.00    +0.020 A 
ATOM     16  C   UNL     1      -0.968   1.915  -2.394  0.00  0.00    +0.052 A 
BRANCH  16  17
ATOM     17  C   UNL     1      -0.844   0.508  -2.631  0.00  0.00    +0.099 C 
ATOM     18  N   UNL     1      -0.746  -0.608  -2.818  0.00  0.00    -0.191 NA
ENDBRANCH  16  17
ENDBRANCH   7  13
ENDBRANCH   1   8
BRANCH   6  19
ATOM     19  S   UNL     1      -4.084   6.959   0.018  0.00  0.00    +0.062 S 
ATOM     20  O   UNL     1      -3.384   5.753   0.288  0.00  0.00    -0.153 OA
ATOM     21  O   UNL     1      -5.220   7.366   0.769  0.00  0.00    -0.153 OA
BRANCH  19  22
ATOM     22  C   UNL     1      -4.597   6.877  -1.666  0.00  0.00    +0.106 A 
ATOM     23  C   UNL     1      -5.566   7.743  -2.137  0.00  0.00    +0.031 A 
ATOM     24  C   UNL     1      -5.965   7.682  -3.459  0.00  0.00    +0.034 A 
ATOM     25  C   UNL     1      -5.402   6.748  -4.308  0.00  0.00    +0.126 A 
ATOM     26  C   UNL     1      -4.437   5.878  -3.836  0.00  0.00    +0.034 A 
ATOM     27  C   UNL     1      -4.034   5.943  -2.515  0.00  0.00    +0.031 A 
BRANCH  25  28
ATOM     28  N   UNL     1      -5.834   6.678  -5.722  0.00  0.00    +0.056 N 
ATOM     29  O   UNL     1      -5.338   5.854  -6.470  0.00  0.00    -0.126 OA
ATOM     30  O   UNL     1      -6.684   7.444  -6.138  0.00  0.00    -0.126 OA
ENDBRANCH  25  28
ENDBRANCH  19  22
ENDBRANCH   6  19
TORSDOF 6
