REMARK  Name = ZINC35486623
REMARK  7 active torsions:
REMARK  status: ('A' for Active; 'I' for Inactive)
REMARK    1  A    between atoms: C_1  and  N_2
REMARK    2  A    between atoms: N_2  and  C_3
REMARK    3  A    between atoms: N_2  and  C_4
REMARK    4  A    between atoms: C_4  and  C_5
REMARK    5  A    between atoms: C_5  and  N_6
REMARK    6  A    between atoms: C_7  and  C_23
REMARK    7  A    between atoms: C_26  and  O_29
REMARK                            x       y       z     vdW  Elec       q    Type
REMARK                         _______ _______ _______ _____ _____    ______ ____
ROOT
ATOM      1  N   UNL     1      -2.733  -2.544  -0.111  0.00  0.00    -0.285 N 
ATOM      2  C   UNL     1      -3.499  -2.941   1.081  0.00  0.00    +0.144 C 
ATOM      3  C   UNL     1      -4.833  -3.387   0.578  0.00  0.00    +0.072 A 
ATOM      4  C   UNL     1      -6.010  -3.900   1.286  0.00  0.00    +0.199 A 
ATOM      5  O   UNL     1      -6.121  -3.879   2.499  0.00  0.00    -0.287 OA
ATOM      6  C   UNL     1      -7.054  -4.448   0.384  0.00  0.00    +0.065 A 
ATOM      7  C   UNL     1      -8.140  -5.151   0.906  0.00  0.00    +0.030 A 
ATOM      8  C   UNL     1      -9.097  -5.657   0.053  0.00  0.00    +0.019 A 
ATOM      9  C   UNL     1      -8.977  -5.467  -1.318  0.00  0.00    +0.019 A 
ATOM     10  C   UNL     1      -7.911  -4.773  -1.843  0.00  0.00    +0.048 A 
ATOM     11  C   UNL     1      -6.931  -4.249  -1.001  0.00  0.00    +0.140 A 
ATOM     12  O   UNL     1      -5.899  -3.563  -1.543  0.00  0.00    -0.450 OA
ATOM     13  C   UNL     1      -4.832  -3.251  -0.781  0.00  0.00    +0.199 A 
ATOM     14  C   UNL     1      -3.520  -2.722  -1.192  0.00  0.00    +0.283 C 
ATOM     15  O   UNL     1      -3.193  -2.485  -2.338  0.00  0.00    -0.267 OA
ATOM     16 BR   UNL     1     -10.573  -6.612   0.749  0.00  0.00    -0.050 Br
ENDROOT
BRANCH   2  17
ATOM     17  C   UNL     1      -3.658  -1.767   2.012  0.00  0.00    -0.022 A 
ATOM     18  C   UNL     1      -3.918  -0.510   1.499  0.00  0.00    +0.009 A 
ATOM     19  C   UNL     1      -4.064   0.568   2.350  0.00  0.00    +0.046 A 
ATOM     20  C   UNL     1      -3.950   0.389   3.721  0.00  0.00    +0.117 A 
ATOM     21  C   UNL     1      -3.690  -0.874   4.234  0.00  0.00    +0.046 A 
ATOM     22  C   UNL     1      -3.550  -1.950   3.378  0.00  0.00    +0.009 A 
BRANCH  20  23
ATOM     23  O   UNL     1      -4.093   1.448   4.561  0.00  0.00    -0.507 OA
ATOM     24  H   UNL     1      -5.002   1.597   4.855  0.00  0.00    +0.292 HD
ENDBRANCH  20  23
ENDBRANCH   2  17
BRANCH   1  25
ATOM     25  C   UNL     1      -1.358  -2.037  -0.122  0.00  0.00    +0.090 C 
BRANCH  25  26
ATOM     26  C   UNL     1      -1.376  -0.512   0.012  0.00  0.00    -0.060 C 
BRANCH  26  28
ATOM     27  C   UNL     1      -0.018   1.465   0.010  0.00  0.00    -0.097 C 
ATOM     28  N   UNL     1       0.002  -0.004   0.002  0.00  0.00    +0.377 N 
ATOM     29  C   UNL     1       0.713  -0.491   1.192  0.00  0.00    -0.097 C 
ATOM     30  H   UNL     1       0.474  -0.330  -0.828  0.00  0.00    -0.083 HD
ENDBRANCH  26  28
ENDBRANCH  25  26
ENDBRANCH   1  25
TORSDOF 5
