REMARK  Name = ZINC09100272
REMARK  7 active torsions:
REMARK  status: ('A' for Active; 'I' for Inactive)
REMARK    1  A    between atoms: C_1  and  C_2
REMARK    2  A    between atoms: C_2  and  C_4
REMARK    3  A    between atoms: C_2  and  N_55
REMARK    4  A    between atoms: C_7  and  S_16
REMARK    5  A    between atoms: N_8  and  C_9
REMARK    6  A    between atoms: S_16  and  C_17
REMARK    7  A    between atoms: C_17  and  C_18
REMARK                            x       y       z     vdW  Elec       q    Type
REMARK                         _______ _______ _______ _____ _____    ______ ____
ROOT
ATOM      1  C   UNL     1      -0.438  -0.843   0.991  0.00  0.00    +0.125 A 
ATOM      2  N   UNL     1      -0.239  -2.064   0.581  0.00  0.00    -0.135 NA
ATOM      3  N   UNL     1       0.293  -2.056  -0.589  0.00  0.00    -0.122 NA
ATOM      4  C   UNL     1       0.459  -0.819  -0.997  0.00  0.00    +0.196 A 
ATOM      5  N   UNL     1       0.002  -0.004   0.002  0.00  0.00    -0.275 N 
ENDROOT
BRANCH   5   6
ATOM      6  C   UNL     1      -0.017   1.399   0.010  0.00  0.00    +0.050 A 
ATOM      7  C   UNL     1      -1.228   2.077   0.019  0.00  0.00    +0.028 A 
ATOM      8  C   UNL     1      -1.244   3.458   0.033  0.00  0.00    +0.022 A 
ATOM      9  C   UNL     1      -0.054   4.165   0.025  0.00  0.00    +0.041 A 
ATOM     10  C   UNL     1       1.154   3.491   0.010  0.00  0.00    +0.022 A 
ATOM     11  C   UNL     1       1.175   2.110   0.002  0.00  0.00    +0.028 A 
ATOM     12 CL   UNL     1      -0.078   5.901   0.035  0.00  0.00    -0.084 Cl
ENDBRANCH   5   6
BRANCH   1  14
ATOM     13  C   UNL     1      -0.016  -0.638   3.426  0.00  0.00    -0.005 C 
ATOM     14  C   UNL     1      -1.042  -0.431   2.309  0.00  0.00    -0.002 C 
BRANCH  14  20
ATOM     15  C   UNL     1      -3.197  -1.153   1.478  0.00  0.00    -0.078 C 
ATOM     16  C   UNL     1      -4.353  -2.126   1.725  0.00  0.00    -0.019 C 
ATOM     17  C   UNL     1      -5.030  -1.779   3.053  0.00  0.00    -0.004 C 
ATOM     18  C   UNL     1      -3.992  -1.839   4.177  0.00  0.00    -0.019 C 
ATOM     19  C   UNL     1      -2.847  -0.875   3.859  0.00  0.00    -0.078 C 
ATOM     20  N   UNL     1      -2.222  -1.277   2.582  0.00  0.00    +0.386 N 
ATOM     21  H   UNL     1      -1.921  -2.256   2.652  0.00  0.00    -0.081 HD
ENDBRANCH  14  20
ENDBRANCH   1  14
BRANCH   4  22
ATOM     22  S   UNL     1       1.143  -0.306  -2.538  0.00  0.00    -0.078 S 
BRANCH  22  23
ATOM     23  C   UNL     1       1.494  -1.920  -3.279  0.00  0.00    +0.151 C 
BRANCH  23  24
ATOM     24  C   UNL     1       2.103  -1.724  -4.643  0.00  0.00    +0.121 A 
ATOM     25  N   UNL     1       2.439  -2.826  -5.365  0.00  0.00    -0.309 N 
ATOM     26  H   UNL     1       2.287  -3.713  -5.003  0.00  0.00    +0.170 HD
ATOM     27  C   UNL     1       2.987  -2.672  -6.594  0.00  0.00    +0.266 A 
ATOM     28  O   UNL     1       3.300  -3.641  -7.266  0.00  0.00    -0.267 OA
ATOM     29  C   UNL     1       3.185  -1.376  -7.069  0.00  0.00    +0.102 A 
ATOM     30  C   UNL     1       2.829  -0.253  -6.302  0.00  0.00    +0.085 A 
ATOM     31  N   UNL     1       2.276  -0.515  -5.072  0.00  0.00    -0.232 NA
ATOM     32  C   UNL     1       3.082   0.990  -6.898  0.00  0.00    +0.036 A 
ATOM     33  C   UNL     1       3.633   1.054  -8.130  0.00  0.00    +0.048 A 
ATOM     34  S   UNL     1       3.843  -0.667  -8.556  0.00  0.00    -0.090 S 
ENDBRANCH  23  24
ENDBRANCH  22  23
ENDBRANCH   4  22
TORSDOF 6
