REMARK  Name = ZINC07078083
REMARK  4 active torsions:
REMARK  status: ('A' for Active; 'I' for Inactive)
REMARK    1  A    between atoms: C_4  and  C_7
REMARK    2  A    between atoms: C_14  and  N_29
REMARK    3  A    between atoms: C_15  and  C_27
REMARK    4  A    between atoms: C_16  and  C_18
REMARK                            x       y       z     vdW  Elec       q    Type
REMARK                         _______ _______ _______ _____ _____    ______ ____
ROOT
ATOM      1  C   UNL     1       3.992  -0.942  -0.186  0.00  0.00    +0.100 A 
ATOM      2  C   UNL     1       4.136  -2.037   0.671  0.00  0.00    +0.054 A 
ATOM      3  C   UNL     1       5.407  -2.515   0.535  0.00  0.00    +0.223 A 
ATOM      4  N   UNL     1       6.039  -1.748  -0.377  0.00  0.00    -0.246 N 
ATOM      5  H   UNL     1       6.955  -1.855  -0.676  0.00  0.00    +0.192 HD
ATOM      6  N   UNL     1       5.135  -0.770  -0.822  0.00  0.00    -0.171 NA
ATOM      7  O   UNL     1       5.869  -3.580   1.238  0.00  0.00    -0.423 OA
ATOM      8  C   UNL     1       5.133  -4.002   2.287  0.00  0.00    +0.200 C 
ATOM      9  C   UNL     1       3.861  -3.610   2.519  0.00  0.00    +0.098 C 
ATOM     10  C   UNL     1       3.131  -2.652   1.611  0.00  0.00    +0.102 C 
ENDROOT
BRANCH  10  11
ATOM     11  C   UNL     1       2.086  -3.397   0.821  0.00  0.00    -0.031 A 
ATOM     12  C   UNL     1       2.466  -4.391  -0.061  0.00  0.00    +0.008 A 
ATOM     13  C   UNL     1       1.511  -5.077  -0.787  0.00  0.00    +0.050 A 
ATOM     14  C   UNL     1       0.169  -4.769  -0.634  0.00  0.00    +0.166 A 
ATOM     15  C   UNL     1      -0.214  -3.767   0.254  0.00  0.00    +0.167 A 
ATOM     16  C   UNL     1       0.749  -3.087   0.983  0.00  0.00    +0.054 A 
ATOM     17  O   UNL     1      -1.574  -3.654   0.224  0.00  0.00    -0.453 OA
ATOM     18  C   UNL     1      -1.988  -4.313  -0.987  0.00  0.00    +0.466 C 
ATOM     19  O   UNL     1      -0.951  -5.284  -1.220  0.00  0.00    -0.453 OA
ENDBRANCH  10  11
BRANCH   1  23
ATOM     20  C   UNL     1       0.481   1.408  -0.673  0.00  0.00    +0.000 A 
ATOM     21  C   UNL     1       0.877   1.015   0.592  0.00  0.00    +0.001 A 
ATOM     22  C   UNL     1       2.015   0.252   0.756  0.00  0.00    +0.010 A 
ATOM     23  C   UNL     1       2.766  -0.122  -0.356  0.00  0.00    +0.003 A 
ATOM     24  C   UNL     1       2.363   0.276  -1.629  0.00  0.00    +0.010 A 
ATOM     25  C   UNL     1       1.223   1.039  -1.781  0.00  0.00    +0.001 A 
ENDBRANCH   1  23
BRANCH   8  26
ATOM     26  N   UNL     1       5.710  -4.881   3.169  0.00  0.00    -0.328 N 
ATOM     27  H   UNL     1       6.622  -5.180   3.029  0.00  0.00    +0.145 HD
ATOM     28  H   UNL     1       5.207  -5.202   3.933  0.00  0.00    +0.145 HD
ENDBRANCH   8  26
BRANCH   9  29
ATOM     29  C   UNL     1       3.180  -4.123   3.670  0.00  0.00    +0.101 C 
ATOM     30  N   UNL     1       2.640  -4.530   4.583  0.00  0.00    -0.191 NA
ENDBRANCH   9  29
TORSDOF 4
