REMARK  Name = ZINC25011807
REMARK  7 active torsions:
REMARK  status: ('A' for Active; 'I' for Inactive)
REMARK    1  A    between atoms: C_1  and  C_2
REMARK    2  A    between atoms: C_3  and  C_16
REMARK    3  A    between atoms: C_16  and  C_17
REMARK    4  A    between atoms: C_17  and  C_18
REMARK    5  A    between atoms: C_23  and  C_26
REMARK    6  A    between atoms: C_26  and  N_27
REMARK    7  A    between atoms: C_30  and  C_33
REMARK                            x       y       z     vdW  Elec       q    Type
REMARK                         _______ _______ _______ _____ _____    ______ ____
ROOT
ATOM      1  C   UNL     1       5.396   3.123   1.406  0.00  0.00    +0.219 C 
ATOM      2  O   UNL     1       5.855   3.525   0.357  0.00  0.00    -0.275 OA
ATOM      3  N   UNL     1       6.034   3.385   2.564  0.00  0.00    -0.265 N 
ATOM      4  C   UNL     1       7.216   4.115   2.557  0.00  0.00    +0.164 A 
ATOM      5  N   UNL     1       7.975   4.474   3.575  0.00  0.00    -0.231 NA
ATOM      6  C   UNL     1       9.080   5.169   3.391  0.00  0.00    +0.034 A 
ATOM      7  C   UNL     1       9.419   5.522   2.127  0.00  0.00    +0.070 A 
ATOM      8  S   UNL     1       8.070   4.796   1.207  0.00  0.00    -0.060 S 
ATOM      9  H   UNL     1       5.618   3.021   3.515  0.00  0.00    +0.157 HD
ENDROOT
BRANCH   1  10
ATOM     10  C   UNL     1       4.114   2.332   1.413  0.00  0.00    +0.101 C 
BRANCH  10  11
ATOM     11  C   UNL     1       3.601   2.178  -0.020  0.00  0.00    +0.051 C 
BRANCH  11  14
ATOM     12  C   UNL     1       1.054   3.528   0.010  0.00  0.00    +0.066 C 
ATOM     13  C   UNL     1       1.111   2.022   0.002  0.00  0.00    +0.050 A 
ATOM     14  C   UNL     1       2.319   1.387  -0.013  0.00  0.00    +0.038 A 
ATOM     15  C   UNL     1       2.347  -0.019  -0.020  0.00  0.00    +0.256 A 
ATOM     16  O   UNL     1       3.409  -0.620  -0.033  0.00  0.00    -0.267 OA
ATOM     17  N   UNL     1       1.176  -0.692  -0.012  0.00  0.00    -0.295 N 
ATOM     18  H   UNL     1       1.173  -1.792  -0.018  0.00  0.00    +0.172 HD
ATOM     19  C   UNL     1       0.002  -0.004   0.002  0.00  0.00    +0.199 A 
ATOM     20  N   UNL     1      -0.016   1.314   0.009  0.00  0.00    -0.221 NA
ATOM     21  N   UNL     1      -1.181  -0.693   0.010  0.00  0.00    -0.297 N 
ATOM     22  C   UNL     1      -1.215  -1.693  -1.068  0.00  0.00    +0.136 C 
ATOM     23  C   UNL     1      -2.527  -2.478  -0.986  0.00  0.00    +0.179 C 
ATOM     24  O   UNL     1      -3.627  -1.568  -1.057  0.00  0.00    -0.377 OA
ATOM     25  C   UNL     1      -3.626  -0.581  -0.022  0.00  0.00    +0.179 C 
ATOM     26  C   UNL     1      -2.325   0.224  -0.094  0.00  0.00    +0.136 C 
ENDBRANCH  11  14
ENDBRANCH  10  11
ENDBRANCH   1  10
BRANCH   6  27
ATOM     27  C   UNL     1       9.943   5.568   4.561  0.00  0.00    -0.022 C 
BRANCH  27  28
ATOM     28  N   UNL     1       9.426   6.811   5.149  0.00  0.00    +0.383 N 
ATOM     29  C   UNL     1       7.968   6.750   5.311  0.00  0.00    -0.078 C 
ATOM     30  C   UNL     1       7.449   8.109   5.788  0.00  0.00    -0.016 C 
ATOM     31  C   UNL     1       8.114   8.464   7.120  0.00  0.00    -0.018 C 
ATOM     32  C   UNL     1       9.634   8.474   6.936  0.00  0.00    -0.016 C 
ATOM     33  C   UNL     1      10.089   7.104   6.426  0.00  0.00    -0.078 C 
ATOM     34  C   UNL     1       7.645   9.849   7.572  0.00  0.00    +0.007 C 
ATOM     35  H   UNL     1       9.653   7.635   4.457  0.00  0.00    -0.081 HD
ENDBRANCH  27  28
ENDBRANCH   6  27
TORSDOF 5
