REMARK  Name = ZINC40023356
REMARK  9 active torsions:
REMARK  status: ('A' for Active; 'I' for Inactive)
REMARK    1  A    between atoms: C_1  and  C_2
REMARK    2  A    between atoms: C_12  and  S_14
REMARK    3  A    between atoms: S_14  and  C_15
REMARK    4  A    between atoms: C_18  and  C_27
REMARK    5  A    between atoms: N_19  and  C_20
REMARK    6  A    between atoms: C_27  and  C_29
REMARK    7  A    between atoms: C_27  and  N_30
REMARK    8  A    between atoms: N_30  and  C_31
REMARK    9  A    between atoms: N_30  and  C_32
REMARK                            x       y       z     vdW  Elec       q    Type
REMARK                         _______ _______ _______ _____ _____    ______ ____
ROOT
ATOM      1  C   UNL     1       0.041  -1.492   3.945  0.00  0.00    +0.202 A 
ATOM      2  N   UNL     1       0.016  -0.206   3.681  0.00  0.00    -0.122 NA
ATOM      3  N   UNL     1       0.013   0.466   4.777  0.00  0.00    -0.135 NA
ATOM      4  C   UNL     1       0.037  -0.344   5.799  0.00  0.00    +0.125 A 
ATOM      5  N   UNL     1       0.049  -1.620   5.307  0.00  0.00    -0.275 N 
ENDROOT
BRANCH   5   6
ATOM      6  C   UNL     1       0.069  -2.813   6.045  0.00  0.00    +0.050 A 
ATOM      7  C   UNL     1      -1.014  -3.155   6.843  0.00  0.00    +0.029 A 
ATOM      8  C   UNL     1      -0.993  -4.330   7.569  0.00  0.00    +0.040 A 
ATOM      9  C   UNL     1       0.108  -5.167   7.501  0.00  0.00    +0.124 A 
ATOM     10  C   UNL     1       1.190  -4.827   6.706  0.00  0.00    +0.040 A 
ATOM     11  C   UNL     1       1.170  -3.656   5.974  0.00  0.00    +0.029 A 
ATOM     12  F   UNL     1       0.127  -6.315   8.212  0.00  0.00    -0.205 F 
ENDBRANCH   5   6
BRANCH   4  13
ATOM     13  C   UNL     1       0.042   0.053   7.253  0.00  0.00    -0.003 C 
ATOM     14  C   UNL     1       1.430   0.574   7.634  0.00  0.00    -0.005 C 
BRANCH  13  15
ATOM     15  N   UNL     1      -0.954   1.109   7.476  0.00  0.00    +0.382 N 
ATOM     16  C   UNL     1      -2.287   0.610   7.110  0.00  0.00    -0.096 C 
ATOM     17  C   UNL     1      -0.949   1.496   8.893  0.00  0.00    -0.096 C 
ATOM     18  H   UNL     1      -0.728   1.911   6.907  0.00  0.00    -0.082 HD
ENDBRANCH  13  15
ENDBRANCH   4  13
BRANCH   1  19
ATOM     19  S   UNL     1       0.054  -2.803   2.768  0.00  0.00    -0.029 S 
BRANCH  19  31
ATOM     20  C   UNL     1      -0.018   1.503   0.010  0.00  0.00    +0.088 C 
ATOM     21  C   UNL     1       0.002  -0.004   0.002  0.00  0.00    +0.128 A 
ATOM     22  N   UNL     1       0.005  -0.642  -1.153  0.00  0.00    -0.225 NA
ATOM     23  C   UNL     1       0.024  -1.961  -1.183  0.00  0.00    +0.113 A 
ATOM     24  C   UNL     1       0.040  -2.723  -0.000  0.00  0.00    +0.043 A 
ATOM     25  C   UNL     1       0.061  -4.184  -0.176  0.00  0.00    -0.025 A 
ATOM     26  C   UNL     1       0.063  -4.644  -1.438  0.00  0.00    -0.004 A 
ATOM     27  S   UNL     1       0.035  -3.189  -2.461  0.00  0.00    -0.073 S 
ATOM     28  C   UNL     1       0.091  -6.147  -1.494  0.00  0.00    +0.043 C 
ATOM     29  C   UNL     1       0.539  -6.581  -0.082  0.00  0.00    +0.010 C 
ATOM     30  C   UNL     1       0.077  -5.385   0.774  0.00  0.00    +0.037 C 
ATOM     31  C   UNL     1       0.035  -1.978   1.211  0.00  0.00    +0.116 A 
ATOM     32  N   UNL     1       0.022  -0.655   1.151  0.00  0.00    -0.225 NA
ENDBRANCH  19  31
ENDBRANCH   1  19
TORSDOF 5
