REMARK  Name = ZINC16424147
REMARK  9 active torsions:
REMARK  status: ('A' for Active; 'I' for Inactive)
REMARK    1  A    between atoms: C_1  and  C_2
REMARK    2  A    between atoms: C_2  and  C_3
REMARK    3  A    between atoms: C_3  and  N_4
REMARK    4  A    between atoms: N_4  and  C_5
REMARK    5  A    between atoms: C_5  and  C_7
REMARK    6  A    between atoms: C_5  and  C_8
REMARK    7  A    between atoms: C_21  and  C_23
REMARK    8  A    between atoms: C_26  and  C_32
REMARK    9  A    between atoms: C_27  and  N_29
REMARK                            x       y       z     vdW  Elec       q    Type
REMARK                         _______ _______ _______ _____ _____    ______ ____
ROOT
ATOM      1  N   UNL     1      -5.778   0.139   0.067  0.00  0.00    -0.288 N 
ATOM      2  C   UNL     1      -6.467  -1.007  -0.098  0.00  0.00    +0.247 C 
ATOM      3  O   UNL     1      -7.052  -1.506   0.844  0.00  0.00    -0.270 OA
ENDROOT
BRANCH   2   4
ATOM      4  C   UNL     1      -6.513  -1.658  -1.425  0.00  0.00    +0.039 A 
ATOM      5  C   UNL     1      -5.395  -2.340  -1.911  0.00  0.00    +0.013 A 
ATOM      6  C   UNL     1      -5.446  -2.949  -3.147  0.00  0.00    +0.006 A 
ATOM      7  C   UNL     1      -6.598  -2.877  -3.910  0.00  0.00    -0.020 A 
ATOM      8  C   UNL     1      -7.707  -2.199  -3.437  0.00  0.00    +0.130 A 
ATOM      9  C   UNL     1      -7.671  -1.589  -2.200  0.00  0.00    +0.046 A 
ATOM     10  C   UNL     1      -6.644  -3.541  -5.262  0.00  0.00    +0.046 C 
BRANCH   8  11
ATOM     11  N   UNL     1      -8.935  -2.128  -4.261  0.00  0.00    +0.057 N 
ATOM     12  O   UNL     1      -9.920  -1.550  -3.836  0.00  0.00    -0.126 OA
ATOM     13  O   UNL     1      -8.961  -2.646  -5.362  0.00  0.00    -0.126 OA
ENDBRANCH   8  11
ENDBRANCH   2   4
BRANCH   1  14
ATOM     14  C   UNL     1      -5.904   0.896   1.314  0.00  0.00    +0.139 C 
ATOM     15  C   UNL     1      -6.220   2.358   0.993  0.00  0.00    +0.036 C 
BRANCH  14  16
ATOM     16  C   UNL     1      -4.609   0.819   2.082  0.00  0.00    +0.131 A 
ATOM     17  N   UNL     1      -4.491   1.548   3.222  0.00  0.00    -0.309 N 
ATOM     18  H   UNL     1      -5.232   2.100   3.518  0.00  0.00    +0.170 HD
ATOM     19  C   UNL     1      -3.349   1.513   3.948  0.00  0.00    +0.259 A 
ATOM     20  O   UNL     1      -3.230   2.162   4.971  0.00  0.00    -0.267 OA
ATOM     21  C   UNL     1      -2.259   0.661   3.453  0.00  0.00    +0.065 A 
ATOM     22  C   UNL     1      -1.043   0.555   4.125  0.00  0.00    +0.017 A 
ATOM     23  C   UNL     1      -0.060  -0.252   3.623  0.00  0.00    +0.021 A 
ATOM     24  C   UNL     1      -0.261  -0.967   2.447  0.00  0.00    +0.043 A 
ATOM     25  C   UNL     1      -1.454  -0.878   1.763  0.00  0.00    +0.048 A 
ATOM     26  C   UNL     1      -2.470  -0.057   2.254  0.00  0.00    +0.080 A 
ATOM     27  N   UNL     1      -3.664   0.058   1.620  0.00  0.00    -0.232 NA
ATOM     28 CL   UNL     1       1.006  -1.982   1.834  0.00  0.00    -0.083 Cl
ENDBRANCH  14  16
ENDBRANCH   1  14
BRANCH   1  29
ATOM     29  C   UNL     1      -4.902   0.627  -1.002  0.00  0.00    +0.108 C 
BRANCH  29  31
ATOM     30  C   UNL     1      -2.527   0.810  -1.757  0.00  0.00    +0.005 C 
ATOM     31  C   UNL     1      -3.441   0.453  -0.582  0.00  0.00    +0.016 C 
ENDBRANCH  29  31
ENDBRANCH   1  29
TORSDOF 6
