REMARK  Name = ZINC15448535
REMARK  16 active torsions:
REMARK  status: ('A' for Active; 'I' for Inactive)
REMARK    1  A    between atoms: C_1  and  C_2
REMARK    2  A    between atoms: C_2  and  C_3
REMARK    3  A    between atoms: C_2  and  C_4
REMARK    4  A    between atoms: C_4  and  N_5
REMARK    5  A    between atoms: C_6  and  N_34
REMARK    6  A    between atoms: C_7  and  N_14
REMARK    7  A    between atoms: N_14  and  C_15
REMARK    8  A    between atoms: C_15  and  C_16
REMARK    9  A    between atoms: C_16  and  C_17
REMARK   10  A    between atoms: C_16  and  C_18
REMARK   11  A    between atoms: C_19  and  C_21
REMARK   12  A    between atoms: C_21  and  N_67
REMARK   13  A    between atoms: C_22  and  C_23
REMARK   14  A    between atoms: C_22  and  N_67
REMARK   15  A    between atoms: C_28  and  C_29
REMARK   16  A    between atoms: C_28  and  N_67
REMARK                            x       y       z     vdW  Elec       q    Type
REMARK                         _______ _______ _______ _____ _____    ______ ____
ROOT
ATOM      1  N   UNL     1       2.119   1.915  -0.396  0.00  0.00    -0.266 N 
ATOM      2  C   UNL     1       1.315   0.893  -0.757  0.00  0.00    +0.203 C 
ATOM      3  O   UNL     1       1.634  -0.249  -0.501  0.00  0.00    -0.277 OA
ENDROOT
BRANCH   1   6
ATOM      4  N   UNL     1       4.303   0.891   2.375  0.00  0.00    -0.280 N 
ATOM      5  C   UNL     1       3.162   1.121   1.643  0.00  0.00    +0.127 A 
ATOM      6  C   UNL     1       3.271   1.667   0.380  0.00  0.00    +0.140 A 
ATOM      7  C   UNL     1       4.551   1.966  -0.123  0.00  0.00    +0.277 A 
ATOM      8  O   UNL     1       4.676   2.444  -1.238  0.00  0.00    -0.266 OA
ATOM      9  N   UNL     1       5.637   1.725   0.637  0.00  0.00    -0.273 N 
ATOM     10  H   UNL     1       6.546   1.945   0.284  0.00  0.00    +0.173 HD
ATOM     11  C   UNL     1       5.511   1.193   1.866  0.00  0.00    +0.331 A 
ATOM     12  O   UNL     1       6.508   0.982   2.529  0.00  0.00    -0.246 OA
BRANCH   5  13
ATOM     13  N   UNL     1       1.928   0.813   2.163  0.00  0.00    -0.343 N 
ATOM     14  H   UNL     1       1.131   0.923   1.620  0.00  0.00    +0.144 HD
ATOM     15  H   UNL     1       1.853   0.484   3.072  0.00  0.00    +0.144 HD
ENDBRANCH   5  13
BRANCH   4  16
ATOM     16  C   UNL     1       4.203   0.312   3.717  0.00  0.00    +0.131 C 
BRANCH  16  18
ATOM     17  C   UNL     1       5.341  -1.756   2.896  0.00  0.00    +0.009 C 
ATOM     18  C   UNL     1       4.102  -1.211   3.609  0.00  0.00    +0.003 C 
ATOM     19  C   UNL     1       4.013  -1.817   5.011  0.00  0.00    +0.009 C 
ENDBRANCH  16  18
ENDBRANCH   4  16
ENDBRANCH   1   6
BRANCH   1  20
ATOM     20  C   UNL     1       1.795   3.283  -0.810  0.00  0.00    +0.117 C 
BRANCH  20  21
ATOM     21  C   UNL     1       0.853   3.917   0.215  0.00  0.00    +0.001 C 
ATOM     22  C   UNL     1       1.551   3.987   1.575  0.00  0.00    +0.009 C 
ATOM     23  C   UNL     1       0.480   5.329  -0.240  0.00  0.00    +0.009 C 
ENDBRANCH  20  21
ENDBRANCH   1  20
BRANCH   2  24
ATOM     24  C   UNL     1       0.023   1.171  -1.482  0.00  0.00    +0.020 C 
BRANCH  24  25
ATOM     25  N   UNL     1      -0.579  -0.119  -1.881  0.00  0.00    +0.395 N 
ATOM     26  H   UNL     1      -0.344  -0.829  -1.178  0.00  0.00    -0.080 HD
BRANCH  25  27
ATOM     27  C   UNL     1      -2.049   0.012  -1.958  0.00  0.00    -0.002 C 
BRANCH  27  28
ATOM     28  C   UNL     1      -2.650  -1.357  -2.148  0.00  0.00    +0.089 A 
ATOM     29  C   UNL     1      -3.016  -2.199  -1.165  0.00  0.00    +0.042 A 
ATOM     30  C   UNL     1      -3.527  -3.360  -1.789  0.00  0.00    +0.041 A 
ATOM     31  C   UNL     1      -3.443  -3.158  -3.117  0.00  0.00    +0.195 A 
ATOM     32  O   UNL     1      -2.916  -1.941  -3.328  0.00  0.00    -0.470 OA
ENDBRANCH  27  28
ENDBRANCH  25  27
BRANCH  25  33
ATOM     33  C   UNL     1      -0.040  -0.544  -3.191  0.00  0.00    -0.002 C 
BRANCH  33  34
ATOM     34  C   UNL     1       1.337  -1.119  -2.982  0.00  0.00    +0.089 A 
ATOM     35  C   UNL     1       1.622  -2.410  -2.736  0.00  0.00    +0.042 A 
ATOM     36  C   UNL     1       3.027  -2.502  -2.609  0.00  0.00    +0.041 A 
ATOM     37  C   UNL     1       3.517  -1.262  -2.785  0.00  0.00    +0.195 A 
ATOM     38  O   UNL     1       2.489  -0.429  -3.017  0.00  0.00    -0.470 OA
ENDBRANCH  33  34
ENDBRANCH  25  33
ENDBRANCH  24  25
ENDBRANCH   2  24
TORSDOF 12
