REMARK  Name = ZINC58872878
REMARK  9 active torsions:
REMARK  status: ('A' for Active; 'I' for Inactive)
REMARK    1  A    between atoms: C_1  and  C_2
REMARK    2  A    between atoms: C_3  and  C_12
REMARK    3  A    between atoms: N_14  and  N_15
REMARK    4  A    between atoms: C_16  and  C_17
REMARK    5  A    between atoms: C_20  and  O_23
REMARK    6  A    between atoms: O_23  and  C_24
REMARK    7  A    between atoms: C_24  and  C_25
REMARK    8  A    between atoms: N_27  and  C_28
REMARK    9  A    between atoms: C_28  and  C_29
REMARK                            x       y       z     vdW  Elec       q    Type
REMARK                         _______ _______ _______ _____ _____    ______ ____
ROOT
ATOM      1  C   UNL     1       0.400  -1.268  -7.158  0.00  0.00    -0.005 A 
ATOM      2  C   UNL     1       0.385   0.097  -7.455  0.00  0.00    +0.013 A 
ATOM      3  C   UNL     1       0.477   0.516  -8.764  0.00  0.00    +0.046 A 
ATOM      4  C   UNL     1       0.583  -0.416  -9.789  0.00  0.00    +0.121 A 
ATOM      5  C   UNL     1       0.598  -1.774  -9.498  0.00  0.00    +0.046 A 
ATOM      6  C   UNL     1       0.513  -2.202  -8.191  0.00  0.00    +0.013 A 
ENDROOT
BRANCH   1   8
ATOM      7  N   UNL     1       0.197  -0.853  -4.801  0.00  0.00    -0.187 NA
ATOM      8  C   UNL     1       0.302  -1.722  -5.759  0.00  0.00    +0.138 C 
BRANCH   7  11
ATOM      9  C   UNL     1      -0.005  -0.381  -2.476  0.00  0.00    +0.282 C 
ATOM     10  O   UNL     1      -0.118   0.803  -2.738  0.00  0.00    -0.267 OA
ATOM     11  N   UNL     1       0.104  -1.284  -3.471  0.00  0.00    -0.202 N 
ATOM     12  H   UNL     1       0.119  -2.232  -3.266  0.00  0.00    +0.178 HD
BRANCH   9  15
ATOM     13  C   UNL     1      -2.529  -0.802  -0.691  0.00  0.00    +0.068 C 
ATOM     14  C   UNL     1      -1.087  -1.008  -0.304  0.00  0.00    +0.069 A 
ATOM     15  C   UNL     1       0.012  -0.810  -1.125  0.00  0.00    +0.133 A 
ATOM     16  N   UNL     1       1.127  -1.114  -0.366  0.00  0.00    -0.294 N 
ATOM     17  C   UNL     1       2.458  -1.101  -0.646  0.00  0.00    +0.108 A 
ATOM     18  C   UNL     1       3.364  -1.452   0.296  0.00  0.00    +0.035 A 
ATOM     19  C   UNL     1       2.936  -1.833   1.576  0.00  0.00    +0.020 A 
ATOM     20  C   UNL     1       1.604  -1.848   1.864  0.00  0.00    +0.048 A 
ATOM     21  C   UNL     1       0.679  -1.481   0.871  0.00  0.00    +0.138 A 
ATOM     22  N   UNL     1      -0.651  -1.403   0.882  0.00  0.00    -0.232 NA
ATOM     23 BR   UNL     1       5.210  -1.428  -0.115  0.00  0.00    -0.049 Br
ENDBRANCH   9  15
ENDBRANCH   7  11
ENDBRANCH   1   8
BRANCH   4  24
ATOM     24  O   UNL     1       0.673   0.002 -11.078  0.00  0.00    -0.483 OA
BRANCH  24  25
ATOM     25  C   UNL     1       0.779  -1.009 -12.082  0.00  0.00    +0.324 C 
BRANCH  25  26
ATOM     26  C   UNL     1       0.868  -0.362 -13.440  0.00  0.00    +0.251 C 
ATOM     27  O   UNL     1       0.842   0.847 -13.538  0.00  0.00    -0.272 OA
ATOM     28  N   UNL     1       0.976  -1.126 -14.545  0.00  0.00    -0.310 N 
ATOM     29  H   UNL     1       0.997  -2.092 -14.466  0.00  0.00    +0.149 HD
BRANCH  28  30
ATOM     30  C   UNL     1       1.062  -0.496 -15.865  0.00  0.00    +0.135 C 
BRANCH  30  31
ATOM     31  C   UNL     1       1.176  -1.579 -16.940  0.00  0.00    +0.135 C 
ATOM     32  C   UNL     1       1.389  -0.925 -18.322  0.00  0.00    +0.035 C 
ATOM     33  C   UNL     1       0.521  -1.820 -19.248  0.00  0.00    +0.031 C 
ATOM     34  C   UNL     1      -0.645  -2.185 -18.295  0.00  0.00    +0.160 C 
ATOM     35  O   UNL     1      -0.039  -2.335 -16.999  0.00  0.00    -0.375 OA
ENDBRANCH  30  31
ENDBRANCH  28  30
ENDBRANCH  25  26
ENDBRANCH  24  25
ENDBRANCH   4  24
TORSDOF 8
