REMARK  Name = ZINC05909097
REMARK  8 active torsions:
REMARK  status: ('A' for Active; 'I' for Inactive)
REMARK    1  A    between atoms: C_1  and  C_2
REMARK    2  A    between atoms: C_2  and  C_3
REMARK    3  A    between atoms: C_3  and  C_5
REMARK    4  A    between atoms: C_3  and  N_6
REMARK    5  A    between atoms: C_7  and  O_31
REMARK    6  A    between atoms: C_8  and  C_15
REMARK    7  A    between atoms: C_21  and  O_27
REMARK    8  A    between atoms: O_27  and  C_28
REMARK                            x       y       z     vdW  Elec       q    Type
REMARK                         _______ _______ _______ _____ _____    ______ ____
ROOT
ATOM      1  C   UNL     1      -0.032   5.436  -0.187  0.00  0.00    +0.018 C 
ATOM      2  C   UNL     1       0.628   5.849  -1.481  0.00  0.00    +0.011 A 
ATOM      3  C   UNL     1       1.526   6.863  -1.557  0.00  0.00    -0.022 A 
ATOM      4  C   UNL     1       1.943   6.960  -2.938  0.00  0.00    +0.006 A 
ATOM      5  C   UNL     1       2.835   7.806  -3.604  0.00  0.00    +0.056 A 
ATOM      6  C   UNL     1       2.990   7.603  -4.967  0.00  0.00    +0.121 A 
ATOM      7  C   UNL     1       2.294   6.609  -5.644  0.00  0.00    +0.047 A 
ATOM      8  C   UNL     1       1.407   5.763  -5.002  0.00  0.00    +0.030 A 
ATOM      9  C   UNL     1       1.233   5.945  -3.632  0.00  0.00    +0.047 A 
ATOM     10  N   UNL     1       0.451   5.296  -2.717  0.00  0.00    -0.359 N 
ATOM     11  H   UNL     1      -0.143   4.556  -2.916  0.00  0.00    +0.166 HD
ATOM     12  C   UNL     1       1.951   7.689  -0.370  0.00  0.00    +0.018 C 
ATOM     13  C   UNL     1       0.942   7.450   0.761  0.00  0.00    -0.076 C 
ATOM     14  N   UNL     1       0.737   5.998   0.944  0.00  0.00    +0.388 N 
ATOM     15  H   UNL     1       1.651   5.533   0.997  0.00  0.00    -0.084 HD
ATOM     16  H   UNL     1       0.221   5.838   1.817  0.00  0.00    -0.084 HD
ENDROOT
BRANCH   1  19
ATOM     17  N   UNL     1      -1.207   1.880   0.017  0.00  0.00    -0.262 N 
ATOM     18  C   UNL     1      -1.221   3.248  -0.076  0.00  0.00    +0.204 A 
ATOM     19  C   UNL     1      -0.042   3.933  -0.081  0.00  0.00    +0.068 A 
ATOM     20  C   UNL     1       1.164   3.216   0.013  0.00  0.00    +0.260 A 
ATOM     21  O   UNL     1       2.230   3.807   0.010  0.00  0.00    -0.267 OA
ATOM     22  N   UNL     1       1.133   1.872   0.108  0.00  0.00    -0.275 N 
ATOM     23  H   UNL     1       1.989   1.360   0.175  0.00  0.00    +0.173 HD
ATOM     24  C   UNL     1      -0.041   1.215   0.112  0.00  0.00    +0.332 A 
ATOM     25  O   UNL     1      -0.048   0.002   0.198  0.00  0.00    -0.246 OA
BRANCH  17  26
ATOM     26  C   UNL     1      -2.470   1.137   0.019  0.00  0.00    +0.092 C 
ATOM     27  C   UNL     1      -2.493   0.167  -1.164  0.00  0.00    +0.031 C 
BRANCH  26  29
ATOM     28  C   UNL     1      -2.700   1.326   2.500  0.00  0.00    +0.006 C 
ATOM     29  C   UNL     1      -2.598   0.351   1.325  0.00  0.00    +0.022 C 
ENDBRANCH  26  29
ENDBRANCH  17  26
BRANCH  18  30
ATOM     30  O   UNL     1      -2.393   3.912  -0.165  0.00  0.00    -0.493 OA
ATOM     31  H   UNL     1      -3.167   3.336  -0.233  0.00  0.00    +0.294 HD
ENDBRANCH  18  30
ENDBRANCH   1  19
BRANCH   6  32
ATOM     32  O   UNL     1       3.847   8.400  -5.661  0.00  0.00    -0.495 OA
ATOM     33  C   UNL     1       3.971   8.153  -7.063  0.00  0.00    +0.277 C 
ENDBRANCH   6  32
TORSDOF 5
