REMARK  Name = ZINC09244016
REMARK  3 active torsions:
REMARK  status: ('A' for Active; 'I' for Inactive)
REMARK    1  A    between atoms: C_1  and  C_2
REMARK    2  A    between atoms: C_4  and  C_8
REMARK    3  A    between atoms: C_14  and  C_17
REMARK                            x       y       z     vdW  Elec       q    Type
REMARK                         _______ _______ _______ _____ _____    ______ ____
ROOT
ATOM      1  C   UNL     1       0.040  -3.328  -1.534  0.00  0.00    +0.206 A 
ATOM      2  N   UNL     1       0.039  -3.338  -2.853  0.00  0.00    -0.125 NA
ATOM      3  N   UNL     1       0.055  -4.553  -3.290  0.00  0.00    -0.120 NA
ATOM      4  C   UNL     1       0.069  -5.374  -2.290  0.00  0.00    +0.213 A 
ATOM      5  N   UNL     1       0.059  -4.631  -1.126  0.00  0.00    -0.185 N 
ATOM      6  N   UNL     1       0.058  -5.206   0.140  0.00  0.00    -0.166 NA
ATOM      7  C   UNL     1       0.402  -6.418   0.383  0.00  0.00    +0.079 C 
ATOM      8  C   UNL     1       0.905  -7.421  -0.615  0.00  0.00    +0.135 C 
ATOM      9  S   UNL     1       0.105  -7.138  -2.232  0.00  0.00    -0.078 S 
ENDROOT
BRANCH   1  13
ATOM     10  C   UNL     1      -0.018   1.503   0.010  0.00  0.00    +0.065 C 
ATOM     11  C   UNL     1       0.002  -0.004   0.002  0.00  0.00    +0.034 A 
ATOM     12  C   UNL     1       0.008  -0.791  -1.095  0.00  0.00    +0.055 A 
ATOM     13  C   UNL     1       0.028  -2.134  -0.663  0.00  0.00    +0.131 A 
ATOM     14  N   UNL     1       0.034  -2.135   0.655  0.00  0.00    -0.170 NA
ATOM     15  N   UNL     1       0.024  -0.803   1.091  0.00  0.00    -0.281 N 
ATOM     16  H   UNL     1       0.029  -0.507   2.014  0.00  0.00    +0.189 HD
ENDBRANCH   1  13
BRANCH   7  17
ATOM     17  C   UNL     1       0.294  -6.872   1.782  0.00  0.00    -0.001 A 
ATOM     18  C   UNL     1       0.655  -8.176   2.127  0.00  0.00    +0.011 A 
ATOM     19  C   UNL     1       0.551  -8.593   3.437  0.00  0.00    +0.020 A 
ATOM     20  C   UNL     1       0.090  -7.722   4.410  0.00  0.00    +0.041 A 
ATOM     21  C   UNL     1      -0.271  -6.428   4.075  0.00  0.00    +0.020 A 
ATOM     22  C   UNL     1      -0.166  -5.996   2.769  0.00  0.00    +0.011 A 
ATOM     23 CL   UNL     1      -0.038  -8.256   6.057  0.00  0.00    -0.084 Cl
ENDBRANCH   7  17
TORSDOF 2
