REMARK  Name = ZINC24216610
REMARK  12 active torsions:
REMARK  status: ('A' for Active; 'I' for Inactive)
REMARK    1  A    between atoms: C_1  and  C_2
REMARK    2  A    between atoms: C_2  and  O_3
REMARK    3  A    between atoms: O_3  and  C_4
REMARK    4  A    between atoms: C_7  and  C_10
REMARK    5  A    between atoms: N_15  and  C_16
REMARK    6  A    between atoms: C_16  and  C_17
REMARK    7  A    between atoms: N_19  and  C_20
REMARK    8  A    between atoms: C_21  and  C_29
REMARK    9  A    between atoms: N_31  and  C_32
REMARK   10  A    between atoms: C_32  and  C_33
REMARK   11  A    between atoms: C_33  and  O_34
REMARK   12  A    between atoms: O_34  and  C_35
REMARK                            x       y       z     vdW  Elec       q    Type
REMARK                         _______ _______ _______ _____ _____    ______ ____
ROOT
ATOM      1  C   UNL     1      -0.015   1.210   0.018  0.00  0.00    +0.201 C 
ATOM      2  O   UNL     1       0.002  -0.003   0.022  0.00  0.00    -0.278 OA
ATOM      3  N   UNL     1       1.143   1.899   0.012  0.00  0.00    -0.281 N 
ATOM      4  H   UNL     1       1.128   2.999   0.008  0.00  0.00    +0.155 HD
ENDROOT
BRANCH   3   5
ATOM      5  C   UNL     1       2.353   1.223   0.010  0.00  0.00    +0.084 A 
ATOM      6  C   UNL     1       3.636   1.751   0.003  0.00  0.00    +0.069 A 
ATOM      7  C   UNL     1       4.748   0.815   0.003  0.00  0.00    -0.023 A 
ATOM      8  C   UNL     1       4.401  -0.490   0.009  0.00  0.00    -0.004 A 
ATOM      9  S   UNL     1       2.630  -0.488   0.022  0.00  0.00    -0.077 S 
ATOM     10  C   UNL     1       5.323  -1.670   0.009  0.00  0.00    +0.043 C 
ATOM     11  C   UNL     1       6.729  -1.186  -0.375  0.00  0.00    +0.005 C 
ATOM     12  C   UNL     1       7.067   0.055   0.457  0.00  0.00    +0.005 C 
ATOM     13  C   UNL     1       6.212   1.238  -0.002  0.00  0.00    +0.037 C 
BRANCH   6  14
ATOM     14  C   UNL     1       3.862   3.200  -0.004  0.00  0.00    +0.247 C 
ATOM     15  O   UNL     1       3.960   3.805   1.048  0.00  0.00    -0.270 OA
ATOM     16  N   UNL     1       3.962   3.861  -1.174  0.00  0.00    -0.309 N 
ATOM     17  H   UNL     1       3.873   3.313  -2.124  0.00  0.00    +0.149 HD
BRANCH  16  18
ATOM     18  C   UNL     1       4.187   5.308  -1.180  0.00  0.00    +0.132 C 
BRANCH  18  19
ATOM     19  C   UNL     1       4.261   5.806  -2.625  0.00  0.00    +0.178 C 
BRANCH  19  20
ATOM     20  O   UNL     1       2.993   5.618  -3.259  0.00  0.00    -0.381 OA
ATOM     21  C   UNL     1       2.954   6.053  -4.619  0.00  0.00    +0.194 C 
ENDBRANCH  19  20
ENDBRANCH  18  19
ENDBRANCH  16  18
ENDBRANCH   6  14
ENDBRANCH   3   5
BRANCH   1  22
ATOM     22  C   UNL     1      -1.330   1.945   0.015  0.00  0.00    +0.020 C 
BRANCH  22  27
ATOM     23  C   UNL     1      -3.706   1.623   0.385  0.00  0.00    -0.037 C 
ATOM     24  C   UNL     1      -4.701   1.362  -0.765  0.00  0.00    -0.013 C 
ATOM     25  C   UNL     1      -4.114   0.104  -1.457  0.00  0.00    -0.020 C 
ATOM     26  C   UNL     1      -2.591   0.350  -1.314  0.00  0.00    -0.077 C 
ATOM     27  N   UNL     1      -2.434   0.975   0.016  0.00  0.00    +0.390 N 
ATOM     28  H   UNL     1      -2.181   0.207   0.762  0.00  0.00    -0.080 HD
BRANCH  23  32
ATOM     29  C   UNL     1      -3.110   5.827   0.867  0.00  0.00    +0.121 A 
ATOM     30  C   UNL     1      -2.941   5.239  -0.378  0.00  0.00    +0.046 A 
ATOM     31  C   UNL     1      -3.134   3.880  -0.531  0.00  0.00    +0.005 A 
ATOM     32  C   UNL     1      -3.496   3.105   0.555  0.00  0.00    -0.061 A 
ATOM     33  C   UNL     1      -3.671   3.689   1.796  0.00  0.00    +0.005 A 
ATOM     34  C   UNL     1      -3.474   5.047   1.956  0.00  0.00    +0.046 A 
BRANCH  29  35
ATOM     35  O   UNL     1      -2.921   7.164   1.021  0.00  0.00    -0.492 OA
BRANCH  35  37
ATOM     36  C   UNL     1      -2.858   9.208   2.308  0.00  0.00    +0.048 C 
ATOM     37  C   UNL     1      -3.113   7.700   2.331  0.00  0.00    +0.225 C 
ENDBRANCH  35  37
ENDBRANCH  29  35
ENDBRANCH  23  32
ENDBRANCH  22  27
ENDBRANCH   1  22
TORSDOF 10
