REMARK  Name = ZINC39012478
REMARK  9 active torsions:
REMARK  status: ('A' for Active; 'I' for Inactive)
REMARK    1  A    between atoms: C_1  and  O_2
REMARK    2  A    between atoms: O_2  and  C_3
REMARK    3  A    between atoms: C_5  and  C_13
REMARK    4  A    between atoms: C_7  and  O_11
REMARK    5  A    between atoms: C_8  and  O_9
REMARK    6  A    between atoms: O_9  and  C_10
REMARK    7  A    between atoms: O_11  and  C_12
REMARK    8  A    between atoms: N_19  and  N_20
REMARK    9  A    between atoms: C_21  and  C_22
REMARK                            x       y       z     vdW  Elec       q    Type
REMARK                         _______ _______ _______ _____ _____    ______ ____
ROOT
ATOM      1  C   UNL     1       1.522  -0.049   3.632  0.00  0.00    +0.264 C 
ATOM      2  N   UNL     1       0.672   1.152   3.659  0.00  0.00    -0.189 NA
ATOM      3  N   UNL     1       0.317   1.345   4.824  0.00  0.00    -0.219 N 
ATOM      4  C   UNL     1       0.802   0.421   5.697  0.00  0.00    +0.174 C 
ATOM      5  S   UNL     1       0.495   0.406   7.381  0.00  0.00    -0.015 S 
ATOM      6  N   UNL     1       1.566  -0.485   5.040  0.00  0.00    -0.172 N 
ATOM      7  H   UNL     1      -0.253   2.083   5.092  0.00  0.00    +0.176 HD
ENDROOT
BRANCH   1  10
ATOM      8  C   UNL     1      -0.341  -1.741   0.813  0.00  0.00    +0.166 A 
ATOM      9  C   UNL     1       0.230  -0.762   1.612  0.00  0.00    +0.057 A 
ATOM     10  C   UNL     1       0.903  -1.116   2.767  0.00  0.00    +0.005 A 
ATOM     11  C   UNL     1       1.010  -2.445   3.129  0.00  0.00    +0.057 A 
ATOM     12  C   UNL     1       0.442  -3.430   2.335  0.00  0.00    +0.166 A 
ATOM     13  C   UNL     1      -0.240  -3.079   1.177  0.00  0.00    +0.204 A 
BRANCH   8  15
ATOM     14  C   UNL     1      -1.066   0.001  -0.635  0.00  0.00    +0.277 C 
ATOM     15  O   UNL     1      -1.003  -1.393  -0.323  0.00  0.00    -0.491 OA
ENDBRANCH   8  15
BRANCH  13  16
ATOM     16  O   UNL     1      -0.804  -4.042   0.398  0.00  0.00    -0.488 OA
ATOM     17  C   UNL     1       0.011  -4.600  -0.635  0.00  0.00    +0.277 C 
ENDBRANCH  13  16
BRANCH  12  18
ATOM     18  O   UNL     1       0.548  -4.738   2.692  0.00  0.00    -0.491 OA
ATOM     19  C   UNL     1       1.166  -5.019   3.950  0.00  0.00    +0.277 C 
ENDBRANCH  12  18
ENDBRANCH   1  10
BRANCH   6  20
ATOM     20  N   UNL     1       2.243  -1.589   5.575  0.00  0.00    -0.183 NA
ATOM     21  C   UNL     1       2.083  -1.906   6.824  0.00  0.00    +0.140 C 
BRANCH  21  22
ATOM     22  C   UNL     1       2.865  -3.009   7.411  0.00  0.00    +0.013 A 
ATOM     23  C   UNL     1       2.626  -3.417   8.726  0.00  0.00    +0.012 A 
ATOM     24  C   UNL     1       3.361  -4.450   9.268  0.00  0.00    +0.021 A 
ATOM     25  C   UNL     1       4.334  -5.084   8.513  0.00  0.00    +0.042 A 
ATOM     26  C   UNL     1       4.576  -4.686   7.209  0.00  0.00    +0.040 A 
ATOM     27  C   UNL     1       3.845  -3.656   6.652  0.00  0.00    +0.051 A 
ATOM     28 CL   UNL     1       4.144  -3.163   5.015  0.00  0.00    -0.083 Cl
ATOM     29 CL   UNL     1       5.254  -6.383   9.205  0.00  0.00    -0.083 Cl
ENDBRANCH  21  22
ENDBRANCH   6  20
TORSDOF 6
