REMARK  Name = ZINC20556148
REMARK  3 active torsions:
REMARK  status: ('A' for Active; 'I' for Inactive)
REMARK    1  A    between atoms: C_10  and  C_25
REMARK    2  A    between atoms: N_16  and  C_19
REMARK    3  A    between atoms: C_19  and  C_20
REMARK                            x       y       z     vdW  Elec       q    Type
REMARK                         _______ _______ _______ _____ _____    ______ ____
ROOT
ATOM      1  C   UNL     1      -0.017   1.379   0.010  0.00  0.00    +0.002 A 
ATOM      2  C   UNL     1       1.148   2.127   0.003  0.00  0.00    +0.002 A 
ATOM      3  C   UNL     1       2.401   1.537  -0.011  0.00  0.00    +0.028 A 
ATOM      4  C   UNL     1       2.449   0.147  -0.019  0.00  0.00    +0.072 A 
ATOM      5  C   UNL     1       1.257  -0.623  -0.014  0.00  0.00    +0.091 A 
ATOM      6  C   UNL     1       0.002  -0.004   0.002  0.00  0.00    +0.030 A 
ATOM      7  N   UNL     1       1.615  -1.924  -0.033  0.00  0.00    -0.214 NA
ATOM      8  C   UNL     1       2.911  -2.015  -0.055  0.00  0.00    +0.206 A 
ATOM      9  N   UNL     1       3.472  -0.747  -0.026  0.00  0.00    -0.288 N 
ATOM     10  C   UNL     1       4.927  -0.571   0.009  0.00  0.00    +0.214 C 
ATOM     11  N   UNL     1       5.550  -1.722  -0.663  0.00  0.00    -0.230 NA
ATOM     12  C   UNL     1       5.022  -2.906  -0.618  0.00  0.00    +0.183 C 
ATOM     13  N   UNL     1       3.749  -3.112  -0.108  0.00  0.00    -0.261 N 
ATOM     14  C   UNL     1       3.350  -4.432   0.366  0.00  0.00    +0.044 C 
ATOM     15  N   UNL     1       3.894  -5.463  -0.532  0.00  0.00    +0.405 N 
ATOM     16  C   UNL     1       5.359  -5.322  -0.600  0.00  0.00    +0.031 C 
ATOM     17  N   UNL     1       5.672  -3.997  -1.162  0.00  0.00    -0.333 N 
ATOM     18  H   UNL     1       6.310  -3.895  -1.886  0.00  0.00    +0.146 HD
ATOM     19  H   UNL     1       3.502  -5.347  -1.455  0.00  0.00    -0.077 HD
ENDROOT
BRANCH  10  20
ATOM     20  C   UNL     1       5.403  -0.503   1.462  0.00  0.00    +0.038 C 
ATOM     21  C   UNL     1       6.907  -0.206   1.499  0.00  0.00    +0.012 C 
ATOM     22  C   UNL     1       7.318   0.033   2.954  0.00  0.00    +0.027 C 
ATOM     23  C   UNL     1       6.795  -1.071   3.826  0.00  0.00    -0.031 C 
ATOM     24  C   UNL     1       5.853  -1.887   3.477  0.00  0.00    -0.031 C 
ATOM     25  C   UNL     1       5.154  -1.848   2.148  0.00  0.00    +0.034 C 
ENDBRANCH  10  20
BRANCH  15  26
ATOM     26  C   UNL     1       3.553  -6.795  -0.015  0.00  0.00    +0.001 C 
BRANCH  26  27
ATOM     27  C   UNL     1       4.003  -7.845  -0.998  0.00  0.00    +0.089 A 
ATOM     28  C   UNL     1       5.204  -8.451  -1.006  0.00  0.00    +0.042 A 
ATOM     29  C   UNL     1       5.196  -9.359  -2.090  0.00  0.00    +0.041 A 
ATOM     30  C   UNL     1       3.991  -9.254  -2.679  0.00  0.00    +0.195 A 
ATOM     31  O   UNL     1       3.271  -8.339  -2.010  0.00  0.00    -0.470 OA
ENDBRANCH  26  27
ENDBRANCH  15  26
TORSDOF 3
