REMARK  Name = ZINC36553043
REMARK  14 active torsions:
REMARK  status: ('A' for Active; 'I' for Inactive)
REMARK    1  A    between atoms: C_1  and  C_2
REMARK    2  A    between atoms: C_2  and  C_3
REMARK    3  A    between atoms: C_2  and  C_4
REMARK    4  A    between atoms: C_2  and  C_5
REMARK    5  A    between atoms: C_5  and  C_6
REMARK    6  A    between atoms: C_6  and  C_7
REMARK    7  A    between atoms: C_6  and  C_8
REMARK    8  A    between atoms: C_6  and  N_9
REMARK    9  A    between atoms: C_10  and  C_12
REMARK   10  A    between atoms: C_12  and  C_14
REMARK   11  A    between atoms: C_12  and  N_20
REMARK   12  A    between atoms: N_20  and  C_21
REMARK   13  A    between atoms: C_28  and  C_30
REMARK   14  A    between atoms: C_34  and  N_36
REMARK                            x       y       z     vdW  Elec       q    Type
REMARK                         _______ _______ _______ _____ _____    ______ ____
ROOT
ATOM      1  C   UNL     1       4.620  -2.676  -4.486  0.00  0.00    +0.170 C 
ENDROOT
BRANCH   1   2
ATOM      2  C   UNL     1       4.489  -2.886  -5.996  0.00  0.00    +0.019 C 
ATOM      3  C   UNL     1       3.018  -2.781  -6.400  0.00  0.00    +0.006 C 
ATOM      4  C   UNL     1       2.887  -2.991  -7.910  0.00  0.00    +0.000 C 
ATOM      5  C   UNL     1       3.421  -4.376  -8.280  0.00  0.00    +0.000 C 
ATOM      6  C   UNL     1       4.893  -4.481  -7.876  0.00  0.00    +0.000 C 
ATOM      7  C   UNL     1       5.023  -4.271  -6.366  0.00  0.00    +0.006 C 
ENDBRANCH   1   2
BRANCH   1   9
ATOM      8  N   UNL     1       2.622  -1.242  -4.221  0.00  0.00    -0.309 N 
ATOM      9  C   UNL     1       3.957  -1.379  -4.100  0.00  0.00    +0.235 C 
ATOM     10  O   UNL     1       4.625  -0.458  -3.680  0.00  0.00    -0.274 OA
ATOM     11  H   UNL     1       2.075  -2.007  -4.458  0.00  0.00    +0.149 HD
BRANCH   8  12
ATOM     12  C   UNL     1       1.996   0.063  -3.995  0.00  0.00    +0.030 C 
ATOM     13  C   UNL     1       2.585   1.087  -4.968  0.00  0.00    +0.031 C 
ATOM     14  C   UNL     1       2.261   0.514  -2.558  0.00  0.00    +0.031 C 
BRANCH  12  15
ATOM     15  C   UNL     1       0.487  -0.048  -4.225  0.00  0.00    +0.031 C 
BRANCH  15  17
ATOM     16  C   UNL     1      -0.162  -0.035  -1.812  0.00  0.00    +0.010 C 
ATOM     17  C   UNL     1      -0.141  -0.868  -3.096  0.00  0.00    -0.036 C 
ATOM     18  C   UNL     1       0.682  -2.137  -2.868  0.00  0.00    +0.010 C 
ATOM     19  C   UNL     1      -1.572  -1.250  -3.479  0.00  0.00    +0.010 C 
ENDBRANCH  15  17
ENDBRANCH  12  15
ENDBRANCH   8  12
ENDBRANCH   1   9
BRANCH   1  20
ATOM     20  N   UNL     1       6.037  -2.628  -4.120  0.00  0.00    -0.255 N 
ATOM     21  C   UNL     1       6.459  -3.206  -2.978  0.00  0.00    +0.252 C 
ATOM     22  O   UNL     1       7.601  -3.039  -2.597  0.00  0.00    -0.270 OA
BRANCH  20  23
ATOM     23  C   UNL     1       6.954  -1.982  -4.956  0.00  0.00    +0.039 A 
ATOM     24  C   UNL     1       6.805  -0.630  -5.239  0.00  0.00    +0.023 A 
ATOM     25  C   UNL     1       7.711   0.005  -6.065  0.00  0.00    +0.003 A 
ATOM     26  C   UNL     1       8.767  -0.703  -6.610  0.00  0.00    +0.020 A 
ATOM     27  C   UNL     1       8.919  -2.049  -6.330  0.00  0.00    +0.043 A 
ATOM     28  C   UNL     1       8.018  -2.689  -5.500  0.00  0.00    +0.043 A 
ATOM     29 CL   UNL     1      10.246  -2.934  -7.016  0.00  0.00    -0.083 Cl
ENDBRANCH  20  23
BRANCH  21  30
ATOM     30  C   UNL     1       5.532  -4.044  -2.188  0.00  0.00    +0.039 A 
ATOM     31  C   UNL     1       4.173  -3.726  -2.134  0.00  0.00    +0.013 A 
ATOM     32  C   UNL     1       3.313  -4.512  -1.395  0.00  0.00    +0.003 A 
ATOM     33  C   UNL     1       3.795  -5.613  -0.708  0.00  0.00    +0.033 A 
ATOM     34  C   UNL     1       5.140  -5.933  -0.757  0.00  0.00    +0.127 A 
ATOM     35  C   UNL     1       6.010  -5.159  -1.497  0.00  0.00    +0.045 A 
BRANCH  34  36
ATOM     36  N   UNL     1       5.646  -7.111  -0.018  0.00  0.00    +0.056 N 
ATOM     37  O   UNL     1       4.884  -7.793   0.627  0.00  0.00    -0.126 OA
ATOM     38  O   UNL     1       6.821  -7.392  -0.060  0.00  0.00    -0.126 OA
ENDBRANCH  34  36
ENDBRANCH  21  30
ENDBRANCH   1  20
TORSDOF 9
