REMARK  Name = ZINC39663297
REMARK  4 active torsions:
REMARK  status: ('A' for Active; 'I' for Inactive)
REMARK    1  A    between atoms: C_4  and  C_7
REMARK    2  A    between atoms: C_10  and  C_12
REMARK    3  A    between atoms: C_16  and  C_25
REMARK    4  A    between atoms: N_27  and  C_28
REMARK                            x       y       z     vdW  Elec       q    Type
REMARK                         _______ _______ _______ _____ _____    ______ ____
ROOT
ATOM      1  C   UNL     1       7.431  -0.858  -0.097  0.00  0.00    +0.282 C 
ATOM      2  O   UNL     1       8.210  -1.793  -0.069  0.00  0.00    -0.267 OA
ATOM      3  N   UNL     1       7.894   0.407  -0.061  0.00  0.00    -0.294 N 
ATOM      4  C   UNL     1       7.109   1.663  -0.079  0.00  0.00    +0.121 C 
ATOM      5  C   UNL     1       7.840   2.596   0.912  0.00  0.00    +0.100 C 
ATOM      6  C   UNL     1       9.281   2.062   0.963  0.00  0.00    -0.004 C 
ATOM      7  C   UNL     1       9.306   0.856   0.012  0.00  0.00    +0.115 C 
ATOM      8  C   UNL     1      10.258   3.132   0.485  0.00  0.00    -0.010 C 
ATOM      9  C   UNL     1      11.689   2.598   0.599  0.00  0.00    -0.082 C 
ATOM     10  N   UNL     1      11.970   2.239   1.994  0.00  0.00    +0.379 N 
ATOM     11  C   UNL     1      11.087   1.145   2.417  0.00  0.00    -0.082 C 
ATOM     12  C   UNL     1       9.631   1.617   2.380  0.00  0.00    -0.010 C 
ATOM     13  H   UNL     1      12.931   1.946   2.078  0.00  0.00    -0.086 HD
ATOM     14  H   UNL     1      11.813   3.043   2.584  0.00  0.00    -0.086 HD
ENDROOT
BRANCH   1  18
ATOM     15  C   UNL     1       3.821  -0.764  -0.270  0.00  0.00    +0.136 A 
ATOM     16  C   UNL     1       4.005  -2.117  -0.276  0.00  0.00    +0.050 A 
ATOM     17  C   UNL     1       5.383  -2.345  -0.212  0.00  0.00    +0.055 A 
ATOM     18  C   UNL     1       5.989  -1.108  -0.170  0.00  0.00    +0.190 A 
ATOM     19  O   UNL     1       5.022  -0.166  -0.212  0.00  0.00    -0.450 OA
BRANCH  15  23
ATOM     20  C   UNL     1       0.072   1.225  -0.430  0.00  0.00    +0.000 A 
ATOM     21  C   UNL     1       1.241   1.962  -0.371  0.00  0.00    +0.001 A 
ATOM     22  C   UNL     1       2.462   1.323  -0.319  0.00  0.00    +0.011 A 
ATOM     23  C   UNL     1       2.517  -0.072  -0.325  0.00  0.00    +0.017 A 
ATOM     24  C   UNL     1       1.333  -0.811  -0.385  0.00  0.00    +0.011 A 
ATOM     25  C   UNL     1       0.119  -0.158  -0.437  0.00  0.00    +0.001 A 
ENDBRANCH  15  23
ENDBRANCH   1  18
BRANCH   5  26
ATOM     26  C   UNL     1       7.821   4.016   0.409  0.00  0.00    +0.218 C 
ATOM     27  O   UNL     1       7.831   4.237  -0.784  0.00  0.00    -0.275 OA
ATOM     28  N   UNL     1       7.793   5.041   1.283  0.00  0.00    -0.314 N 
ATOM     29  H   UNL     1       7.785   4.864   2.237  0.00  0.00    +0.149 HD
BRANCH  28  30
ATOM     30  C   UNL     1       7.775   6.421   0.794  0.00  0.00    +0.059 C 
ATOM     31  C   UNL     1       9.207   6.890   0.527  0.00  0.00    -0.056 C 
ATOM     32  N   UNL     1       9.518   8.053   1.361  0.00  0.00    +0.381 N 
ATOM     33  C   UNL     1       9.427   7.707   2.782  0.00  0.00    -0.078 C 
ATOM     34  C   UNL     1       8.002   7.265   3.124  0.00  0.00    -0.014 C 
ATOM     35  C   UNL     1       7.141   7.334   1.852  0.00  0.00    +0.004 C 
ATOM     36  C   UNL     1       7.170   8.776   1.328  0.00  0.00    -0.014 C 
ATOM     37  C   UNL     1       8.624   9.169   1.044  0.00  0.00    -0.078 C 
ATOM     38  H   UNL     1      10.466   8.339   1.170  0.00  0.00    -0.082 HD
ENDBRANCH  28  30
ENDBRANCH   5  26
TORSDOF 4
