REMARK  Name = ZINC20882975
REMARK  10 active torsions:
REMARK  status: ('A' for Active; 'I' for Inactive)
REMARK    1  A    between atoms: C_1  and  C_2
REMARK    2  A    between atoms: C_2  and  O_3
REMARK    3  A    between atoms: O_3  and  C_4
REMARK    4  A    between atoms: C_6  and  C_14
REMARK    5  A    between atoms: C_9  and  O_10
REMARK    6  A    between atoms: O_10  and  C_11
REMARK    7  A    between atoms: C_11  and  C_13
REMARK    8  A    between atoms: C_19  and  C_24
REMARK    9  A    between atoms: C_28  and  O_30
REMARK   10  A    between atoms: O_30  and  C_31
REMARK                            x       y       z     vdW  Elec       q    Type
REMARK                         _______ _______ _______ _____ _____    ______ ____
ROOT
ATOM      1  C   UNL     1      -2.510   1.034  -0.597  0.00  0.00    +0.136 C 
ATOM      2  C   UNL     1      -2.610   0.561  -2.028  0.00  0.00    +0.036 C 
ATOM      3  C   UNL     1      -2.506  -0.711  -2.447  0.00  0.00    +0.017 C 
ATOM      4  C   UNL     1      -2.601  -1.045  -3.926  0.00  0.00    +0.059 C 
ATOM      5  C   UNL     1      -3.551  -0.070  -4.620  0.00  0.00    +0.032 C 
ATOM      6  C   UNL     1      -2.991   1.344  -4.428  0.00  0.00    +0.088 C 
ATOM      7  C   UNL     1      -2.838   1.601  -2.959  0.00  0.00    +0.163 C 
ATOM      8  O   UNL     1      -2.913   2.745  -2.553  0.00  0.00    -0.292 OA
ATOM      9  N   UNL     1      -2.308  -1.782  -1.637  0.00  0.00    -0.316 N 
ATOM     10  C   UNL     1      -1.365  -1.841  -0.617  0.00  0.00    +0.052 A 
ATOM     11  C   UNL     1      -0.297  -2.721  -0.648  0.00  0.00    +0.025 A 
ATOM     12  C   UNL     1       0.582  -2.760   0.421  0.00  0.00    +0.002 A 
ATOM     13  C   UNL     1       0.392  -1.929   1.511  0.00  0.00    +0.002 A 
ATOM     14  C   UNL     1      -0.666  -1.037   1.536  0.00  0.00    +0.025 A 
ATOM     15  C   UNL     1      -1.535  -0.981   0.457  0.00  0.00    +0.049 A 
ATOM     16  N   UNL     1      -2.545  -0.028   0.386  0.00  0.00    -0.331 N 
ATOM     17  H   UNL     1      -2.919  -2.688  -1.764  0.00  0.00    +0.152 HD
ATOM     18  H   UNL     1      -3.383  -0.093   1.096  0.00  0.00    +0.147 HD
ENDROOT
BRANCH   1  21
ATOM     19  C   UNL     1      -0.057   3.836   0.039  0.00  0.00    +0.163 A 
ATOM     20  C   UNL     1      -1.243   3.135  -0.105  0.00  0.00    +0.055 A 
ATOM     21  C   UNL     1      -1.218   1.793  -0.434  0.00  0.00    -0.019 A 
ATOM     22  C   UNL     1      -0.010   1.143  -0.608  0.00  0.00    +0.009 A 
ATOM     23  C   UNL     1       1.178   1.836  -0.466  0.00  0.00    +0.050 A 
ATOM     24  C   UNL     1       1.159   3.183  -0.142  0.00  0.00    +0.173 A 
BRANCH  19  25
ATOM     25  O   UNL     1      -0.080   5.158   0.357  0.00  0.00    -0.489 OA
BRANCH  25  27
ATOM     26  C   UNL     1      -1.190   7.240   0.878  0.00  0.00    +0.048 C 
ATOM     27  C   UNL     1      -1.364   5.761   0.527  0.00  0.00    +0.226 C 
ENDBRANCH  25  27
ENDBRANCH  19  25
BRANCH  24  28
ATOM     28  O   UNL     1       2.327   3.867  -0.002  0.00  0.00    -0.422 OA
BRANCH  28  29
ATOM     29  C   UNL     1       2.784   4.042   1.248  0.00  0.00    +0.309 C 
ATOM     30  O   UNL     1       2.215   3.522   2.178  0.00  0.00    -0.251 OA
ATOM     31  C   UNL     1       4.008   4.887   1.491  0.00  0.00    +0.136 C 
ENDBRANCH  28  29
ENDBRANCH  24  28
ENDBRANCH   1  21
BRANCH   5  32
ATOM     32  C   UNL     1      -3.630  -0.392  -6.090  0.00  0.00    -0.040 A 
ATOM     33  C   UNL     1      -2.489  -0.350  -6.869  0.00  0.00    +0.004 A 
ATOM     34  C   UNL     1      -2.558  -0.646  -8.217  0.00  0.00    +0.004 A 
ATOM     35  C   UNL     1      -3.768  -0.985  -8.790  0.00  0.00    +0.045 A 
ATOM     36  C   UNL     1      -4.915  -1.028  -8.011  0.00  0.00    +0.120 A 
ATOM     37  C   UNL     1      -4.842  -0.736  -6.657  0.00  0.00    +0.049 A 
BRANCH  36  38
ATOM     38  O   UNL     1      -6.107  -1.361  -8.572  0.00  0.00    -0.495 OA
ATOM     39  C   UNL     1      -6.106  -1.655  -9.971  0.00  0.00    +0.277 C 
ENDBRANCH  36  38
ENDBRANCH   5  32
TORSDOF 7
