REMARK  Name = ZINC40173494
REMARK  11 active torsions:
REMARK  status: ('A' for Active; 'I' for Inactive)
REMARK    1  A    between atoms: C_1  and  C_2
REMARK    2  A    between atoms: C_2  and  C_4
REMARK    3  A    between atoms: C_2  and  N_26
REMARK    4  A    between atoms: N_6  and  C_7
REMARK    5  A    between atoms: C_8  and  C_22
REMARK    6  A    between atoms: C_9  and  C_12
REMARK    7  A    between atoms: C_22  and  O_24
REMARK    8  A    between atoms: O_24  and  C_25
REMARK    9  A    between atoms: C_30  and  S_31
REMARK   10  A    between atoms: S_31  and  C_32
REMARK   11  A    between atoms: C_32  and  C_33
REMARK                            x       y       z     vdW  Elec       q    Type
REMARK                         _______ _______ _______ _____ _____    ______ ____
ROOT
ATOM      1  C   UNL     1      -3.556  -0.686  -0.979  0.00  0.00    +0.086 A 
ATOM      2  C   UNL     1      -4.550  -0.465  -1.919  0.00  0.00    +0.095 A 
ATOM      3  C   UNL     1      -5.835  -1.092  -1.665  0.00  0.00    +0.005 A 
ATOM      4  C   UNL     1      -5.910  -1.825  -0.524  0.00  0.00    +0.056 A 
ATOM      5  S   UNL     1      -4.279  -1.670   0.171  0.00  0.00    -0.080 S 
ENDROOT
BRANCH   3   6
ATOM      6  C   UNL     1      -6.986  -0.940  -2.586  0.00  0.00    -0.013 A 
ATOM      7  C   UNL     1      -7.368   0.327  -3.025  0.00  0.00    +0.012 A 
ATOM      8  C   UNL     1      -8.440   0.465  -3.882  0.00  0.00    +0.050 A 
ATOM      9  C   UNL     1      -9.142  -0.653  -4.310  0.00  0.00    +0.162 A 
ATOM     10  C   UNL     1      -8.764  -1.920  -3.877  0.00  0.00    +0.163 A 
ATOM     11  C   UNL     1      -7.686  -2.064  -3.020  0.00  0.00    +0.058 A 
ATOM     12  O   UNL     1      -9.437  -3.028  -4.294  0.00  0.00    -0.485 OA
ATOM     13  C   UNL     1     -10.736  -2.818  -4.858  0.00  0.00    +0.270 C 
ATOM     14  C   UNL     1     -10.643  -1.657  -5.858  0.00  0.00    +0.270 C 
ATOM     15  O   UNL     1     -10.200  -0.493  -5.153  0.00  0.00    -0.485 OA
ENDBRANCH   3   6
BRANCH   1  18
ATOM     16  C   UNL     1      -1.412  -0.526   0.013  0.00  0.00    +0.240 C 
ATOM     17  O   UNL     1      -1.790  -1.233   0.922  0.00  0.00    -0.273 OA
ATOM     18  N   UNL     1      -2.256  -0.206  -0.988  0.00  0.00    -0.278 N 
ATOM     19  H   UNL     1      -1.953   0.360  -1.716  0.00  0.00    +0.155 HD
BRANCH  16  21
ATOM     20  C   UNL     1      -0.019   1.526   0.010  0.00  0.00    +0.041 C 
ATOM     21  C   UNL     1       0.002  -0.004   0.002  0.00  0.00    +0.175 C 
BRANCH  21  22
ATOM     22  N   UNL     1       0.711  -0.489   1.189  0.00  0.00    -0.279 N 
ATOM     23  C   UNL     1       0.358  -0.253   2.487  0.00  0.00    +0.216 A 
ATOM     24  N   UNL     1       1.232  -0.850   3.260  0.00  0.00    -0.113 NA
ATOM     25  N   UNL     1       2.171  -1.488   2.439  0.00  0.00    -0.121 NA
ATOM     26  C   UNL     1       1.837  -1.263   1.192  0.00  0.00    +0.194 A 
ATOM     27  N   UNL     1      -0.735   0.491   2.914  0.00  0.00    -0.328 N 
ATOM     28  H   UNL     1      -1.328   0.898   2.263  0.00  0.00    +0.145 HD
ATOM     29  H   UNL     1      -0.904   0.604   3.862  0.00  0.00    +0.145 HD
BRANCH  26  30
ATOM     30  S   UNL     1       2.693  -1.852  -0.232  0.00  0.00    -0.071 S 
BRANCH  30  31
ATOM     31  C   UNL     1       4.078  -2.803   0.451  0.00  0.00    +0.195 C 
BRANCH  31  32
ATOM     32  C   UNL     1       4.883  -3.357  -0.650  0.00  0.00    +0.074 C 
ATOM     33  N   UNL     1       5.504  -3.784  -1.499  0.00  0.00    -0.196 NA
ENDBRANCH  31  32
ENDBRANCH  30  31
ENDBRANCH  26  30
ENDBRANCH  21  22
ENDBRANCH  16  21
ENDBRANCH   1  18
BRANCH   2  34
ATOM     34  C   UNL     1      -4.316   0.356  -3.107  0.00  0.00    +0.342 C 
ATOM     35  O   UNL     1      -3.907  -0.158  -4.131  0.00  0.00    -0.245 OA
BRANCH  34  36
ATOM     36  O   UNL     1      -4.554   1.683  -3.067  0.00  0.00    -0.464 OA
ATOM     37  C   UNL     1      -4.304   2.424  -4.263  0.00  0.00    +0.280 C 
ENDBRANCH  34  36
ENDBRANCH   2  34
TORSDOF 9
