REMARK  Name = ZINC15723473
REMARK  2 active torsions:
REMARK  status: ('A' for Active; 'I' for Inactive)
REMARK    1  A    between atoms: C_7  and  C_10
REMARK    2  A    between atoms: N_12  and  C_13
REMARK                            x       y       z     vdW  Elec       q    Type
REMARK                         _______ _______ _______ _____ _____    ______ ____
ROOT
ATOM      1  C   UNL     1      -0.369  -0.713   1.151  0.00  0.00    +0.118 A 
ATOM      2  C   UNL     1       0.002  -0.004   0.002  0.00  0.00    -0.008 A 
ATOM      3  C   UNL     1       0.376  -0.673  -1.103  0.00  0.00    +0.050 A 
ATOM      4  N   UNL     1       0.380  -2.036  -1.095  0.00  0.00    -0.218 N 
ATOM      5  C   UNL     1       0.007  -2.699   0.040  0.00  0.00    +0.168 A 
ATOM      6  N   UNL     1      -0.355  -2.030   1.136  0.00  0.00    -0.235 NA
ATOM      7  C   UNL     1       0.101  -4.075  -0.246  0.00  0.00    +0.100 A 
ATOM      8  C   UNL     1       0.542  -4.187  -1.577  0.00  0.00    +0.150 A 
ATOM      9  N   UNL     1       0.704  -2.986  -2.068  0.00  0.00    -0.172 NA
ATOM     10  C   UNL     1       0.784   0.080  -2.350  0.00  0.00    +0.056 C 
ATOM     11  C   UNL     1       2.139   0.746  -2.093  0.00  0.00    +0.006 C 
ATOM     12  C   UNL     1       1.960   2.092  -1.419  0.00  0.00    +0.001 C 
ATOM     13  C   UNL     1       1.427   2.014  -0.001  0.00  0.00    +0.005 C 
ATOM     14  C   UNL     1      -0.018   1.509   0.010  0.00  0.00    +0.038 C 
ENDROOT
BRANCH   7  15
ATOM     15  C   UNL     1      -0.202  -5.179   0.669  0.00  0.00    +0.249 C 
ATOM     16  O   UNL     1      -0.577  -4.945   1.803  0.00  0.00    -0.270 OA
ATOM     17  N   UNL     1      -0.065  -6.454   0.254  0.00  0.00    -0.308 N 
ATOM     18  H   UNL     1       0.234  -6.641  -0.650  0.00  0.00    +0.149 HD
BRANCH  17  19
ATOM     19  C   UNL     1      -0.368  -7.558   1.168  0.00  0.00    +0.073 C 
ATOM     20  C   UNL     1       0.862  -7.860   2.028  0.00  0.00    +0.022 C 
ATOM     21  C   UNL     1       0.545  -9.013   2.983  0.00  0.00    +0.002 C 
ATOM     22  C   UNL     1       0.170 -10.257   2.174  0.00  0.00    +0.000 C 
ATOM     23  C   UNL     1      -1.059  -9.955   1.315  0.00  0.00    +0.002 C 
ATOM     24  C   UNL     1      -0.743  -8.802   0.360  0.00  0.00    +0.022 C 
ENDBRANCH  17  19
ENDBRANCH   7  15
TORSDOF 2
