REMARK  Name = ZINC44831211
REMARK  3 active torsions:
REMARK  status: ('A' for Active; 'I' for Inactive)
REMARK    1  A    between atoms: C_3  and  C_10
REMARK    2  A    between atoms: C_5  and  N_7
REMARK    3  A    between atoms: C_16  and  C_18
REMARK                            x       y       z     vdW  Elec       q    Type
REMARK                         _______ _______ _______ _____ _____    ______ ____
ROOT
ATOM      1  C   UNL     1       3.657   2.161  -0.022  0.00  0.00    +0.130 A 
ATOM      2  N   UNL     1       3.843   3.473  -0.011  0.00  0.00    -0.205 NA
ATOM      3  C   UNL     1       5.082   3.914  -0.022  0.00  0.00    +0.230 A 
ATOM      4  N   UNL     1       6.055   3.027  -0.042  0.00  0.00    -0.174 NA
ATOM      5  S   UNL     1       5.229   1.568  -0.040  0.00  0.00    +0.035 S 
ATOM      6  N   UNL     1       5.358   5.283  -0.013  0.00  0.00    -0.253 N 
ATOM      7  C   UNL     1       6.636   5.714  -0.024  0.00  0.00    +0.234 C 
ATOM      8  O   UNL     1       7.545   4.912  -0.042  0.00  0.00    -0.274 OA
ATOM      9  H   UNL     1       4.631   5.925   0.002  0.00  0.00    +0.158 HD
ENDROOT
BRANCH   1  12
ATOM     10  C   UNL     1      -0.017   1.379   0.010  0.00  0.00    +0.003 A 
ATOM     11  C   UNL     1       1.167   2.088   0.002  0.00  0.00    +0.011 A 
ATOM     12  C   UNL     1       2.385   1.407  -0.013  0.00  0.00    +0.011 A 
ATOM     13  C   UNL     1       2.397   0.012  -0.021  0.00  0.00    +0.043 A 
ATOM     14  C   UNL     1       1.206  -0.685  -0.013  0.00  0.00    +0.127 A 
ATOM     15  C   UNL     1       0.002  -0.004   0.002  0.00  0.00    +0.033 A 
BRANCH  14  16
ATOM     16  N   UNL     1       1.217  -2.166  -0.022  0.00  0.00    +0.056 N 
ATOM     17  O   UNL     1       2.269  -2.762  -0.035  0.00  0.00    -0.126 OA
ATOM     18  O   UNL     1       0.175  -2.778  -0.015  0.00  0.00    -0.126 OA
ENDBRANCH  14  16
ENDBRANCH   1  12
BRANCH   7  19
ATOM     19  C   UNL     1       6.933   7.191  -0.014  0.00  0.00    +0.204 C 
ATOM     20 CL   UNL     1       8.718   7.444  -0.032  0.00  0.00    -0.116 Cl
ENDBRANCH   7  19
TORSDOF 3
