REMARK  Name = ZINC20762530
REMARK  12 active torsions:
REMARK  status: ('A' for Active; 'I' for Inactive)
REMARK    1  A    between atoms: C_1  and  O_2
REMARK    2  A    between atoms: O_2  and  C_3
REMARK    3  A    between atoms: C_7  and  C_9
REMARK    4  A    between atoms: N_22  and  C_23
REMARK    5  A    between atoms: C_23  and  C_25
REMARK    6  A    between atoms: C_23  and  C_31
REMARK    7  A    between atoms: C_25  and  C_26
REMARK    8  A    between atoms: C_26  and  C_27
REMARK    9  A    between atoms: C_27  and  O_29
REMARK   10  A    between atoms: O_29  and  C_30
REMARK   11  A    between atoms: C_31  and  O_33
REMARK   12  A    between atoms: O_33  and  C_34
REMARK                            x       y       z     vdW  Elec       q    Type
REMARK                         _______ _______ _______ _____ _____    ______ ____
ROOT
ATOM      1  C   UNL     1       1.330  -4.119  -2.285  0.00  0.00    +0.156 C 
ATOM      2  C   UNL     1       2.729  -4.602  -1.987  0.00  0.00    +0.062 A 
ATOM      3  C   UNL     1       3.566  -5.099  -2.922  0.00  0.00    +0.040 A 
ATOM      4  N   UNL     1       4.726  -5.423  -2.286  0.00  0.00    -0.349 N 
ATOM      5  H   UNL     1       5.521  -5.801  -2.693  0.00  0.00    +0.166 HD
ATOM      6  C   UNL     1       4.561  -5.116  -0.979  0.00  0.00    +0.171 A 
ATOM      7  N   UNL     1       3.360  -4.625  -0.811  0.00  0.00    -0.348 N 
ATOM      8  C   UNL     1       3.231  -5.253  -4.383  0.00  0.00    +0.074 C 
ATOM      9  C   UNL     1       2.016  -4.374  -4.706  0.00  0.00    +0.116 C 
ATOM     10  N   UNL     1       1.000  -4.549  -3.656  0.00  0.00    -0.273 N 
ATOM     11  C   UNL     1      -0.201  -5.090  -3.939  0.00  0.00    +0.304 C 
ATOM     12  O   UNL     1      -0.424  -5.528  -5.051  0.00  0.00    -0.253 OA
ATOM     13  N   UNL     1      -1.156  -5.146  -2.989  0.00  0.00    -0.286 N 
ATOM     14  H   UNL     1      -1.006  -4.730  -2.126  0.00  0.00    +0.151 HD
ATOM     15  H   UNL     1       2.988  -4.326   0.034  0.00  0.00    +0.167 HD
ENDROOT
BRANCH   1  20
ATOM     16  C   UNL     1       2.120  -0.463  -2.829  0.00  0.00    +0.120 A 
ATOM     17  C   UNL     1       1.173   0.145  -2.018  0.00  0.00    +0.045 A 
ATOM     18  C   UNL     1       0.282  -0.627  -1.298  0.00  0.00    +0.004 A 
ATOM     19  C   UNL     1       0.334  -2.006  -1.386  0.00  0.00    +0.006 A 
ATOM     20  C   UNL     1       1.277  -2.615  -2.193  0.00  0.00    -0.018 A 
ATOM     21  C   UNL     1       2.166  -1.847  -2.919  0.00  0.00    +0.051 A 
BRANCH  16  23
ATOM     22  C   UNL     1       2.892   1.713  -3.396  0.00  0.00    +0.277 C 
ATOM     23  O   UNL     1       2.997   0.294  -3.538  0.00  0.00    -0.495 OA
ENDBRANCH  16  23
ENDBRANCH   1  20
BRANCH  13  24
ATOM     24  C   UNL     1      -2.420  -5.834  -3.261  0.00  0.00    +0.184 C 
BRANCH  24  25
ATOM     25  C   UNL     1      -3.368  -4.889  -3.954  0.00  0.00    +0.327 C 
ATOM     26  O   UNL     1      -3.023  -3.757  -4.196  0.00  0.00    -0.249 OA
BRANCH  25  27
ATOM     27  O   UNL     1      -4.596  -5.306  -4.302  0.00  0.00    -0.467 OA
ATOM     28  C   UNL     1      -5.441  -4.357  -4.956  0.00  0.00    +0.280 C 
ENDBRANCH  25  27
ENDBRANCH  24  25
BRANCH  24  29
ATOM     29  C   UNL     1      -3.040  -6.302  -1.942  0.00  0.00    +0.045 C 
BRANCH  29  30
ATOM     30  C   UNL     1      -2.135  -7.355  -1.299  0.00  0.00    +0.123 C 
BRANCH  30  31
ATOM     31  C   UNL     1      -2.745  -7.816  -0.001  0.00  0.00    +0.307 C 
ATOM     32  O   UNL     1      -3.796  -7.349   0.372  0.00  0.00    -0.251 OA
BRANCH  31  33
ATOM     33  O   UNL     1      -2.122  -8.744   0.742  0.00  0.00    -0.468 OA
ATOM     34  C   UNL     1      -2.757  -9.134   1.961  0.00  0.00    +0.280 C 
ENDBRANCH  31  33
ENDBRANCH  30  31
ENDBRANCH  29  30
ENDBRANCH  24  29
ENDBRANCH  13  24
TORSDOF 9
