REMARK  Name = ZINC17446452
REMARK  6 active torsions:
REMARK  status: ('A' for Active; 'I' for Inactive)
REMARK    1  A    between atoms: C_3  and  S_8
REMARK    2  A    between atoms: S_8  and  N_11
REMARK    3  A    between atoms: N_11  and  C_12
REMARK    4  A    between atoms: C_14  and  C_19
REMARK    5  A    between atoms: N_21  and  N_22
REMARK    6  A    between atoms: C_23  and  C_25
REMARK                            x       y       z     vdW  Elec       q    Type
REMARK                         _______ _______ _______ _____ _____    ______ ____
ROOT
ATOM      1  C   UNL     1       1.235   3.087   0.176  0.00  0.00    +0.067 A 
ATOM      2  C   UNL     1      -0.017   3.675   0.265  0.00  0.00    +0.039 A 
ATOM      3  C   UNL     1      -1.147   2.877   0.441  0.00  0.00    +0.040 A 
ATOM      4  C   UNL     1      -1.012   1.490   0.521  0.00  0.00    +0.014 A 
ATOM      5  C   UNL     1       0.238   0.913   0.437  0.00  0.00    +0.022 A 
ATOM      6  C   UNL     1       1.360   1.704   0.262  0.00  0.00    +0.063 A 
ATOM      7 CL   UNL     1       2.929   0.968   0.151  0.00  0.00    -0.082 Cl
ENDROOT
BRANCH   3   8
ATOM      8  C   UNL     1      -2.485   3.498   0.537  0.00  0.00    +0.260 C 
ATOM      9  O   UNL     1      -2.602   4.706   0.463  0.00  0.00    -0.269 OA
ATOM     10  N   UNL     1      -3.576   2.725   0.707  0.00  0.00    -0.230 N 
ATOM     11  H   UNL     1      -3.483   1.762   0.766  0.00  0.00    +0.173 HD
BRANCH  10  12
ATOM     12  N   UNL     1      -4.844   3.314   0.798  0.00  0.00    -0.230 N 
ATOM     13  C   UNL     1      -5.935   2.541   0.968  0.00  0.00    +0.267 C 
ATOM     14  O   UNL     1      -5.819   1.332   1.042  0.00  0.00    -0.268 OA
ATOM     15  H   UNL     1      -4.937   4.277   0.739  0.00  0.00    +0.173 HD
BRANCH  13  16
ATOM     16  C   UNL     1      -7.262   3.156   1.063  0.00  0.00    +0.076 A 
ATOM     17  C   UNL     1      -8.491   2.554   1.235  0.00  0.00    +0.024 A 
ATOM     18  C   UNL     1      -9.622   3.368   1.296  0.00  0.00    -0.036 A 
ATOM     19  C   UNL     1      -9.419   4.707   1.177  0.00  0.00    -0.006 A 
ATOM     20  S   UNL     1      -7.709   4.881   0.994  0.00  0.00    -0.088 S 
ATOM     21  C   UNL     1     -10.707   5.479   1.252  0.00  0.00    +0.043 C 
ATOM     22  C   UNL     1     -11.809   4.426   1.001  0.00  0.00    +0.010 C 
ATOM     23  C   UNL     1     -11.124   3.130   1.475  0.00  0.00    +0.036 C 
ENDBRANCH  13  16
ENDBRANCH  10  12
ENDBRANCH   3   8
BRANCH   1  24
ATOM     24  N   UNL     1       2.371   3.882   0.000  0.00  0.00    -0.215 N 
ATOM     25  H   UNL     1       3.106   3.563  -0.546  0.00  0.00    +0.174 HD
BRANCH  24  26
ATOM     26  S   UNL     1       2.461   5.368   0.725  0.00  0.00    +0.072 S 
ATOM     27  O   UNL     1       3.768   5.864   0.472  0.00  0.00    -0.150 OA
ATOM     28  O   UNL     1       1.290   6.078   0.343  0.00  0.00    -0.150 OA
BRANCH  26  31
ATOM     29  C   UNL     1       3.408   4.700   4.571  0.00  0.00    +0.040 A 
ATOM     30  C   UNL     1       3.495   4.904   3.207  0.00  0.00    +0.031 A 
ATOM     31  C   UNL     1       2.348   5.108   2.464  0.00  0.00    +0.109 A 
ATOM     32  C   UNL     1       1.113   5.114   3.084  0.00  0.00    +0.031 A 
ATOM     33  C   UNL     1       1.023   4.906   4.447  0.00  0.00    +0.040 A 
ATOM     34  C   UNL     1       2.171   4.701   5.193  0.00  0.00    +0.124 A 
ATOM     35  F   UNL     1       2.085   4.501   6.527  0.00  0.00    -0.205 F 
ENDBRANCH  26  31
ENDBRANCH  24  26
ENDBRANCH   1  24
TORSDOF 6
