REMARK  Name = ZINC13063845
REMARK  11 active torsions:
REMARK  status: ('A' for Active; 'I' for Inactive)
REMARK    1  A    between atoms: C_1  and  C_2
REMARK    2  A    between atoms: C_2  and  C_3
REMARK    3  A    between atoms: C_3  and  C_5
REMARK    4  A    between atoms: C_3  and  N_67
REMARK    5  A    between atoms: N_9  and  C_10
REMARK    6  A    between atoms: C_10  and  C_11
REMARK    7  A    between atoms: C_17  and  C_18
REMARK    8  A    between atoms: C_17  and  N_67
REMARK    9  A    between atoms: C_24  and  C_25
REMARK   10  A    between atoms: C_24  and  N_67
REMARK   11  A    between atoms: C_30  and  C_37
REMARK                            x       y       z     vdW  Elec       q    Type
REMARK                         _______ _______ _______ _____ _____    ______ ____
ROOT
ATOM      1  N   UNL     1      -2.966   0.802  -1.800  0.00  0.00    +0.392 N 
ATOM      2  H   UNL     1      -3.008   1.486  -2.565  0.00  0.00    -0.080 HD
ENDROOT
BRANCH   1   3
ATOM      3  C   UNL     1      -4.215   0.012  -1.792  0.00  0.00    +0.003 C 
BRANCH   3   4
ATOM      4  C   UNL     1      -5.352   0.906  -2.213  0.00  0.00    +0.138 A 
ATOM      5  N   UNL     1      -5.555   2.144  -1.834  0.00  0.00    -0.115 NA
ATOM      6  N   UNL     1      -6.628   2.566  -2.409  0.00  0.00    -0.023 NA
ATOM      7  N   UNL     1      -7.115   1.628  -3.146  0.00  0.00    -0.044 NA
ATOM      8  N   UNL     1      -6.354   0.591  -3.055  0.00  0.00    -0.228 N 
BRANCH   8   9
ATOM      9  C   UNL     1      -6.545  -0.691  -3.738  0.00  0.00    +0.178 C 
BRANCH   9  10
ATOM     10  C   UNL     1      -7.397  -1.613  -2.864  0.00  0.00    +0.140 C 
ATOM     11  C   UNL     1      -7.508  -3.005  -3.522  0.00  0.00    +0.035 C 
ATOM     12  C   UNL     1      -8.984  -3.389  -3.234  0.00  0.00    +0.031 C 
ATOM     13  C   UNL     1      -9.670  -2.002  -3.312  0.00  0.00    +0.160 C 
ATOM     14  O   UNL     1      -8.722  -1.083  -2.747  0.00  0.00    -0.375 OA
ENDBRANCH   9  10
ENDBRANCH   8   9
ENDBRANCH   3   4
BRANCH   3  16
ATOM     15  C   UNL     1      -3.405  -1.552  -0.019  0.00  0.00    +0.002 C 
ATOM     16  C   UNL     1      -4.490  -0.539  -0.392  0.00  0.00    -0.011 C 
ENDBRANCH   3  16
ENDBRANCH   1   3
BRANCH   1  17
ATOM     17  C   UNL     1      -1.806  -0.088  -2.015  0.00  0.00    -0.042 C 
BRANCH  17  18
ATOM     18  C   UNL     1      -1.831  -0.581  -3.439  0.00  0.00    -0.064 A 
ATOM     19  C   UNL     1      -2.390  -1.810  -3.736  0.00  0.00    +0.002 A 
ATOM     20  C   UNL     1      -2.417  -2.260  -5.043  0.00  0.00    +0.000 A 
ATOM     21  C   UNL     1      -1.876  -1.485  -6.052  0.00  0.00    +0.000 A 
ATOM     22  C   UNL     1      -1.312  -0.259  -5.755  0.00  0.00    +0.000 A 
ATOM     23  C   UNL     1      -1.289   0.194  -4.449  0.00  0.00    +0.002 A 
ENDBRANCH  17  18
ENDBRANCH   1  17
BRANCH   1  24
ATOM     24  C   UNL     1      -2.817   1.524  -0.519  0.00  0.00    -0.036 C 
BRANCH  24  25
ATOM     25  C   UNL     1      -1.729   2.556  -0.667  0.00  0.00    +0.001 A 
ATOM     26  C   UNL     1      -2.048   3.831  -0.999  0.00  0.00    +0.017 A 
ATOM     27  C   UNL     1      -0.968   4.809  -1.141  0.00  0.00    -0.001 A 
ATOM     28  C   UNL     1      -1.235   6.138  -1.486  0.00  0.00    +0.010 A 
ATOM     29  C   UNL     1      -0.204   7.025  -1.609  0.00  0.00    +0.004 A 
ATOM     30  C   UNL     1       1.107   6.620  -1.397  0.00  0.00    -0.048 A 
ATOM     31  C   UNL     1       1.393   5.316  -1.056  0.00  0.00    +0.029 A 
ATOM     32  C   UNL     1       0.360   4.394  -0.923  0.00  0.00    +0.049 A 
ATOM     33  N   UNL     1       0.618   3.083  -0.583  0.00  0.00    -0.322 N 
ATOM     34  H   UNL     1       1.533   2.799  -0.434  0.00  0.00    +0.169 HD
ATOM     35  C   UNL     1      -0.382   2.193  -0.455  0.00  0.00    +0.251 A 
ATOM     36  O   UNL     1      -0.117   1.042  -0.153  0.00  0.00    -0.268 OA
ATOM     37  C   UNL     1       2.228   7.617  -1.539  0.00  0.00    +0.044 C 
ENDBRANCH  24  25
ENDBRANCH   1  24
TORSDOF 9
