REMARK  Name = ZINC35804533
REMARK  5 active torsions:
REMARK  status: ('A' for Active; 'I' for Inactive)
REMARK    1  A    between atoms: C_1  and  C_2
REMARK    2  A    between atoms: C_2  and  C_3
REMARK    3  A    between atoms: N_22  and  C_25
REMARK    4  A    between atoms: C_28  and  O_31
REMARK    5  A    between atoms: O_31  and  C_32
REMARK                            x       y       z     vdW  Elec       q    Type
REMARK                         _______ _______ _______ _____ _____    ______ ____
ROOT
ATOM      1  C   UNL     1      -1.249  -0.827   0.050  0.00  0.00    -0.047 A 
ATOM      2  C   UNL     1      -1.734  -1.311   1.251  0.00  0.00    +0.005 A 
ATOM      3  C   UNL     1      -2.959  -1.943   1.304  0.00  0.00    +0.024 A 
ATOM      4  C   UNL     1      -3.717  -2.098   0.145  0.00  0.00    +0.036 A 
ATOM      5  C   UNL     1      -3.220  -1.607  -1.058  0.00  0.00    -0.027 A 
ATOM      6  C   UNL     1      -1.999  -0.972  -1.104  0.00  0.00    +0.008 A 
ATOM      7  C   UNL     1      -4.258  -1.929  -2.095  0.00  0.00    +0.053 C 
ATOM      8  C   UNL     1      -3.686  -2.819  -3.204  0.00  0.00    +0.089 C 
ATOM      9  C   UNL     1      -3.371  -1.844  -4.370  0.00  0.00    +0.074 C 
ATOM     10  C   UNL     1      -3.768  -0.450  -3.850  0.00  0.00    -0.054 C 
ATOM     11  N   UNL     1      -4.759  -0.712  -2.756  0.00  0.00    +0.395 N 
ATOM     12  C   UNL     1      -6.031  -1.024  -3.450  0.00  0.00    -0.076 C 
ATOM     13  C   UNL     1      -6.065  -0.084  -4.672  0.00  0.00    -0.020 C 
ATOM     14  C   UNL     1      -4.556   0.295  -4.943  0.00  0.00    -0.016 C 
ATOM     15  C   UNL     1      -4.327  -2.279  -5.458  0.00  0.00    +0.228 C 
ATOM     16  O   UNL     1      -4.417  -1.773  -6.556  0.00  0.00    -0.275 OA
ATOM     17  N   UNL     1      -5.058  -3.311  -5.020  0.00  0.00    -0.210 N 
ATOM     18  C   UNL     1      -4.777  -3.708  -3.758  0.00  0.00    +0.229 C 
ATOM     19  O   UNL     1      -5.307  -4.621  -3.162  0.00  0.00    -0.275 OA
ATOM     20  C   UNL     1      -5.355  -2.634  -1.342  0.00  0.00    +0.212 C 
ATOM     21  O   UNL     1      -6.389  -3.066  -1.806  0.00  0.00    -0.277 OA
ATOM     22  N   UNL     1      -4.966  -2.691  -0.055  0.00  0.00    -0.286 N 
ATOM     23  H   UNL     1      -5.491  -3.098   0.652  0.00  0.00    +0.155 HD
ATOM     24  H   UNL     1      -4.841   0.066  -2.119  0.00  0.00    -0.079 HD
ENDROOT
BRANCH  17  25
ATOM     25  C   UNL     1      -6.037  -3.936  -5.808  0.00  0.00    +0.044 A 
ATOM     26  C   UNL     1      -5.665  -4.659  -6.933  0.00  0.00    +0.027 A 
ATOM     27  C   UNL     1      -6.628  -5.275  -7.707  0.00  0.00    +0.047 A 
ATOM     28  C   UNL     1      -7.967  -5.171  -7.361  0.00  0.00    +0.120 A 
ATOM     29  C   UNL     1      -8.340  -4.448  -6.237  0.00  0.00    +0.047 A 
ATOM     30  C   UNL     1      -7.377  -3.837  -5.459  0.00  0.00    +0.027 A 
BRANCH  28  31
ATOM     31  O   UNL     1      -8.915  -5.777  -8.124  0.00  0.00    -0.495 OA
ATOM     32  C   UNL     1     -10.275  -5.629  -7.709  0.00  0.00    +0.277 C 
ENDBRANCH  28  31
ENDBRANCH  17  25
BRANCH   1  34
ATOM     33  C   UNL     1      -0.098   1.361   0.239  0.00  0.00    +0.009 C 
ATOM     34  C   UNL     1       0.090  -0.138  -0.001  0.00  0.00    +0.032 C 
ENDBRANCH   1  34
TORSDOF 3
