REMARK  Name = ZINC12875599
REMARK  9 active torsions:
REMARK  status: ('A' for Active; 'I' for Inactive)
REMARK    1  A    between atoms: C_1  and  C_2
REMARK    2  A    between atoms: C_2  and  C_3
REMARK    3  A    between atoms: C_2  and  C_4
REMARK    4  A    between atoms: C_4  and  C_5
REMARK    5  A    between atoms: C_5  and  C_7
REMARK    6  A    between atoms: C_5  and  N_19
REMARK    7  A    between atoms: N_9  and  C_10
REMARK    8  A    between atoms: C_10  and  C_11
REMARK    9  A    between atoms: C_22  and  C_38
REMARK                            x       y       z     vdW  Elec       q    Type
REMARK                         _______ _______ _______ _____ _____    ______ ____
ROOT
ATOM      1  N   UNL     1      -3.766   1.797  -0.096  0.00  0.00    -0.212 N 
ATOM      2  C   UNL     1      -4.646   1.916   0.922  0.00  0.00    +0.253 C 
ATOM      3  O   UNL     1      -4.627   1.329   1.982  0.00  0.00    -0.272 OA
ATOM      4  C   UNL     1      -5.660   2.937   0.462  0.00  0.00    +0.153 C 
ATOM      5  C   UNL     1      -7.062   2.377   0.488  0.00  0.00    +0.053 A 
ATOM      6  C   UNL     1      -7.859   2.362  -0.618  0.00  0.00    -0.015 A 
ATOM      7  C   UNL     1      -9.117   1.765  -0.204  0.00  0.00    +0.003 A 
ATOM      8  C   UNL     1     -10.307   1.504  -0.889  0.00  0.00    +0.010 A 
ATOM      9  C   UNL     1     -11.318   0.913  -0.172  0.00  0.00    +0.001 A 
ATOM     10  C   UNL     1     -11.177   0.586   1.166  0.00  0.00    +0.002 A 
ATOM     11  C   UNL     1     -10.011   0.835   1.869  0.00  0.00    +0.026 A 
ATOM     12  C   UNL     1      -8.967   1.435   1.167  0.00  0.00    +0.047 A 
ATOM     13  N   UNL     1      -7.711   1.814   1.540  0.00  0.00    -0.356 N 
ATOM     14  H   UNL     1      -7.335   1.703   2.428  0.00  0.00    +0.166 HD
ATOM     15  C   UNL     1      -7.502   2.870  -1.991  0.00  0.00    +0.056 C 
ATOM     16  C   UNL     1      -6.235   3.735  -1.928  0.00  0.00    +0.115 C 
ATOM     17  N   UNL     1      -5.319   3.113  -0.970  0.00  0.00    -0.266 N 
ATOM     18  C   UNL     1      -4.128   2.540  -1.153  0.00  0.00    +0.313 C 
ATOM     19  O   UNL     1      -3.455   2.672  -2.157  0.00  0.00    -0.252 OA
ATOM     20  C   UNL     1      -5.552   4.245   1.246  0.00  0.00    +0.048 C 
ENDROOT
BRANCH   1  21
ATOM     21  C   UNL     1      -2.561   0.964  -0.049  0.00  0.00    +0.171 C 
BRANCH  21  22
ATOM     22  C   UNL     1      -1.340   1.843  -0.121  0.00  0.00    +0.234 C 
ATOM     23  O   UNL     1      -1.463   3.046  -0.204  0.00  0.00    -0.274 OA
ATOM     24  N   UNL     1      -0.110   1.291  -0.094  0.00  0.00    -0.310 N 
ATOM     25  H   UNL     1      -0.012   0.329  -0.028  0.00  0.00    +0.149 HD
BRANCH  24  26
ATOM     26  C   UNL     1       1.078   2.146  -0.171  0.00  0.00    +0.144 C 
BRANCH  26  27
ATOM     27  C   UNL     1       2.316   1.288  -0.128  0.00  0.00    +0.023 A 
ATOM     28  C   UNL     1       2.906   0.983   1.087  0.00  0.00    +0.129 A 
ATOM     29  C   UNL     1       4.040   0.191   1.125  0.00  0.00    +0.039 A 
ATOM     30  C   UNL     1       4.591  -0.286  -0.050  0.00  0.00    +0.004 A 
ATOM     31  C   UNL     1       4.006   0.024  -1.263  0.00  0.00    +0.020 A 
ATOM     32  C   UNL     1       2.868   0.811  -1.303  0.00  0.00    +0.048 A 
ATOM     33 CL   UNL     1       2.134   1.198  -2.828  0.00  0.00    -0.083 Cl
ATOM     34  F   UNL     1       2.371   1.454   2.235  0.00  0.00    -0.205 F 
ENDBRANCH  26  27
ENDBRANCH  24  26
ENDBRANCH  21  22
BRANCH  21  35
ATOM     35  C   UNL     1      -2.564  -0.004  -1.233  0.00  0.00    +0.035 C 
BRANCH  35  37
ATOM     36  C   UNL     1      -3.853  -1.814  -2.376  0.00  0.00    +0.007 C 
ATOM     37  C   UNL     1      -3.765  -0.946  -1.120  0.00  0.00    -0.015 C 
ATOM     38  C   UNL     1      -3.596  -1.842   0.109  0.00  0.00    +0.007 C 
ENDBRANCH  35  37
ENDBRANCH  21  35
ENDBRANCH   1  21
TORSDOF 6
