REMARK  Name = ZINC08958545
REMARK  18 active torsions:
REMARK  status: ('A' for Active; 'I' for Inactive)
REMARK    1  A    between atoms: C_1  and  C_2
REMARK    2  A    between atoms: C_2  and  C_3
REMARK    3  A    between atoms: C_2  and  C_4
REMARK    4  A    between atoms: C_4  and  N_5
REMARK    5  A    between atoms: N_5  and  C_6
REMARK    6  A    between atoms: N_5  and  S_10
REMARK    7  A    between atoms: C_6  and  C_7
REMARK    8  A    between atoms: C_7  and  C_8
REMARK    9  A    between atoms: C_7  and  C_9
REMARK   10  A    between atoms: S_10  and  C_13
REMARK   11  A    between atoms: C_16  and  C_19
REMARK   12  A    between atoms: C_19  and  N_21
REMARK   13  A    between atoms: N_23  and  C_33
REMARK   14  A    between atoms: C_25  and  O_31
REMARK   15  A    between atoms: O_31  and  C_32
REMARK   16  A    between atoms: C_33  and  C_34
REMARK   17  A    between atoms: C_34  and  O_35
REMARK   18  A    between atoms: O_35  and  C_36
REMARK                            x       y       z     vdW  Elec       q    Type
REMARK                         _______ _______ _______ _____ _____    ______ ____
ROOT
ATOM      1  C   UNL     1      -5.916  10.231  -0.894  0.00  0.00    +0.106 A 
ATOM      2  C   UNL     1      -4.592  10.572  -1.104  0.00  0.00    +0.029 A 
ATOM      3  C   UNL     1      -3.710   9.641  -1.614  0.00  0.00    +0.015 A 
ATOM      4  C   UNL     1      -4.156   8.355  -1.919  0.00  0.00    +0.039 A 
ATOM      5  C   UNL     1      -5.494   8.020  -1.710  0.00  0.00    +0.015 A 
ATOM      6  C   UNL     1      -6.365   8.957  -1.195  0.00  0.00    +0.029 A 
ENDROOT
BRANCH   1   7
ATOM      7  S   UNL     1      -7.037  11.425  -0.242  0.00  0.00    +0.061 S 
ATOM      8  O   UNL     1      -8.092  10.698   0.373  0.00  0.00    -0.153 OA
ATOM      9  O   UNL     1      -6.252  12.374   0.467  0.00  0.00    -0.153 OA
BRANCH   7  10
ATOM     10  N   UNL     1      -7.701  12.227  -1.529  0.00  0.00    -0.176 NA
BRANCH  10  11
ATOM     11  C   UNL     1      -8.933  11.728  -2.146  0.00  0.00    +0.112 C 
BRANCH  11  13
ATOM     12  C   UNL     1     -11.370  12.172  -2.473  0.00  0.00    +0.008 C 
ATOM     13  C   UNL     1     -10.107  12.617  -1.732  0.00  0.00    -0.001 C 
ATOM     14  C   UNL     1     -10.332  12.494  -0.223  0.00  0.00    +0.008 C 
ENDBRANCH  11  13
ENDBRANCH  10  11
BRANCH  10  15
ATOM     15  C   UNL     1      -7.058  13.435  -2.051  0.00  0.00    +0.112 C 
BRANCH  15  16
ATOM     16  C   UNL     1      -6.104  13.056  -3.185  0.00  0.00    -0.001 C 
ATOM     17  C   UNL     1      -6.900  12.432  -4.333  0.00  0.00    +0.008 C 
ATOM     18  C   UNL     1      -5.384  14.309  -3.686  0.00  0.00    +0.008 C 
ENDBRANCH  15  16
ENDBRANCH  10  15
ENDBRANCH   7  10
ENDBRANCH   1   7
BRANCH   4  19
ATOM     19  C   UNL     1      -3.215   7.352  -2.468  0.00  0.00    +0.269 C 
ATOM     20  O   UNL     1      -2.047   7.650  -2.654  0.00  0.00    -0.268 OA
BRANCH  19  21
ATOM     21  N   UNL     1      -3.645   6.121  -2.759  0.00  0.00    -0.152 NA
ATOM     22  C   UNL     1      -2.800   5.221  -3.251  0.00  0.00    +0.167 A 
ATOM     23  N   UNL     1      -3.052   3.932  -3.603  0.00  0.00    -0.316 N 
ATOM     24  C   UNL     1      -2.034   3.138  -4.102  0.00  0.00    +0.100 A 
ATOM     25  C   UNL     1      -2.099   1.795  -4.522  0.00  0.00    +0.145 A 
ATOM     26  C   UNL     1      -0.974   1.151  -4.993  0.00  0.00    +0.048 A 
ATOM     27  C   UNL     1       0.244   1.804  -5.077  0.00  0.00    +0.005 A 
ATOM     28  C   UNL     1       0.332   3.125  -4.675  0.00  0.00    +0.017 A 
ATOM     29  C   UNL     1      -0.787   3.769  -4.200  0.00  0.00    +0.042 A 
ATOM     30  S   UNL     1      -1.111   5.407  -3.597  0.00  0.00    -0.052 S 
BRANCH  25  31
ATOM     31  O   UNL     1      -3.281   1.127  -4.458  0.00  0.00    -0.493 OA
ATOM     32  C   UNL     1      -3.280  -0.234  -4.894  0.00  0.00    +0.277 C 
ENDBRANCH  25  31
BRANCH  23  33
ATOM     33  C   UNL     1      -4.402   3.383  -3.454  0.00  0.00    +0.152 C 
BRANCH  33  34
ATOM     34  C   UNL     1      -5.194   3.621  -4.741  0.00  0.00    +0.181 C 
BRANCH  34  35
ATOM     35  O   UNL     1      -6.511   3.085  -4.596  0.00  0.00    -0.381 OA
ATOM     36  C   UNL     1      -7.338   3.256  -5.749  0.00  0.00    +0.194 C 
ENDBRANCH  34  35
ENDBRANCH  33  34
ENDBRANCH  23  33
ENDBRANCH  19  21
ENDBRANCH   4  19
TORSDOF 12
