REMARK  Name = ZINC52637249
REMARK  4 active torsions:
REMARK  status: ('A' for Active; 'I' for Inactive)
REMARK    1  A    between atoms: C_1  and  N_2
REMARK    2  A    between atoms: C_3  and  N_9
REMARK    3  A    between atoms: C_15  and  C_17
REMARK    4  A    between atoms: N_35  and  C_37
REMARK                            x       y       z     vdW  Elec       q    Type
REMARK                         _______ _______ _______ _____ _____    ______ ____
ROOT
ATOM      1  C   UNL     1      -6.666   1.803  -0.883  0.00  0.00    +0.059 C 
ATOM      2  C   UNL     1      -7.741   2.892  -0.811  0.00  0.00    +0.017 C 
ATOM      3  C   UNL     1      -9.079   2.248  -0.437  0.00  0.00    +0.007 C 
ATOM      4  C   UNL     1     -10.137   3.299  -0.302  0.00  0.00    -0.037 A 
ATOM      5  C   UNL     1     -10.255   4.463  -0.964  0.00  0.00    +0.004 A 
ATOM      6  C   UNL     1     -11.323   5.346  -0.720  0.00  0.00    +0.002 A 
ATOM      7  C   UNL     1     -12.333   5.160   0.172  0.00  0.00    +0.026 A 
ATOM      8  C   UNL     1     -12.314   3.957   0.939  0.00  0.00    +0.044 A 
ATOM      9  N   UNL     1     -13.076   3.444   1.855  0.00  0.00    -0.368 N 
ATOM     10  C   UNL     1     -12.513   2.138   2.278  0.00  0.00    +0.174 C 
ATOM     11  C   UNL     1     -11.273   1.937   1.464  0.00  0.00    -0.029 C 
ATOM     12  C   UNL     1     -11.193   3.029   0.684  0.00  0.00    +0.003 A 
ATOM     13  C   UNL     1     -10.229   0.861   1.380  0.00  0.00    +0.019 C 
ATOM     14  C   UNL     1      -8.923   1.500   0.890  0.00  0.00    -0.057 C 
ATOM     15  N   UNL     1      -7.904   0.454   0.747  0.00  0.00    +0.381 N 
ATOM     16  C   UNL     1      -6.602   1.065   0.456  0.00  0.00    -0.066 C 
ATOM     17  C   UNL     1      -7.815  -0.315   1.995  0.00  0.00    -0.096 C 
ATOM     18 BR   UNL     1     -13.801   0.698   1.917  0.00  0.00    -0.060 Br
ATOM     19  H   UNL     1     -13.884   3.849   2.207  0.00  0.00    +0.161 HD
ATOM     20  H   UNL     1      -8.161  -0.163  -0.009  0.00  0.00    -0.082 HD
ENDROOT
BRANCH   1  27
ATOM     21  N   UNL     1      -2.512   0.308  -3.031  0.00  0.00    -0.313 N 
ATOM     22  C   UNL     1      -3.837  -0.292  -2.821  0.00  0.00    +0.125 C 
ATOM     23  C   UNL     1      -4.388   0.196  -1.476  0.00  0.00    +0.126 C 
ATOM     24  N   UNL     1      -4.255   1.658  -1.416  0.00  0.00    -0.298 N 
ATOM     25  C   UNL     1      -2.930   2.258  -1.626  0.00  0.00    +0.126 C 
ATOM     26  C   UNL     1      -2.378   1.770  -2.966  0.00  0.00    +0.125 C 
ATOM     27  C   UNL     1      -5.329   2.435  -1.174  0.00  0.00    +0.217 C 
ATOM     28  O   UNL     1      -5.220   3.643  -1.190  0.00  0.00    -0.275 OA
BRANCH  21  31
ATOM     29  C   UNL     1      -2.034  -0.483  -5.643  0.00  0.00    +0.154 C 
ATOM     30  N   UNL     1      -1.149  -0.893  -4.551  0.00  0.00    -0.300 N 
ATOM     31  C   UNL     1      -1.415  -0.485  -3.279  0.00  0.00    +0.104 A 
ATOM     32  C   UNL     1      -0.593  -0.861  -2.238  0.00  0.00    +0.042 A 
ATOM     33  C   UNL     1       0.517  -1.664  -2.491  0.00  0.00    +0.009 A 
ATOM     34  C   UNL     1       0.774  -2.070  -3.784  0.00  0.00    +0.070 A 
ATOM     35  C   UNL     1      -0.084  -1.674  -4.815  0.00  0.00    +0.252 A 
ATOM     36  O   UNL     1       0.135  -2.034  -5.961  0.00  0.00    -0.268 OA
ENDBRANCH  21  31
ENDBRANCH   1  27
TORSDOF 2
