REMARK  Name = ZINC23543261
REMARK  10 active torsions:
REMARK  status: ('A' for Active; 'I' for Inactive)
REMARK    1  A    between atoms: C_1  and  C_2
REMARK    2  A    between atoms: C_4  and  C_30
REMARK    3  A    between atoms: C_5  and  N_9
REMARK    4  A    between atoms: C_6  and  C_8
REMARK    5  A    between atoms: C_12  and  C_15
REMARK    6  A    between atoms: C_15  and  S_16
REMARK    7  A    between atoms: S_16  and  C_17
REMARK    8  A    between atoms: C_20  and  C_23
REMARK    9  A    between atoms: N_21  and  N_22
REMARK   10  A    between atoms: C_27  and  C_29
REMARK                            x       y       z     vdW  Elec       q    Type
REMARK                         _______ _______ _______ _____ _____    ______ ____
ROOT
ATOM      1  N   UNL     1      -6.966   5.965   6.801  0.00  0.00    -0.218 N 
ATOM      2  C   UNL     1      -5.608   5.673   6.721  0.00  0.00    +0.172 A 
ATOM      3  N   UNL     1      -4.991   4.809   5.940  0.00  0.00    -0.228 NA
ATOM      4  C   UNL     1      -3.683   4.653   5.992  0.00  0.00    +0.061 A 
ATOM      5  C   UNL     1      -2.978   5.401   6.876  0.00  0.00    +0.072 A 
ATOM      6  S   UNL     1      -4.291   6.353   7.627  0.00  0.00    -0.060 S 
ATOM      7  C   UNL     1      -7.829   5.396   5.937  0.00  0.00    +0.223 C 
ATOM      8  O   UNL     1      -7.438   4.561   5.150  0.00  0.00    -0.275 OA
ATOM      9  C   UNL     1      -9.282   5.798   5.948  0.00  0.00    +0.110 C 
ENDROOT
BRANCH   1  14
ATOM     10  C   UNL     1      -8.868   9.551  10.766  0.00  0.00    +0.044 C 
ATOM     11  C   UNL     1      -8.363   8.599   9.713  0.00  0.00    -0.050 A 
ATOM     12  C   UNL     1      -7.979   9.080   8.475  0.00  0.00    +0.008 A 
ATOM     13  C   UNL     1      -7.515   8.210   7.508  0.00  0.00    -0.028 A 
ATOM     14  C   UNL     1      -7.435   6.850   7.780  0.00  0.00    +0.049 A 
ATOM     15  C   UNL     1      -7.827   6.370   9.022  0.00  0.00    -0.028 A 
ATOM     16  C   UNL     1      -8.284   7.246   9.987  0.00  0.00    +0.008 A 
ATOM     17  C   UNL     1      -7.749   4.894   9.319  0.00  0.00    +0.046 C 
ATOM     18  C   UNL     1      -7.096   8.735   6.159  0.00  0.00    +0.046 C 
ENDBRANCH   1  14
BRANCH   4  19
ATOM     19  C   UNL     1      -2.988   3.662   5.094  0.00  0.00    +0.133 C 
BRANCH  19  20
ATOM     20  S   UNL     1      -2.517   4.476   3.547  0.00  0.00    -0.078 S 
BRANCH  20  21
ATOM     21  C   UNL     1      -1.749   3.128   2.713  0.00  0.00    +0.209 A 
ATOM     22  N   UNL     1      -1.605   1.906   3.172  0.00  0.00    -0.121 NA
ATOM     23  N   UNL     1      -1.004   1.180   2.298  0.00  0.00    -0.123 NA
ATOM     24  C   UNL     1      -0.722   1.891   1.243  0.00  0.00    +0.255 A 
ATOM     25  N   UNL     1      -1.189   3.156   1.468  0.00  0.00    -0.220 N 
BRANCH  24  26
ATOM     26  C   UNL     1      -0.016   1.406   0.003  0.00  0.00    +0.454 C 
ATOM     27  F   UNL     1       0.004   0.008  -0.006  0.00  0.00    -0.163 F 
ATOM     28  F   UNL     1       1.296   1.892  -0.007  0.00  0.00    -0.163 F 
ATOM     29  F   UNL     1      -0.694   1.871  -1.130  0.00  0.00    -0.163 F 
ENDBRANCH  24  26
BRANCH  25  30
ATOM     30  N   UNL     1      -1.113   4.226   0.622  0.00  0.00    -0.295 N 
ATOM     31  H   UNL     1      -0.632   4.116  -0.361  0.00  0.00    +0.163 HD
ATOM     32  H   UNL     1      -1.531   5.197   0.925  0.00  0.00    +0.163 HD
ENDBRANCH  25  30
ENDBRANCH  20  21
ENDBRANCH  19  20
ENDBRANCH   4  19
TORSDOF 6
