REMARK  Name = ZINC13003627
REMARK  7 active torsions:
REMARK  status: ('A' for Active; 'I' for Inactive)
REMARK    1  A    between atoms: C_5  and  C_7
REMARK    2  A    between atoms: C_7  and  C_9
REMARK    3  A    between atoms: C_7  and  N_62
REMARK    4  A    between atoms: C_9  and  N_10
REMARK    5  A    between atoms: C_11  and  C_13
REMARK    6  A    between atoms: N_18  and  S_20
REMARK    7  A    between atoms: S_20  and  C_23
REMARK                            x       y       z     vdW  Elec       q    Type
REMARK                         _______ _______ _______ _____ _____    ______ ____
ROOT
ATOM      1  N   UNL     1      -2.687   6.011   3.543  0.00  0.00    -0.316 N 
ATOM      2  C   UNL     1      -1.685   5.164   3.849  0.00  0.00    +0.217 C 
ATOM      3  O   UNL     1      -0.843   5.488   4.660  0.00  0.00    -0.275 OA
ATOM      4  H   UNL     1      -3.360   5.752   2.894  0.00  0.00    +0.149 HD
ENDROOT
BRANCH   2   5
ATOM      5  C   UNL     1      -1.608   3.814   3.183  0.00  0.00    +0.091 C 
ATOM      6  C   UNL     1      -2.875   3.016   3.499  0.00  0.00    +0.015 C 
ATOM      7  C   UNL     1      -2.814   1.658   2.796  0.00  0.00    +0.018 C 
ATOM      8  C   UNL     1      -1.605   0.873   3.316  0.00  0.00    +0.109 C 
ATOM      9  N   UNL     1      -0.399   1.695   3.147  0.00  0.00    -0.176 NA
ATOM     10  C   UNL     1      -0.384   3.052   3.711  0.00  0.00    +0.122 C 
BRANCH   9  11
ATOM     11  S   UNL     1       0.921   1.101   2.342  0.00  0.00    +0.061 S 
ATOM     12  O   UNL     1       0.845  -0.315   2.426  0.00  0.00    -0.153 OA
ATOM     13  O   UNL     1       2.045   1.833   2.811  0.00  0.00    -0.153 OA
BRANCH  11  14
ATOM     14  C   UNL     1       0.724   1.516   0.641  0.00  0.00    +0.106 A 
ATOM     15  C   UNL     1       0.074   0.643  -0.212  0.00  0.00    +0.031 A 
ATOM     16  C   UNL     1      -0.085   0.970  -1.545  0.00  0.00    +0.040 A 
ATOM     17  C   UNL     1       0.415   2.167  -2.029  0.00  0.00    +0.124 A 
ATOM     18  C   UNL     1       1.070   3.038  -1.175  0.00  0.00    +0.040 A 
ATOM     19  C   UNL     1       1.224   2.712   0.159  0.00  0.00    +0.031 A 
ATOM     20  F   UNL     1       0.264   2.485  -3.333  0.00  0.00    -0.205 F 
ENDBRANCH  11  14
ENDBRANCH   9  11
ENDBRANCH   2   5
BRANCH   1  21
ATOM     21  C   UNL     1      -2.761   7.323   4.190  0.00  0.00    +0.093 C 
BRANCH  21  22
ATOM     22  C   UNL     1      -4.067   8.014   3.794  0.00  0.00    -0.019 C 
BRANCH  22  27
ATOM     23  C   UNL     1      -4.710  10.872   6.176  0.00  0.00    +0.000 A 
ATOM     24  C   UNL     1      -4.169  11.938   5.481  0.00  0.00    +0.001 A 
ATOM     25  C   UNL     1      -3.596  11.735   4.240  0.00  0.00    +0.020 A 
ATOM     26  C   UNL     1      -3.558  10.464   3.695  0.00  0.00    +0.043 A 
ATOM     27  C   UNL     1      -4.104   9.398   4.389  0.00  0.00    -0.041 A 
ATOM     28  C   UNL     1      -4.677   9.603   5.630  0.00  0.00    +0.003 A 
ATOM     29 CL   UNL     1      -2.831  10.207   2.140  0.00  0.00    -0.083 Cl
ENDBRANCH  22  27
BRANCH  22  34
ATOM     30  C   UNL     1      -6.482   7.971   4.103  0.00  0.00    -0.078 C 
ATOM     31  C   UNL     1      -7.551   6.852   4.177  0.00  0.00    -0.020 C 
ATOM     32  C   UNL     1      -6.862   5.667   3.463  0.00  0.00    -0.020 C 
ATOM     33  C   UNL     1      -5.354   5.968   3.549  0.00  0.00    -0.078 C 
ATOM     34  N   UNL     1      -5.230   7.221   4.295  0.00  0.00    +0.385 N 
ATOM     35  H   UNL     1      -5.096   7.019   5.292  0.00  0.00    -0.081 HD
ENDBRANCH  22  34
ENDBRANCH  21  22
ENDBRANCH   1  21
TORSDOF 7
