REMARK  Name = ZINC64674307
REMARK  9 active torsions:
REMARK  status: ('A' for Active; 'I' for Inactive)
REMARK    1  A    between atoms: C_4  and  C_7
REMARK    2  A    between atoms: C_7  and  N_8
REMARK    3  A    between atoms: N_8  and  S_9
REMARK    4  A    between atoms: S_9  and  C_12
REMARK    5  A    between atoms: C_16  and  C_18
REMARK    6  A    between atoms: N_20  and  N_21
REMARK    7  A    between atoms: C_22  and  C_24
REMARK    8  A    between atoms: C_24  and  C_25
REMARK    9  A    between atoms: C_25  and  C_26
REMARK                            x       y       z     vdW  Elec       q    Type
REMARK                         _______ _______ _______ _____ _____    ______ ____
ROOT
ATOM      1  C   UNL     1       9.750   0.748   1.817  0.00  0.00    +0.260 C 
ATOM      2  O   UNL     1       9.484   1.034   2.968  0.00  0.00    -0.269 OA
ATOM      3  N   UNL     1      10.875   1.222   1.248  0.00  0.00    -0.230 N 
ATOM      4  H   UNL     1      11.088   0.994   0.329  0.00  0.00    +0.173 HD
ENDROOT
BRANCH   1   9
ATOM      5  C   UNL     1       6.827  -1.425   0.900  0.00  0.00    +0.106 A 
ATOM      6  C   UNL     1       7.133  -1.749  -0.410  0.00  0.00    +0.028 A 
ATOM      7  C   UNL     1       8.287  -1.263  -0.998  0.00  0.00    +0.003 A 
ATOM      8  C   UNL     1       9.141  -0.451  -0.280  0.00  0.00    +0.013 A 
ATOM      9  C   UNL     1       8.839  -0.121   1.042  0.00  0.00    +0.040 A 
ATOM     10  C   UNL     1       7.669  -0.610   1.627  0.00  0.00    +0.041 A 
BRANCH   5  11
ATOM     11  S   UNL     1       5.355  -2.050   1.639  0.00  0.00    +0.059 S 
ATOM     12  O   UNL     1       5.570  -2.042   3.043  0.00  0.00    -0.153 OA
ATOM     13  O   UNL     1       5.013  -3.232   0.927  0.00  0.00    -0.153 OA
BRANCH  11  14
ATOM     14  N   UNL     1       4.152  -0.952   1.338  0.00  0.00    -0.186 NA
ATOM     15  H   UNL     1       3.739  -0.472   2.072  0.00  0.00    +0.148 HD
BRANCH  14  16
ATOM     16  C   UNL     1       3.711  -0.707  -0.038  0.00  0.00    +0.141 C 
BRANCH  16  20
ATOM     17  C   UNL     1      -0.017   1.378   0.010  0.00  0.00    +0.000 A 
ATOM     18  C   UNL     1       1.171   2.086   0.002  0.00  0.00    +0.000 A 
ATOM     19  C   UNL     1       2.377   1.411  -0.013  0.00  0.00    +0.005 A 
ATOM     20  C   UNL     1       2.396   0.029  -0.020  0.00  0.00    -0.032 A 
ATOM     21  C   UNL     1       1.208  -0.679  -0.012  0.00  0.00    +0.005 A 
ATOM     22  C   UNL     1       0.002  -0.004   0.002  0.00  0.00    +0.000 A 
ENDBRANCH  16  20
ENDBRANCH  14  16
ENDBRANCH  11  14
ENDBRANCH   5  11
ENDBRANCH   1   9
BRANCH   3  23
ATOM     23  N   UNL     1      11.739   2.046   1.983  0.00  0.00    -0.234 N 
ATOM     24  C   UNL     1      12.864   2.520   1.413  0.00  0.00    +0.229 C 
ATOM     25  O   UNL     1      13.130   2.235   0.265  0.00  0.00    -0.274 OA
ATOM     26  H   UNL     1      11.526   2.274   2.901  0.00  0.00    +0.173 HD
BRANCH  24  27
ATOM     27  C   UNL     1      13.793   3.406   2.204  0.00  0.00    +0.102 C 
BRANCH  27  28
ATOM     28  C   UNL     1      14.985   3.803   1.331  0.00  0.00    +0.042 C 
BRANCH  28  29
ATOM     29  C   UNL     1      15.914   4.688   2.121  0.00  0.00    -0.041 C 
ATOM     30  C   UNL     1      17.013   4.305   2.809  0.00  0.00    -0.001 A 
ATOM     31  C   UNL     1      17.649   2.998   3.020  0.00  0.00    +0.010 A 
ATOM     32  C   UNL     1      18.768   2.928   3.776  0.00  0.00    +0.001 A 
ATOM     33  C   UNL     1      19.335   4.068   4.362  0.00  0.00    +0.002 A 
ATOM     34  C   UNL     1      18.808   5.303   4.214  0.00  0.00    +0.026 A 
ATOM     35  C   UNL     1      17.631   5.494   3.438  0.00  0.00    +0.043 A 
ATOM     36  N   UNL     1      16.941   6.570   3.151  0.00  0.00    -0.380 N 
ATOM     37  C   UNL     1      15.808   6.186   2.301  0.00  0.00    +0.144 C 
ATOM     38  H   UNL     1      17.146   7.470   3.447  0.00  0.00    +0.160 HD
ENDBRANCH  28  29
ENDBRANCH  27  28
ENDBRANCH  24  27
ENDBRANCH   3  23
TORSDOF 9
