REMARK  Name = ZINC40801534
REMARK  9 active torsions:
REMARK  status: ('A' for Active; 'I' for Inactive)
REMARK    1  A    between atoms: C_1  and  C_2
REMARK    2  A    between atoms: C_2  and  O_3
REMARK    3  A    between atoms: O_3  and  C_4
REMARK    4  A    between atoms: C_4  and  C_6
REMARK    5  A    between atoms: C_7  and  C_28
REMARK    6  A    between atoms: C_10  and  N_11
REMARK    7  A    between atoms: C_12  and  C_14
REMARK    8  A    between atoms: C_14  and  C_15
REMARK    9  A    between atoms: C_22  and  C_27
REMARK                            x       y       z     vdW  Elec       q    Type
REMARK                         _______ _______ _______ _____ _____    ______ ____
ROOT
ATOM      1  N   UNL     1       3.744  -2.428   1.400  0.00  0.00    -0.279 N 
ATOM      2  C   UNL     1       5.047  -2.740   1.552  0.00  0.00    +0.222 C 
ATOM      3  O   UNL     1       5.442  -3.197   2.604  0.00  0.00    -0.275 OA
ATOM      4  H   UNL     1       3.428  -2.063   0.559  0.00  0.00    +0.155 HD
ENDROOT
BRANCH   1   9
ATOM      5  C   UNL     1       1.496  -2.370   2.466  0.00  0.00    +0.095 A 
ATOM      6  C   UNL     1       0.794  -2.684   3.698  0.00  0.00    +0.005 A 
ATOM      7  C   UNL     1       1.563  -3.194   4.694  0.00  0.00    +0.056 A 
ATOM      8  S   UNL     1       3.188  -3.244   3.971  0.00  0.00    -0.080 S 
ATOM      9  C   UNL     1       2.857  -2.631   2.445  0.00  0.00    +0.086 A 
BRANCH   6  10
ATOM     10  C   UNL     1      -0.663  -2.461   3.858  0.00  0.00    -0.016 A 
ATOM     11  C   UNL     1      -1.225  -1.233   3.514  0.00  0.00    +0.010 A 
ATOM     12  C   UNL     1      -2.582  -1.031   3.664  0.00  0.00    +0.020 A 
ATOM     13  C   UNL     1      -3.385  -2.046   4.155  0.00  0.00    +0.041 A 
ATOM     14  C   UNL     1      -2.832  -3.268   4.498  0.00  0.00    +0.020 A 
ATOM     15  C   UNL     1      -1.477  -3.482   4.347  0.00  0.00    +0.010 A 
ATOM     16 CL   UNL     1      -5.091  -1.786   4.342  0.00  0.00    -0.084 Cl
ENDBRANCH   6  10
BRANCH   5  17
ATOM     17  C   UNL     1       0.801  -1.814   1.305  0.00  0.00    +0.342 C 
ATOM     18  O   UNL     1       0.321  -2.557   0.470  0.00  0.00    -0.245 OA
BRANCH  17  19
ATOM     19  O   UNL     1       0.693  -0.477   1.160  0.00  0.00    -0.461 OA
BRANCH  19  21
ATOM     20  C   UNL     1      -0.019   1.526   0.010  0.00  0.00    +0.048 C 
ATOM     21  C   UNL     1       0.002  -0.004   0.002  0.00  0.00    +0.229 C 
ENDBRANCH  19  21
ENDBRANCH  17  19
ENDBRANCH   5  17
ENDBRANCH   1   9
BRANCH   2  22
ATOM     22  C   UNL     1       6.012  -2.520   0.416  0.00  0.00    +0.150 C 
BRANCH  22  23
ATOM     23  C   UNL     1       7.415  -2.952   0.848  0.00  0.00    +0.268 C 
ATOM     24  C   UNL     1       8.355  -2.849  -0.327  0.00  0.00    +0.259 C 
ATOM     25  O   UNL     1       8.551  -3.813  -1.036  0.00  0.00    -0.271 OA
ATOM     26  N   UNL     1       8.977  -1.679  -0.586  0.00  0.00    -0.280 N 
ATOM     27  C   UNL     1       8.836  -0.616   0.316  0.00  0.00    +0.076 A 
ATOM     28  C   UNL     1       9.266   0.657  -0.024  0.00  0.00    +0.030 A 
ATOM     29  C   UNL     1       9.108   1.698   0.872  0.00  0.00    -0.048 A 
ATOM     30  C   UNL     1       8.522   1.473   2.104  0.00  0.00    +0.007 A 
ATOM     31  C   UNL     1       8.096   0.204   2.451  0.00  0.00    +0.048 A 
ATOM     32  C   UNL     1       8.257  -0.845   1.562  0.00  0.00    +0.143 A 
ATOM     33  O   UNL     1       7.870  -2.103   1.903  0.00  0.00    -0.477 OA
ATOM     34  C   UNL     1       9.576   3.083   0.504  0.00  0.00    +0.044 C 
ATOM     35  H   UNL     1       9.515  -1.577  -1.386  0.00  0.00    +0.155 HD
ENDBRANCH  22  23
ENDBRANCH   2  22
TORSDOF 7
