REMARK  Name = ZINC09635036
REMARK  6 active torsions:
REMARK  status: ('A' for Active; 'I' for Inactive)
REMARK    1  A    between atoms: C_1  and  C_2
REMARK    2  A    between atoms: C_11  and  N_21
REMARK    3  A    between atoms: C_13  and  C_15
REMARK    4  A    between atoms: C_15  and  N_57
REMARK    5  A    between atoms: N_21  and  S_22
REMARK    6  A    between atoms: S_22  and  C_25
REMARK                            x       y       z     vdW  Elec       q    Type
REMARK                         _______ _______ _______ _____ _____    ______ ____
ROOT
ATOM      1  C   UNL     1      -1.282  -0.714  -0.435  0.00  0.00    +0.008 C 
ATOM      2  C   UNL     1       0.126  -0.136  -0.588  0.00  0.00    -0.009 C 
ATOM      3  C   UNL     1       1.010  -0.610   0.570  0.00  0.00    +0.008 C 
ATOM      4  C   UNL     1       2.468  -0.245   0.292  0.00  0.00    +0.037 C 
ATOM      5  C   UNL     1       2.554   1.245  -0.029  0.00  0.00    -0.025 A 
ATOM      6  C   UNL     1       1.450   1.931  -0.402  0.00  0.00    -0.004 A 
ATOM      7  S   UNL     1       2.003   3.597  -0.668  0.00  0.00    -0.073 S 
ATOM      8  C   UNL     1       3.709   3.374  -0.281  0.00  0.00    +0.114 A 
ATOM      9  C   UNL     1       3.795   1.996   0.046  0.00  0.00    +0.052 A 
ATOM     10  C   UNL     1       5.080   1.502   0.411  0.00  0.00    +0.150 A 
ATOM     11  N   UNL     1       6.069   2.394   0.406  0.00  0.00    -0.217 NA
ATOM     12  C   UNL     1       5.913   3.664   0.090  0.00  0.00    +0.116 A 
ATOM     13  N   UNL     1       4.744   4.189  -0.259  0.00  0.00    -0.227 NA
ATOM     14  C   UNL     1       0.059   1.398  -0.558  0.00  0.00    +0.046 C 
ENDROOT
BRANCH  10  15
ATOM     15  N   UNL     1       5.288   0.177   0.750  0.00  0.00    -0.199 N 
ATOM     16  H   UNL     1       4.637  -0.496   0.498  0.00  0.00    +0.175 HD
BRANCH  15  17
ATOM     17  S   UNL     1       6.648  -0.260   1.587  0.00  0.00    +0.073 S 
ATOM     18  O   UNL     1       6.559  -1.662   1.804  0.00  0.00    -0.150 OA
ATOM     19  O   UNL     1       7.748   0.338   0.915  0.00  0.00    -0.150 OA
BRANCH  17  20
ATOM     20  C   UNL     1       6.552   0.502   3.173  0.00  0.00    +0.109 A 
ATOM     21  C   UNL     1       7.090   1.760   3.369  0.00  0.00    +0.030 A 
ATOM     22  C   UNL     1       7.010   2.360   4.611  0.00  0.00    +0.022 A 
ATOM     23  C   UNL     1       6.400   1.698   5.662  0.00  0.00    +0.041 A 
ATOM     24  C   UNL     1       5.866   0.436   5.466  0.00  0.00    +0.022 A 
ATOM     25  C   UNL     1       5.942  -0.161   4.222  0.00  0.00    +0.030 A 
ATOM     26 CL   UNL     1       6.305   2.449   7.224  0.00  0.00    -0.084 Cl
ENDBRANCH  17  20
ENDBRANCH  15  17
ENDBRANCH  10  15
BRANCH  12  27
ATOM     27  C   UNL     1       7.120   4.564   0.127  0.00  0.00    -0.001 C 
BRANCH  27  33
ATOM     28  C   UNL     1       8.342   3.236  -1.489  0.00  0.00    -0.050 C 
ATOM     29  C   UNL     1       8.961   3.259  -2.889  0.00  0.00    +0.141 C 
ATOM     30  O   UNL     1       9.943   4.296  -2.955  0.00  0.00    -0.383 OA
ATOM     31  C   UNL     1       9.425   5.598  -2.668  0.00  0.00    +0.141 C 
ATOM     32  C   UNL     1       8.811   5.599  -1.265  0.00  0.00    -0.050 C 
ATOM     33  N   UNL     1       7.757   4.564  -1.208  0.00  0.00    +0.387 N 
ATOM     34  H   UNL     1       7.045   4.772  -1.918  0.00  0.00    -0.081 HD
ENDBRANCH  27  33
ENDBRANCH  12  27
TORSDOF 5
