REMARK  Name = ZINC02443638
REMARK  6 active torsions:
REMARK  status: ('A' for Active; 'I' for Inactive)
REMARK    1  A    between atoms: C_1  and  C_2
REMARK    2  A    between atoms: C_12  and  C_14
REMARK    3  A    between atoms: N_16  and  C_17
REMARK    4  A    between atoms: C_18  and  C_25
REMARK    5  A    between atoms: N_27  and  C_28
REMARK    6  A    between atoms: C_28  and  C_29
REMARK                            x       y       z     vdW  Elec       q    Type
REMARK                         _______ _______ _______ _____ _____    ______ ____
ROOT
ATOM      1  C   UNL     1      -0.658   2.961  -4.176  0.00  0.00    +0.085 A 
ATOM      2  C   UNL     1      -0.977   1.744  -3.597  0.00  0.00    +0.069 A 
ATOM      3  C   UNL     1      -2.052   0.964  -4.210  0.00  0.00    -0.023 A 
ATOM      4  C   UNL     1      -2.619   1.526  -5.293  0.00  0.00    -0.004 A 
ATOM      5  S   UNL     1      -1.754   3.062  -5.512  0.00  0.00    -0.077 S 
ATOM      6  C   UNL     1      -3.717   0.669  -5.863  0.00  0.00    +0.043 C 
ATOM      7  C   UNL     1      -4.060  -0.327  -4.733  0.00  0.00    +0.010 C 
ATOM      8  C   UNL     1      -2.736  -0.378  -3.946  0.00  0.00    +0.037 C 
ENDROOT
BRANCH   1  11
ATOM      9  C   UNL     1       0.475   5.017  -4.478  0.00  0.00    +0.284 C 
ATOM     10  O   UNL     1      -0.220   5.246  -5.449  0.00  0.00    -0.266 OA
ATOM     11  N   UNL     1       0.306   3.874  -3.784  0.00  0.00    -0.273 N 
ATOM     12  H   UNL     1       0.861   3.691  -3.009  0.00  0.00    +0.156 HD
BRANCH   9  24
ATOM     13  C   UNL     1       5.751   6.665   0.278  0.00  0.00    +0.045 C 
ATOM     14  C   UNL     1       4.947   7.045  -0.938  0.00  0.00    -0.029 A 
ATOM     15  C   UNL     1       3.966   6.194  -1.400  0.00  0.00    +0.051 A 
ATOM     16  C   UNL     1       3.219   6.537  -2.522  0.00  0.00    +0.140 A 
ATOM     17  C   UNL     1       3.479   7.757  -3.171  0.00  0.00    +0.065 A 
ATOM     18  C   UNL     1       4.474   8.610  -2.695  0.00  0.00    +0.035 A 
ATOM     19  C   UNL     1       5.203   8.249  -1.582  0.00  0.00    +0.045 A 
ATOM     20 CL   UNL     1       6.444   9.304  -0.981  0.00  0.00    -0.083 Cl
ATOM     21  C   UNL     1       2.676   8.104  -4.359  0.00  0.00    +0.193 A 
ATOM     22  O   UNL     1       2.852   9.146  -4.966  0.00  0.00    -0.287 OA
ATOM     23  C   UNL     1       1.653   7.134  -4.776  0.00  0.00    +0.103 A 
ATOM     24  C   UNL     1       1.506   5.993  -4.058  0.00  0.00    +0.194 A 
ATOM     25  O   UNL     1       2.254   5.717  -2.980  0.00  0.00    -0.450 OA
ENDBRANCH   9  24
ENDBRANCH   1  11
BRANCH   2  26
ATOM     26  C   UNL     1      -0.268   1.258  -2.409  0.00  0.00    +0.247 C 
ATOM     27  O   UNL     1       0.730   0.573  -2.534  0.00  0.00    -0.270 OA
ATOM     28  N   UNL     1      -0.721   1.571  -1.179  0.00  0.00    -0.304 N 
ATOM     29  H   UNL     1      -1.516   2.118  -1.079  0.00  0.00    +0.149 HD
BRANCH  28  30
ATOM     30  C   UNL     1      -0.013   1.086   0.008  0.00  0.00    +0.179 C 
BRANCH  30  31
ATOM     31  C   UNL     1      -0.718   1.572   1.248  0.00  0.00    +0.122 A 
ATOM     32  C   UNL     1      -1.704   0.926   1.896  0.00  0.00    +0.046 A 
ATOM     33  C   UNL     1      -2.070   1.736   2.996  0.00  0.00    +0.041 A 
ATOM     34  C   UNL     1      -1.286   2.828   2.954  0.00  0.00    +0.195 A 
ATOM     35  O   UNL     1      -0.465   2.720   1.896  0.00  0.00    -0.466 OA
ENDBRANCH  30  31
ENDBRANCH  28  30
ENDBRANCH   2  26
TORSDOF 5
