REMARK  Name = ZINC63351223
REMARK  7 active torsions:
REMARK  status: ('A' for Active; 'I' for Inactive)
REMARK    1  A    between atoms: C_1  and  O_2
REMARK    2  A    between atoms: O_2  and  C_3
REMARK    3  A    between atoms: C_7  and  C_11
REMARK    4  A    between atoms: C_8  and  O_9
REMARK    5  A    between atoms: O_9  and  C_10
REMARK    6  A    between atoms: N_12  and  N_13
REMARK    7  A    between atoms: C_33  and  C_35
REMARK                            x       y       z     vdW  Elec       q    Type
REMARK                         _______ _______ _______ _____ _____    ______ ____
ROOT
ATOM      1  N   UNL     1       0.882  -6.250  -1.047  0.00  0.00    -0.183 N 
ATOM      2  C   UNL     1       1.499  -6.728  -2.273  0.00  0.00    +0.230 C 
ATOM      3  C   UNL     1       1.468  -8.217  -2.377  0.00  0.00    +0.236 C 
ATOM      4  O   UNL     1       1.956  -8.723  -3.365  0.00  0.00    -0.274 OA
ATOM      5  N   UNL     1       0.940  -9.033  -1.457  0.00  0.00    -0.279 N 
ATOM      6  C   UNL     1       0.341  -8.543  -0.220  0.00  0.00    +0.169 C 
ATOM      7  C   UNL     1       0.366  -7.054  -0.119  0.00  0.00    +0.256 C 
ATOM      8  O   UNL     1      -0.118  -6.544   0.869  0.00  0.00    -0.272 OA
ATOM      9  C   UNL     1       1.069  -9.153   0.992  0.00  0.00    +0.065 C 
ATOM     10  C   UNL     1       1.216 -10.627   0.709  0.00  0.00    -0.034 C 
ATOM     11  C   UNL     1       0.908 -11.697   1.430  0.00  0.00    -0.001 A 
ATOM     12  C   UNL     1       0.415 -11.841   2.809  0.00  0.00    +0.010 A 
ATOM     13  C   UNL     1       0.177 -13.111   3.232  0.00  0.00    +0.001 A 
ATOM     14  C   UNL     1       0.379 -14.239   2.430  0.00  0.00    +0.002 A 
ATOM     15  C   UNL     1       0.839 -14.201   1.155  0.00  0.00    +0.026 A 
ATOM     16  C   UNL     1       1.132 -12.921   0.601  0.00  0.00    +0.043 A 
ATOM     17  N   UNL     1       1.600 -12.597  -0.569  0.00  0.00    -0.375 N 
ATOM     18  C   UNL     1       1.786 -11.146  -0.606  0.00  0.00    +0.131 C 
ATOM     19  C   UNL     1       0.974 -10.489  -1.724  0.00  0.00    +0.133 C 
ATOM     20  H   UNL     1       1.792 -13.213  -1.293  0.00  0.00    +0.160 HD
ENDROOT
BRANCH  19  21
ATOM     21  C   UNL     1      -0.429 -11.040  -1.729  0.00  0.00    -0.025 A 
ATOM     22  C   UNL     1      -1.227 -10.910  -0.608  0.00  0.00    +0.005 A 
ATOM     23  C   UNL     1      -2.513 -11.416  -0.613  0.00  0.00    +0.000 A 
ATOM     24  C   UNL     1      -3.002 -12.052  -1.739  0.00  0.00    +0.000 A 
ATOM     25  C   UNL     1      -2.204 -12.181  -2.860  0.00  0.00    +0.000 A 
ATOM     26  C   UNL     1      -0.919 -11.671  -2.857  0.00  0.00    +0.005 A 
ENDBRANCH  19  21
BRANCH   1  28
ATOM     27  C   UNL     1       1.324  -4.051  -1.708  0.00  0.00    +0.142 C 
ATOM     28  N   UNL     1       0.832  -4.867  -0.827  0.00  0.00    -0.184 NA
BRANCH  27  33
ATOM     29  C   UNL     1       0.646  -0.718  -0.098  0.00  0.00    +0.162 A 
ATOM     30  C   UNL     1       1.175   0.144  -1.046  0.00  0.00    +0.049 A 
ATOM     31  C   UNL     1       1.749  -0.355  -2.202  0.00  0.00    +0.004 A 
ATOM     32  C   UNL     1       1.801  -1.715  -2.423  0.00  0.00    +0.013 A 
ATOM     33  C   UNL     1       1.272  -2.596  -1.476  0.00  0.00    +0.040 A 
ATOM     34  C   UNL     1       0.696  -2.091  -0.304  0.00  0.00    +0.170 A 
BRANCH  29  36
ATOM     35  C   UNL     1       0.066   1.201   1.181  0.00  0.00    +0.277 C 
ATOM     36  O   UNL     1       0.083  -0.220   1.035  0.00  0.00    -0.491 OA
ENDBRANCH  29  36
BRANCH  34  37
ATOM     37  O   UNL     1       0.183  -2.940   0.626  0.00  0.00    -0.491 OA
ATOM     38  C   UNL     1      -1.193  -3.299   0.487  0.00  0.00    +0.277 C 
ENDBRANCH  34  37
ENDBRANCH  27  33
ENDBRANCH   1  28
TORSDOF 5
