REMARK  Name = ZINC05737165
REMARK  5 active torsions:
REMARK  status: ('A' for Active; 'I' for Inactive)
REMARK    1  A    between atoms: C_1  and  C_2
REMARK    2  A    between atoms: C_2  and  S_3
REMARK    3  A    between atoms: S_3  and  C_4
REMARK    4  A    between atoms: C_17  and  C_20
REMARK    5  A    between atoms: N_24  and  C_25
REMARK                            x       y       z     vdW  Elec       q    Type
REMARK                         _______ _______ _______ _____ _____    ______ ____
ROOT
ATOM      1  C   UNL     1       1.173  -4.818  -0.114  0.00  0.00    +0.212 A 
ATOM      2  N   UNL     1       0.401  -4.204   0.778  0.00  0.00    -0.184 NA
ATOM      3  C   UNL     1       0.402  -2.883   0.835  0.00  0.00    +0.248 A 
ATOM      4  C   UNL     1       1.224  -2.166  -0.064  0.00  0.00    +0.156 A 
ATOM      5  N   UNL     1       1.971  -2.838  -0.926  0.00  0.00    -0.141 NA
ATOM      6  N   UNL     1       1.941  -4.125  -0.945  0.00  0.00    -0.122 NA
ATOM      7  C   UNL     1       1.232  -0.689  -0.025  0.00  0.00    +0.028 A 
ATOM      8  C   UNL     1       2.419   0.032  -0.027  0.00  0.00    +0.012 A 
ATOM      9  C   UNL     1       2.384   1.413  -0.013  0.00  0.00    +0.001 A 
ATOM     10  C   UNL     1       1.173   2.083   0.002  0.00  0.00    +0.002 A 
ATOM     11  C   UNL     1      -0.017   1.378   0.010  0.00  0.00    +0.024 A 
ATOM     12  C   UNL     1       0.002  -0.004   0.002  0.00  0.00    +0.039 A 
ATOM     13  N   UNL     1      -1.181  -0.750   0.038  0.00  0.00    -0.304 N 
ATOM     14  C   UNL     1      -1.494  -1.515   1.241  0.00  0.00    +0.310 C 
ATOM     15  O   UNL     1      -0.356  -2.213   1.734  0.00  0.00    -0.447 OA
ATOM     16  H   UNL     1      -1.782  -0.758  -0.723  0.00  0.00    +0.150 HD
ENDROOT
BRANCH  14  17
ATOM     17  C   UNL     1      -1.992  -0.573   2.306  0.00  0.00    +0.078 A 
ATOM     18  C   UNL     1      -2.614   0.604   2.093  0.00  0.00    +0.028 A 
ATOM     19  C   UNL     1      -2.910   1.160   3.353  0.00  0.00    +0.019 A 
ATOM     20  C   UNL     1      -2.450   0.305   4.289  0.00  0.00    +0.086 A 
ATOM     21  N   UNL     1      -1.885  -0.760   3.653  0.00  0.00    -0.349 N 
ATOM     22  C   UNL     1      -1.267  -1.916   4.307  0.00  0.00    +0.148 C 
ENDBRANCH  14  17
BRANCH   1  23
ATOM     23  S   UNL     1       1.174  -6.578  -0.194  0.00  0.00    -0.085 S 
BRANCH  23  25
ATOM     24  C   UNL     1       2.530  -8.329  -1.793  0.00  0.00    +0.016 C 
ATOM     25  C   UNL     1       2.361  -6.830  -1.537  0.00  0.00    +0.074 C 
ENDBRANCH  23  25
ENDBRANCH   1  23
TORSDOF 3
