REMARK  Name = ZINC27551827
REMARK  5 active torsions:
REMARK  status: ('A' for Active; 'I' for Inactive)
REMARK    1  A    between atoms: C_4  and  C_7
REMARK    2  A    between atoms: C_12  and  C_26
REMARK    3  A    between atoms: C_14  and  C_24
REMARK    4  A    between atoms: C_15  and  N_23
REMARK    5  A    between atoms: N_16  and  N_17
REMARK                            x       y       z     vdW  Elec       q    Type
REMARK                         _______ _______ _______ _____ _____    ______ ____
ROOT
ATOM      1  C   UNL     1       5.550   4.672   2.789  0.00  0.00    +0.032 C 
ATOM      2  C   UNL     1       5.671   3.323   2.078  0.00  0.00    +0.061 C 
ATOM      3  C   UNL     1       4.580   3.197   1.042  0.00  0.00    +0.037 C 
ATOM      4  C   UNL     1       3.382   3.794   1.218  0.00  0.00    +0.026 C 
ATOM      5  C   UNL     1       2.290   3.655   0.188  0.00  0.00    +0.099 C 
ATOM      6  C   UNL     1       2.843   3.202  -1.131  0.00  0.00    +0.078 C 
ATOM      7  C   UNL     1       4.072   2.629  -1.216  0.00  0.00    +0.117 C 
ATOM      8  N   UNL     1       4.836   2.463  -0.085  0.00  0.00    -0.223 N 
ATOM      9  C   UNL     1       3.118   4.564   2.364  0.00  0.00    +0.162 C 
ATOM     10  O   UNL     1       2.026   5.080   2.495  0.00  0.00    -0.292 OA
ATOM     11  C   UNL     1       4.161   4.761   3.429  0.00  0.00    +0.088 C 
ENDROOT
BRANCH   5  12
ATOM     12  C   UNL     1       1.279   2.648   0.673  0.00  0.00    -0.016 A 
ATOM     13  C   UNL     1       1.668   1.347   0.930  0.00  0.00    +0.006 A 
ATOM     14  C   UNL     1       0.741   0.423   1.375  0.00  0.00    +0.000 A 
ATOM     15  C   UNL     1      -0.578   0.798   1.556  0.00  0.00    +0.001 A 
ATOM     16  C   UNL     1      -0.967   2.100   1.304  0.00  0.00    +0.020 A 
ATOM     17  C   UNL     1      -0.039   3.026   0.859  0.00  0.00    +0.045 A 
ATOM     18 CL   UNL     1      -0.529   4.660   0.536  0.00  0.00    -0.083 Cl
ENDBRANCH   5  12
BRANCH   1  22
ATOM     19  C   UNL     1       8.547   4.971   5.818  0.00  0.00    +0.000 A 
ATOM     20  C   UNL     1       8.515   5.889   4.785  0.00  0.00    +0.000 A 
ATOM     21  C   UNL     1       7.545   5.792   3.805  0.00  0.00    +0.004 A 
ATOM     22  C   UNL     1       6.607   4.777   3.858  0.00  0.00    -0.044 A 
ATOM     23  C   UNL     1       6.637   3.863   4.894  0.00  0.00    +0.004 A 
ATOM     24  C   UNL     1       7.609   3.957   5.872  0.00  0.00    +0.000 A 
ENDBRANCH   1  22
BRANCH   8  25
ATOM     25  N   UNL     1       5.859   1.558  -0.086  0.00  0.00    -0.217 NA
ATOM     26  C   UNL     1       6.964   2.013  -0.942  0.00  0.00    +0.134 C 
ATOM     27  C   UNL     1       8.111   1.001  -0.867  0.00  0.00    +0.177 C 
ATOM     28  O   UNL     1       7.626  -0.289  -1.249  0.00  0.00    -0.377 OA
ATOM     29  C   UNL     1       6.550  -0.764  -0.436  0.00  0.00    +0.177 C 
ATOM     30  C   UNL     1       5.388   0.231  -0.506  0.00  0.00    +0.134 C 
ENDBRANCH   8  25
BRANCH   7  31
ATOM     31  N   UNL     1       4.553   2.216  -2.435  0.00  0.00    -0.344 N 
ATOM     32  H   UNL     1       5.548   1.752  -2.505  0.00  0.00    +0.144 HD
ATOM     33  H   UNL     1       3.943   2.348  -3.340  0.00  0.00    +0.144 HD
ENDBRANCH   7  31
BRANCH   6  34
ATOM     34  C   UNL     1       2.063   3.374  -2.319  0.00  0.00    +0.099 C 
ATOM     35  N   UNL     1       1.444   3.511  -3.262  0.00  0.00    -0.191 NA
ENDBRANCH   6  34
TORSDOF 5
