REMARK  Name = ZINC58343629
REMARK  7 active torsions:
REMARK  status: ('A' for Active; 'I' for Inactive)
REMARK    1  A    between atoms: C_1  and  C_2
REMARK    2  A    between atoms: C_7  and  C_13
REMARK    3  A    between atoms: C_13  and  N_14
REMARK    4  A    between atoms: N_14  and  C_15
REMARK    5  A    between atoms: C_19  and  C_25
REMARK    6  A    between atoms: C_20  and  C_21
REMARK    7  A    between atoms: N_23  and  C_24
REMARK                            x       y       z     vdW  Elec       q    Type
REMARK                         _______ _______ _______ _____ _____    ______ ____
ROOT
ATOM      1  C   UNL     1       0.095  -6.274   1.112  0.00  0.00    +0.155 C 
ENDROOT
BRANCH   1   8
ATOM      2  C   UNL     1      -0.018   1.503   0.010  0.00  0.00    +0.045 C 
ATOM      3  C   UNL     1       0.002  -0.004   0.002  0.00  0.00    -0.034 A 
ATOM      4  C   UNL     1       0.006  -0.697  -1.217  0.00  0.00    +0.008 A 
ATOM      5  C   UNL     1       0.025  -2.059  -1.216  0.00  0.00    +0.045 A 
ATOM      6  C   UNL     1       0.040  -2.750   0.010  0.00  0.00    +0.118 A 
ATOM      7  N   UNL     1       0.059  -4.082   0.013  0.00  0.00    -0.343 N 
ATOM      8  C   UNL     1       0.074  -4.768   1.145  0.00  0.00    +0.040 A 
ATOM      9  C   UNL     1       0.071  -4.104   2.356  0.00  0.00    +0.093 A 
ATOM     10  C   UNL     1       0.051  -2.704   2.361  0.00  0.00    +0.258 A 
ATOM     11  O   UNL     1       0.048  -2.088   3.415  0.00  0.00    -0.267 OA
ATOM     12  N   UNL     1       0.037  -2.046   1.182  0.00  0.00    -0.269 N 
ATOM     13  C   UNL     1       0.022  -0.685   1.170  0.00  0.00    +0.099 A 
ATOM     14  H   UNL     1       0.061  -4.559  -0.832  0.00  0.00    +0.167 HD
ENDBRANCH   1   8
BRANCH   1  15
ATOM     15  N   UNL     1      -1.153  -6.767   0.524  0.00  0.00    -0.338 N 
ATOM     16  H   UNL     1      -1.832  -6.139   0.230  0.00  0.00    +0.146 HD
BRANCH  15  17
ATOM     17  C   UNL     1      -1.365  -8.133   0.389  0.00  0.00    +0.040 A 
ATOM     18  C   UNL     1      -0.398  -9.035   0.815  0.00  0.00    +0.024 A 
ATOM     19  C   UNL     1      -0.612 -10.391   0.679  0.00  0.00    +0.002 A 
ATOM     20  C   UNL     1      -1.788 -10.864   0.119  0.00  0.00    +0.004 A 
ATOM     21  C   UNL     1      -2.758  -9.985  -0.309  0.00  0.00    -0.037 A 
ATOM     22  C   UNL     1      -2.560  -8.609  -0.174  0.00  0.00    +0.060 A 
ATOM     23  C   UNL     1      -4.034 -10.507  -0.918  0.00  0.00    +0.044 C 
BRANCH  22  24
ATOM     24  C   UNL     1      -3.596  -7.662  -0.625  0.00  0.00    +0.246 C 
ATOM     25  O   UNL     1      -3.584  -7.245  -1.767  0.00  0.00    -0.270 OA
ATOM     26  N   UNL     1      -4.558  -7.259   0.230  0.00  0.00    -0.314 N 
ATOM     27  C   UNL     1      -5.588  -6.319  -0.218  0.00  0.00    +0.128 C 
ATOM     28  H   UNL     1      -4.568  -7.592   1.141  0.00  0.00    +0.149 HD
ENDBRANCH  22  24
ENDBRANCH  15  17
ENDBRANCH   1  15
TORSDOF 4
