REMARK  Name = ZINC36503547
REMARK  14 active torsions:
REMARK  status: ('A' for Active; 'I' for Inactive)
REMARK    1  A    between atoms: C_1  and  C_2
REMARK    2  A    between atoms: C_2  and  C_3
REMARK    3  A    between atoms: C_3  and  C_4
REMARK    4  A    between atoms: C_4  and  N_5
REMARK    5  A    between atoms: C_6  and  C_8
REMARK    6  A    between atoms: C_8  and  C_10
REMARK    7  A    between atoms: C_8  and  N_18
REMARK    8  A    between atoms: C_13  and  C_17
REMARK    9  A    between atoms: C_15  and  C_16
REMARK   10  A    between atoms: N_18  and  C_19
REMARK   11  A    between atoms: C_19  and  C_20
REMARK   12  A    between atoms: C_25  and  C_27
REMARK   13  A    between atoms: C_27  and  C_28
REMARK   14  A    between atoms: C_27  and  C_34
REMARK                            x       y       z     vdW  Elec       q    Type
REMARK                         _______ _______ _______ _____ _____    ______ ____
ROOT
ATOM      1  N   UNL     1       2.986  -6.784   4.255  0.00  0.00    -0.278 N 
ATOM      2  C   UNL     1       2.036  -6.819   5.210  0.00  0.00    +0.229 C 
ATOM      3  O   UNL     1       1.648  -5.788   5.718  0.00  0.00    -0.275 OA
ENDROOT
BRANCH   1   4
ATOM      4  C   UNL     1       3.635  -5.516   3.914  0.00  0.00    +0.193 C 
BRANCH   4   5
ATOM      5  C   UNL     1       2.654  -4.625   3.197  0.00  0.00    -0.015 A 
ATOM      6  C   UNL     1       1.296  -4.779   3.412  0.00  0.00    +0.006 A 
ATOM      7  C   UNL     1       0.396  -3.962   2.755  0.00  0.00    +0.004 A 
ATOM      8  C   UNL     1       0.853  -2.991   1.883  0.00  0.00    -0.050 A 
ATOM      9  C   UNL     1       2.209  -2.837   1.668  0.00  0.00    +0.007 A 
ATOM     10  C   UNL     1       3.110  -3.651   2.329  0.00  0.00    -0.045 A 
ATOM     11  C   UNL     1       4.590  -3.480   2.100  0.00  0.00    +0.044 C 
ATOM     12  C   UNL     1      -0.129  -2.100   1.165  0.00  0.00    +0.044 C 
ENDBRANCH   4   5
BRANCH   4  14
ATOM     13  N   UNL     1       4.545  -3.564   5.131  0.00  0.00    -0.313 N 
ATOM     14  C   UNL     1       4.103  -4.836   5.175  0.00  0.00    +0.238 C 
ATOM     15  O   UNL     1       4.081  -5.434   6.230  0.00  0.00    -0.273 OA
ATOM     16  H   UNL     1       4.619  -3.106   4.279  0.00  0.00    +0.149 HD
BRANCH  13  17
ATOM     17  C   UNL     1       4.913  -2.873   6.369  0.00  0.00    +0.104 C 
BRANCH  17  18
ATOM     18  C   UNL     1       5.378  -1.452   6.041  0.00  0.00    +0.018 C 
BRANCH  18  20
ATOM     19  C   UNL     1       6.228   0.690   7.006  0.00  0.00    +0.004 C 
ATOM     20  C   UNL     1       5.763  -0.731   7.334  0.00  0.00    -0.002 C 
ENDBRANCH  18  20
ENDBRANCH  17  18
ENDBRANCH  13  17
ENDBRANCH   4  14
ENDBRANCH   1   4
BRANCH   1  21
ATOM     21  C   UNL     1       3.368  -8.014   3.557  0.00  0.00    +0.183 C 
BRANCH  21  22
ATOM     22  C   UNL     1       4.581  -8.612   4.221  0.00  0.00    +0.122 A 
ATOM     23  C   UNL     1       4.570  -9.578   5.157  0.00  0.00    +0.046 A 
ATOM     24  C   UNL     1       5.918  -9.833   5.498  0.00  0.00    +0.041 A 
ATOM     25  C   UNL     1       6.673  -9.008   4.750  0.00  0.00    +0.195 A 
ATOM     26  O   UNL     1       5.858  -8.275   3.974  0.00  0.00    -0.466 OA
ENDBRANCH  21  22
ENDBRANCH   1  21
BRANCH   2  27
ATOM     27  C   UNL     1       1.456  -8.139   5.649  0.00  0.00    +0.135 C 
BRANCH  27  28
ATOM     28  C   UNL     1       0.605  -7.932   6.875  0.00  0.00    -0.031 A 
ATOM     29  C   UNL     1      -0.558  -7.190   6.791  0.00  0.00    +0.005 A 
ATOM     30  C   UNL     1      -1.339  -7.000   7.916  0.00  0.00    +0.000 A 
ATOM     31  C   UNL     1      -0.957  -7.552   9.124  0.00  0.00    +0.000 A 
ATOM     32  C   UNL     1       0.206  -8.294   9.208  0.00  0.00    +0.000 A 
ATOM     33  C   UNL     1       0.985  -8.488   8.082  0.00  0.00    +0.005 A 
ENDBRANCH  27  28
BRANCH  27  34
ATOM     34  C   UNL     1       0.609  -8.709   4.540  0.00  0.00    -0.031 A 
ATOM     35  C   UNL     1       0.714 -10.047   4.208  0.00  0.00    +0.005 A 
ATOM     36  C   UNL     1      -0.063 -10.569   3.191  0.00  0.00    +0.000 A 
ATOM     37  C   UNL     1      -0.945  -9.754   2.506  0.00  0.00    +0.000 A 
ATOM     38  C   UNL     1      -1.050  -8.417   2.838  0.00  0.00    +0.000 A 
ATOM     39  C   UNL     1      -0.276  -7.895   3.858  0.00  0.00    +0.005 A 
ENDBRANCH  27  34
ENDBRANCH   2  27
TORSDOF 11
