REMARK  Name = ZINC38701265
REMARK  14 active torsions:
REMARK  status: ('A' for Active; 'I' for Inactive)
REMARK    1  A    between atoms: C_1  and  C_2
REMARK    2  A    between atoms: C_2  and  C_3
REMARK    3  A    between atoms: C_3  and  C_4
REMARK    4  A    between atoms: C_4  and  O_5
REMARK    5  A    between atoms: O_5  and  C_6
REMARK    6  A    between atoms: C_10  and  C_12
REMARK    7  A    between atoms: C_17  and  O_26
REMARK    8  A    between atoms: C_21  and  N_25
REMARK    9  A    between atoms: C_22  and  C_23
REMARK   10  A    between atoms: O_26  and  C_27
REMARK   11  A    between atoms: C_27  and  C_29
REMARK   12  A    between atoms: C_30  and  C_40
REMARK   13  A    between atoms: C_33  and  C_38
REMARK   14  A    between atoms: C_38  and  C_39
REMARK                            x       y       z     vdW  Elec       q    Type
REMARK                         _______ _______ _______ _____ _____    ______ ____
ROOT
ATOM      1  C   UNL     1       2.920  -6.330  -5.080  0.00  0.00    +0.098 C 
ATOM      2  C   UNL     1       4.107  -7.145  -4.641  0.00  0.00    +0.008 A 
ATOM      3  C   UNL     1       5.290  -6.505  -4.316  0.00  0.00    +0.012 A 
ATOM      4  C   UNL     1       6.389  -7.237  -3.913  0.00  0.00    +0.047 A 
ATOM      5  C   UNL     1       6.310  -8.620  -3.831  0.00  0.00    +0.136 A 
ATOM      6  C   UNL     1       5.127  -9.264  -4.155  0.00  0.00    +0.093 A 
ATOM      7  C   UNL     1       4.022  -8.526  -4.561  0.00  0.00    +0.138 A 
ATOM      8  O   UNL     1       2.872  -9.172  -4.875  0.00  0.00    -0.441 OA
ATOM      9  C   UNL     1       1.940  -8.555  -5.622  0.00  0.00    +0.199 C 
ATOM     10  C   UNL     1       1.909  -7.212  -5.758  0.00  0.00    +0.098 C 
ENDROOT
BRANCH   1  15
ATOM     11  C   UNL     1       1.625  -3.705  -2.691  0.00  0.00    +0.121 A 
ATOM     12  C   UNL     1       1.127  -4.492  -1.662  0.00  0.00    +0.045 A 
ATOM     13  C   UNL     1       1.211  -5.868  -1.744  0.00  0.00    +0.004 A 
ATOM     14  C   UNL     1       1.791  -6.462  -2.851  0.00  0.00    +0.005 A 
ATOM     15  C   UNL     1       2.288  -5.680  -3.877  0.00  0.00    -0.031 A 
ATOM     16  C   UNL     1       2.201  -4.303  -3.802  0.00  0.00    +0.050 A 
BRANCH  11  17
ATOM     17  O   UNL     1       1.542  -2.351  -2.612  0.00  0.00    -0.492 OA
BRANCH  17  18
ATOM     18  C   UNL     1       0.936  -1.804  -1.439  0.00  0.00    +0.229 C 
BRANCH  18  19
ATOM     19  C   UNL     1       0.934  -0.277  -1.530  0.00  0.00    +0.041 C 
BRANCH  19  21
ATOM     20  C   UNL     1       0.282   1.835  -0.366  0.00  0.00    +0.004 C 
ATOM     21  C   UNL     1       0.285   0.308  -0.274  0.00  0.00    -0.000 C 
ENDBRANCH  19  21
ENDBRANCH  18  19
ENDBRANCH  17  18
ENDBRANCH  11  17
ENDBRANCH   1  15
BRANCH   9  22
ATOM     22  N   UNL     1       0.993  -9.313  -6.264  0.00  0.00    -0.328 N 
ATOM     23  H   UNL     1       1.002 -10.279  -6.175  0.00  0.00    +0.145 HD
ATOM     24  H   UNL     1       0.314  -8.883  -6.806  0.00  0.00    +0.145 HD
ENDBRANCH   9  22
BRANCH  10  25
ATOM     25  C   UNL     1       0.889  -6.616  -6.567  0.00  0.00    +0.101 C 
ATOM     26  N   UNL     1       0.080  -6.144  -7.210  0.00  0.00    -0.191 NA
ENDBRANCH  10  25
BRANCH   5  27
ATOM     27  O   UNL     1       7.391  -9.342  -3.434  0.00  0.00    -0.420 OA
BRANCH  27  28
ATOM     28  C   UNL     1       8.007 -10.115  -4.351  0.00  0.00    +0.380 C 
ATOM     29  O   UNL     1       7.659 -10.072  -5.515  0.00  0.00    -0.241 OA
BRANCH  28  30
ATOM     30  C   UNL     1       9.098 -11.008  -3.944  0.00  0.00    +0.216 A 
ATOM     31  C   UNL     1       9.793 -11.826  -4.779  0.00  0.00    +0.010 A 
ATOM     32  C   UNL     1      10.772 -12.520  -3.943  0.00  0.00    +0.024 A 
ATOM     33  C   UNL     1      11.763 -13.473  -4.192  0.00  0.00    +0.015 A 
ATOM     34  C   UNL     1      12.533 -13.934  -3.162  0.00  0.00    -0.047 A 
ATOM     35  C   UNL     1      12.336 -13.463  -1.871  0.00  0.00    +0.007 A 
ATOM     36  C   UNL     1      11.364 -12.523  -1.605  0.00  0.00    +0.047 A 
ATOM     37  C   UNL     1      10.568 -12.039  -2.637  0.00  0.00    +0.136 A 
ATOM     38  O   UNL     1       9.568 -11.138  -2.685  0.00  0.00    -0.448 OA
ATOM     39  C   UNL     1       9.594 -11.985  -6.264  0.00  0.00    +0.048 C 
BRANCH  34  40
ATOM     40  C   UNL     1      13.602 -14.962  -3.429  0.00  0.00    +0.032 C 
ATOM     41  C   UNL     1      14.918 -14.255  -3.759  0.00  0.00    +0.009 C 
ENDBRANCH  34  40
ENDBRANCH  28  30
ENDBRANCH  27  28
ENDBRANCH   5  27
TORSDOF 11
