REMARK  Name = ZINC22849618
REMARK  7 active torsions:
REMARK  status: ('A' for Active; 'I' for Inactive)
REMARK    1  A    between atoms: C_1  and  N_2
REMARK    2  A    between atoms: N_2  and  C_3
REMARK    3  A    between atoms: C_6  and  C_11
REMARK    4  A    between atoms: C_11  and  N_12
REMARK    5  A    between atoms: N_15  and  C_18
REMARK    6  A    between atoms: C_18  and  C_19
REMARK    7  A    between atoms: C_21  and  C_24
REMARK                            x       y       z     vdW  Elec       q    Type
REMARK                         _______ _______ _______ _____ _____    ______ ____
ROOT
ATOM      1  N   UNL     1      -0.706   1.976   1.219  0.00  0.00    +0.386 N 
ATOM      2  C   UNL     1      -2.129   1.611   1.193  0.00  0.00    -0.063 C 
ATOM      3  C   UNL     1      -2.790   2.051   2.501  0.00  0.00    +0.066 C 
ATOM      4  N   UNL     1      -2.625   3.502   2.666  0.00  0.00    -0.297 NA
ATOM      5  C   UNL     1      -1.202   3.868   2.692  0.00  0.00    +0.066 C 
ATOM      6  C   UNL     1      -0.541   3.427   1.384  0.00  0.00    -0.063 C 
ATOM      7  H   UNL     1      -0.244   1.481   2.085  0.00  0.00    -0.081 HD
ENDROOT
BRANCH   1   8
ATOM      8  C   UNL     1      -0.018   1.503   0.010  0.00  0.00    -0.001 C 
BRANCH   8  14
ATOM      9  C   UNL     1       2.105  -4.125   1.133  0.00  0.00    +0.132 C 
ATOM     10  N   UNL     1       2.082  -2.660   1.140  0.00  0.00    -0.306 N 
ATOM     11  C   UNL     1       3.175  -1.913   1.767  0.00  0.00    +0.132 C 
ATOM     12  C   UNL     1       1.030  -1.984   0.555  0.00  0.00    +0.222 A 
ATOM     13  N   UNL     1       1.011  -0.652   0.557  0.00  0.00    -0.201 NA
ATOM     14  C   UNL     1       0.002  -0.004   0.002  0.00  0.00    +0.120 A 
ATOM     15  N   UNL     1      -0.986  -0.673  -0.565  0.00  0.00    -0.202 NA
ATOM     16  C   UNL     1      -0.972  -2.004  -0.575  0.00  0.00    +0.217 A 
ATOM     17  N   UNL     1       0.038  -2.660  -0.013  0.00  0.00    -0.181 NA
ATOM     18  N   UNL     1      -2.005  -2.702  -1.167  0.00  0.00    -0.327 N 
ATOM     19  H   UNL     1      -1.992  -3.802  -1.174  0.00  0.00    +0.145 HD
ATOM     20  H   UNL     1      -2.841  -2.159  -1.631  0.00  0.00    +0.145 HD
ENDBRANCH   8  14
ENDBRANCH   1   8
BRANCH   4  21
ATOM     21  C   UNL     1      -3.313   3.976   3.875  0.00  0.00    +0.183 C 
BRANCH  21  22
ATOM     22  C   UNL     1      -4.695   3.379   3.933  0.00  0.00    +0.242 A 
ATOM     23  N   UNL     1      -5.031   2.247   4.501  0.00  0.00    -0.190 NA
ATOM     24  C   UNL     1      -6.363   2.123   4.304  0.00  0.00    +0.202 A 
ATOM     25  N   UNL     1      -6.754   3.177   3.635  0.00  0.00    -0.056 NA
ATOM     26  O   UNL     1      -5.811   3.908   3.420  0.00  0.00    -0.336 OA
BRANCH  24  27
ATOM     27  C   UNL     1      -7.221   1.002   4.761  0.00  0.00    +0.023 A 
ATOM     28  C   UNL     1      -6.662  -0.064   5.464  0.00  0.00    +0.013 A 
ATOM     29  C   UNL     1      -7.464  -1.102   5.892  0.00  0.00    +0.021 A 
ATOM     30  C   UNL     1      -8.820  -1.091   5.614  0.00  0.00    +0.041 A 
ATOM     31  C   UNL     1      -9.379  -0.037   4.912  0.00  0.00    +0.021 A 
ATOM     32  C   UNL     1      -8.586   1.008   4.485  0.00  0.00    +0.013 A 
ATOM     33 CL   UNL     1      -9.823  -2.403   6.149  0.00  0.00    -0.084 Cl
ENDBRANCH  24  27
ENDBRANCH  21  22
ENDBRANCH   4  21
TORSDOF 5
