REMARK  Name = ZINC03840909
REMARK  11 active torsions:
REMARK  status: ('A' for Active; 'I' for Inactive)
REMARK    1  A    between atoms: C_1  and  C_2
REMARK    2  A    between atoms: C_2  and  N_3
REMARK    3  A    between atoms: N_3  and  C_4
REMARK    4  A    between atoms: C_4  and  C_5
REMARK    5  A    between atoms: C_6  and  C_8
REMARK    6  A    between atoms: C_8  and  C_10
REMARK    7  A    between atoms: C_8  and  C_11
REMARK    8  A    between atoms: C_15  and  C_39
REMARK    9  A    between atoms: C_23  and  C_25
REMARK   10  A    between atoms: C_31  and  C_38
REMARK   11  A    between atoms: C_35  and  O_37
REMARK                            x       y       z     vdW  Elec       q    Type
REMARK                         _______ _______ _______ _____ _____    ______ ____
ROOT
ATOM      1  C   UNL     1      -0.761  -0.787   2.209  0.00  0.00    +0.029 C 
ATOM      2  C   UNL     1      -0.778   0.730   2.426  0.00  0.00    +0.007 C 
ATOM      3  C   UNL     1       0.658   1.248   2.374  0.00  0.00    +0.008 C 
ATOM      4  C   UNL     1       1.282   0.952   1.008  0.00  0.00    -0.022 C 
ATOM      5  C   UNL     1       2.749   1.422   1.067  0.00  0.00    +0.051 C 
ATOM      6  C   UNL     1       3.489   0.850  -0.091  0.00  0.00    +0.015 A 
ATOM      7  C   UNL     1       3.094  -0.157  -0.912  0.00  0.00    +0.057 A 
ATOM      8  N   UNL     1       3.945  -0.487  -1.881  0.00  0.00    -0.229 NA
ATOM      9  C   UNL     1       5.101   0.124  -2.038  0.00  0.00    +0.165 A 
ATOM     10  S   UNL     1       5.076   1.288  -0.747  0.00  0.00    -0.057 S 
ATOM     11  N   UNL     1       6.086  -0.103  -2.990  0.00  0.00    -0.261 N 
ATOM     12  C   UNL     1       7.212   0.637  -2.984  0.00  0.00    +0.250 C 
ATOM     13  O   UNL     1       7.366   1.503  -2.146  0.00  0.00    -0.270 OA
ATOM     14  C   UNL     1       1.749  -0.834  -0.698  0.00  0.00    +0.042 C 
ATOM     15  C   UNL     1       1.253  -0.552   0.727  0.00  0.00    +0.033 C 
ATOM     16  C   UNL     1      -0.182  -1.079   0.826  0.00  0.00    +0.123 C 
ATOM     17  C   UNL     1       1.901  -2.344  -0.894  0.00  0.00    +0.014 C 
ATOM     18  C   UNL     1       0.537   1.705  -0.096  0.00  0.00    +0.012 C 
ATOM     19  H   UNL     1       5.964  -0.794  -3.660  0.00  0.00    +0.157 HD
ENDROOT
BRANCH  12  20
ATOM     20  C   UNL     1       8.263   0.396  -4.000  0.00  0.00    +0.040 A 
ATOM     21  C   UNL     1       8.109  -0.600  -4.970  0.00  0.00    +0.033 A 
ATOM     22  C   UNL     1       9.112  -0.788  -5.901  0.00  0.00    +0.111 A 
ATOM     23  N   UNL     1      10.205  -0.052  -5.876  0.00  0.00    -0.263 NA
ATOM     24  C   UNL     1      10.393   0.893  -4.976  0.00  0.00    +0.111 A 
ATOM     25  C   UNL     1       9.439   1.152  -4.011  0.00  0.00    +0.033 A 
ENDBRANCH  12  20
BRANCH   1  26
ATOM     26  C   UNL     1      -2.188  -1.333   2.296  0.00  0.00    +0.078 C 
ATOM     27  C   UNL     1      -3.083  -0.582   1.309  0.00  0.00    +0.017 C 
BRANCH  26  29
ATOM     28  N   UNL     1      -2.975  -2.216   4.469  0.00  0.00    -0.302 N 
ATOM     29  C   UNL     1      -2.713  -1.143   3.696  0.00  0.00    +0.219 C 
ATOM     30  O   UNL     1      -2.901  -0.025   4.127  0.00  0.00    -0.275 OA
BRANCH  28  32
ATOM     31  C   UNL     1      -4.899  -1.922   5.949  0.00  0.00    +0.024 C 
ATOM     32  C   UNL     1      -3.375  -2.032   5.866  0.00  0.00    +0.104 C 
ENDBRANCH  28  32
BRANCH  28  33
ATOM     33  C   UNL     1      -2.858  -3.566   3.912  0.00  0.00    +0.104 C 
ATOM     34  C   UNL     1      -1.436  -4.086   4.129  0.00  0.00    +0.024 C 
ENDBRANCH  28  33
ENDBRANCH  26  29
ENDBRANCH   1  26
BRANCH  16  35
ATOM     35  O   UNL     1      -0.184  -2.490   0.601  0.00  0.00    -0.391 OA
ATOM     36  H   UNL     1      -1.068  -2.878   0.548  0.00  0.00    +0.210 HD
ENDBRANCH  16  35
TORSDOF 6
