REMARK  Name = ZINC39462259
REMARK  7 active torsions:
REMARK  status: ('A' for Active; 'I' for Inactive)
REMARK    1  A    between atoms: C_1  and  O_2
REMARK    2  A    between atoms: O_2  and  C_3
REMARK    3  A    between atoms: C_5  and  C_14
REMARK    4  A    between atoms: C_6  and  N_11
REMARK    5  A    between atoms: C_8  and  O_9
REMARK    6  A    between atoms: O_9  and  C_10
REMARK    7  A    between atoms: C_15  and  C_16
REMARK                            x       y       z     vdW  Elec       q    Type
REMARK                         _______ _______ _______ _____ _____    ______ ____
ROOT
ATOM      1  C   UNL     1       2.294   0.330  -4.287  0.00  0.00    +0.008 C 
ATOM      2  C   UNL     1       2.119   1.645  -4.305  0.00  0.00    +0.007 C 
ENDROOT
BRANCH   2   3
ATOM      3  C   UNL     1       2.683   2.465  -5.437  0.00  0.00    +0.189 C 
ATOM      4  C   UNL     1       3.725   3.394  -4.858  0.00  0.00    +0.244 C 
ATOM      5  O   UNL     1       4.678   2.948  -4.250  0.00  0.00    -0.273 OA
ATOM      6  N   UNL     1       3.585   4.711  -5.024  0.00  0.00    -0.282 N 
ATOM      7  C   UNL     1       2.558   5.221  -5.682  0.00  0.00    +0.057 A 
ATOM      8  C   UNL     1       2.440   6.620  -5.840  0.00  0.00    +0.025 A 
ATOM      9  C   UNL     1       1.390   7.149  -6.511  0.00  0.00    +0.002 A 
ATOM     10  C   UNL     1       0.377   6.359  -7.080  0.00  0.00    +0.002 A 
ATOM     11  C   UNL     1       0.393   5.011  -6.989  0.00  0.00    +0.027 A 
ATOM     12  C   UNL     1       1.502   4.360  -6.273  0.00  0.00    +0.058 A 
ATOM     13  N   UNL     1       1.552   3.065  -6.163  0.00  0.00    -0.369 N 
ATOM     14  H   UNL     1       0.860   2.508  -6.551  0.00  0.00    +0.161 HD
ATOM     15  H   UNL     1       4.253   5.308  -4.653  0.00  0.00    +0.155 HD
ENDBRANCH   2   3
BRANCH   1  18
ATOM     16  C   UNL     1       0.258  -0.684  -1.297  0.00  0.00    +0.162 A 
ATOM     17  C   UNL     1       0.772   0.072  -2.334  0.00  0.00    +0.059 A 
ATOM     18  C   UNL     1       1.741  -0.473  -3.177  0.00  0.00    +0.009 A 
ATOM     19  C   UNL     1       2.187  -1.780  -2.971  0.00  0.00    +0.137 A 
ATOM     20  C   UNL     1       1.669  -2.529  -1.935  0.00  0.00    +0.082 A 
ATOM     21  C   UNL     1       0.711  -1.986  -1.093  0.00  0.00    +0.164 A 
BRANCH  19  22
ATOM     22  N   UNL     1       3.214  -2.361  -3.864  0.00  0.00    +0.057 N 
ATOM     23  O   UNL     1       3.146  -3.525  -4.186  0.00  0.00    -0.126 OA
ATOM     24  O   UNL     1       4.121  -1.673  -4.270  0.00  0.00    -0.126 OA
ENDBRANCH  19  22
BRANCH  16  26
ATOM     25  C   UNL     1      -1.105   1.184  -0.742  0.00  0.00    +0.277 C 
ATOM     26  O   UNL     1      -0.687  -0.156  -0.474  0.00  0.00    -0.491 OA
ENDBRANCH  16  26
BRANCH  21  27
ATOM     27  O   UNL     1       0.208  -2.726  -0.069  0.00  0.00    -0.491 OA
ATOM     28  C   UNL     1       0.717  -4.053   0.083  0.00  0.00    +0.277 C 
ENDBRANCH  21  27
ENDBRANCH   1  18
TORSDOF 5
