REMARK  Name = ZINC04755202
REMARK  4 active torsions:
REMARK  status: ('A' for Active; 'I' for Inactive)
REMARK    1  A    between atoms: C_1  and  S_2
REMARK    2  A    between atoms: S_2  and  C_3
REMARK    3  A    between atoms: C_6  and  C_7
REMARK    4  A    between atoms: C_10  and  N_13
REMARK                            x       y       z     vdW  Elec       q    Type
REMARK                         _______ _______ _______ _____ _____    ______ ____
ROOT
ATOM      1  C   UNL     1       6.679  -0.117   0.471  0.00  0.00    +0.138 C 
ATOM      2  N   UNL     1       5.765   0.822   0.385  0.00  0.00    -0.229 NA
ATOM      3  C   UNL     1       4.492   0.553   0.065  0.00  0.00    +0.120 C 
ATOM      4  C   UNL     1       3.545   1.531  -0.023  0.00  0.00    +0.040 C 
ATOM      5  C   UNL     1       4.178  -0.875  -0.187  0.00  0.00    +0.244 C 
ATOM      6  O   UNL     1       3.121  -1.398  -0.491  0.00  0.00    -0.278 OA
ATOM      7  S   UNL     1       5.785  -1.612   0.080  0.00  0.00    -0.019 S 
ENDROOT
BRANCH   4   8
ATOM      8  C   UNL     1       3.933   2.942   0.091  0.00  0.00    -0.023 A 
ATOM      9  C   UNL     1       2.953   3.935   0.206  0.00  0.00    +0.010 A 
ATOM     10  C   UNL     1       3.327   5.257   0.319  0.00  0.00    +0.033 A 
ATOM     11  C   UNL     1       4.667   5.605   0.308  0.00  0.00    +0.126 A 
ATOM     12  C   UNL     1       5.642   4.630   0.190  0.00  0.00    +0.033 A 
ATOM     13  C   UNL     1       5.286   3.303   0.082  0.00  0.00    +0.010 A 
BRANCH  11  14
ATOM     14  N   UNL     1       5.058   7.028   0.424  0.00  0.00    +0.056 N 
ATOM     15  O   UNL     1       6.236   7.338   0.415  0.00  0.00    -0.126 OA
ATOM     16  O   UNL     1       4.203   7.889   0.528  0.00  0.00    -0.126 OA
ENDBRANCH  11  14
ENDBRANCH   4   8
BRANCH   1  18
ATOM     17  C   UNL     1       8.467   1.848   1.125  0.00  0.00    +0.092 C 
ATOM     18  S   UNL     1       8.383   0.056   0.882  0.00  0.00    -0.102 S 
ENDBRANCH   1  18
TORSDOF 3
