REMARK  Name = ZINC39200904
REMARK  7 active torsions:
REMARK  status: ('A' for Active; 'I' for Inactive)
REMARK    1  A    between atoms: C_1  and  N_2
REMARK    2  A    between atoms: N_7  and  C_10
REMARK    3  A    between atoms: N_11  and  C_14
REMARK    4  A    between atoms: C_14  and  C_15
REMARK    5  A    between atoms: C_18  and  S_20
REMARK    6  A    between atoms: S_20  and  C_21
REMARK    7  A    between atoms: C_21  and  C_22
REMARK                            x       y       z     vdW  Elec       q    Type
REMARK                         _______ _______ _______ _____ _____    ______ ____
ROOT
ATOM      1  C   UNL     1      -2.952  -4.444   1.406  0.00  0.00    +0.238 A 
ATOM      2  N   UNL     1      -3.963  -4.387   2.223  0.00  0.00    -0.110 NA
ATOM      3  N   UNL     1      -3.642  -4.930   3.345  0.00  0.00    -0.101 NA
ATOM      4  C   UNL     1      -2.403  -5.356   3.281  0.00  0.00    +0.278 A 
ATOM      5  O   UNL     1      -1.942  -5.062   2.051  0.00  0.00    -0.414 OA
ENDROOT
BRANCH   1   6
ATOM      6  C   UNL     1      -2.918  -3.920  -0.006  0.00  0.00    +0.221 C 
BRANCH   6  17
ATOM      7  C   UNL     1      -0.018   1.461   0.010  0.00  0.00    +0.155 C 
ATOM      8  N   UNL     1       0.002  -0.004   0.002  0.00  0.00    -0.280 N 
ATOM      9  C   UNL     1      -1.189  -0.712   0.004  0.00  0.00    +0.168 A 
ATOM     10  C   UNL     1      -1.144  -2.100  -0.004  0.00  0.00    +0.152 A 
ATOM     11  C   UNL     1       0.111  -2.748  -0.013  0.00  0.00    +0.282 A 
ATOM     12  O   UNL     1       0.176  -3.964  -0.021  0.00  0.00    -0.265 OA
ATOM     13  N   UNL     1       1.236  -2.003  -0.015  0.00  0.00    -0.262 N 
ATOM     14  C   UNL     1       1.178  -0.660  -0.013  0.00  0.00    +0.333 A 
ATOM     15  O   UNL     1       2.213  -0.022  -0.020  0.00  0.00    -0.246 OA
ATOM     16  C   UNL     1       2.541  -2.668  -0.025  0.00  0.00    +0.157 C 
ATOM     17  N   UNL     1      -2.456  -2.530   0.000  0.00  0.00    -0.315 N 
ATOM     18  C   UNL     1      -3.231  -1.427   0.010  0.00  0.00    +0.202 A 
ATOM     19  N   UNL     1      -2.477  -0.358   0.012  0.00  0.00    -0.218 NA
ENDBRANCH   6  17
ENDBRANCH   1   6
BRANCH   4  20
ATOM     20  S   UNL     1      -1.510  -6.168   4.565  0.00  0.00    -0.059 S 
BRANCH  20  21
ATOM     21  C   UNL     1      -2.696  -6.258   5.935  0.00  0.00    +0.134 C 
BRANCH  21  22
ATOM     22  C   UNL     1      -2.051  -6.941   7.114  0.00  0.00    +0.052 A 
ATOM     23  C   UNL     1      -2.147  -8.325   7.231  0.00  0.00    +0.025 A 
ATOM     24  C   UNL     1      -1.568  -8.961   8.293  0.00  0.00    +0.012 A 
ATOM     25  C   UNL     1      -0.885  -8.178   9.244  0.00  0.00    +0.000 A 
ATOM     26  C   UNL     1      -0.266  -8.761  10.361  0.00  0.00    +0.010 A 
ATOM     27  C   UNL     1       0.385  -7.971  11.258  0.00  0.00    +0.001 A 
ATOM     28  C   UNL     1       0.445  -6.589  11.082  0.00  0.00    +0.002 A 
ATOM     29  C   UNL     1      -0.145  -5.992  10.011  0.00  0.00    +0.028 A 
ATOM     30  C   UNL     1      -0.826  -6.774   9.063  0.00  0.00    +0.071 A 
ATOM     31  N   UNL     1      -1.410  -6.216   7.998  0.00  0.00    -0.251 NA
ENDBRANCH  21  22
ENDBRANCH  20  21
ENDBRANCH   4  20
TORSDOF 5
