REMARK  Name = ZINC13506647
REMARK  10 active torsions:
REMARK  status: ('A' for Active; 'I' for Inactive)
REMARK    1  A    between atoms: C_1  and  C_2
REMARK    2  A    between atoms: C_6  and  N_8
REMARK    3  A    between atoms: N_8  and  C_9
REMARK    4  A    between atoms: C_9  and  C_11
REMARK    5  A    between atoms: C_9  and  C_17
REMARK    6  A    between atoms: C_14  and  C_16
REMARK    7  A    between atoms: N_19  and  C_20
REMARK    8  A    between atoms: C_25  and  C_27
REMARK    9  A    between atoms: C_27  and  N_28
REMARK   10  A    between atoms: C_29  and  C_31
REMARK                            x       y       z     vdW  Elec       q    Type
REMARK                         _______ _______ _______ _____ _____    ______ ____
ROOT
ATOM      1  N   UNL     1       0.041   2.172   4.824  0.00  0.00    -0.251 N 
ATOM      2  C   UNL     1       1.388   2.188   4.772  0.00  0.00    +0.238 C 
ATOM      3  O   UNL     1       2.026   2.595   5.720  0.00  0.00    -0.273 OA
ENDROOT
BRANCH   1   9
ATOM      4  C   UNL     1      -0.105   1.279  -0.008  0.00  0.00    +0.044 C 
ATOM      5  C   UNL     1      -0.796   1.421   1.323  0.00  0.00    -0.049 A 
ATOM      6  C   UNL     1      -2.166   1.249   1.413  0.00  0.00    +0.003 A 
ATOM      7  C   UNL     1      -2.803   1.375   2.634  0.00  0.00    +0.002 A 
ATOM      8  C   UNL     1      -2.074   1.682   3.766  0.00  0.00    +0.023 A 
ATOM      9  C   UNL     1      -0.700   1.861   3.679  0.00  0.00    +0.038 A 
ATOM     10  C   UNL     1      -0.062   1.729   2.452  0.00  0.00    +0.027 A 
ENDBRANCH   1   9
BRANCH   1  11
ATOM     11  C   UNL     1      -0.647   2.481   6.080  0.00  0.00    +0.233 C 
BRANCH  11  12
ATOM     12  C   UNL     1      -1.484   1.299   6.498  0.00  0.00    +0.135 A 
ATOM     13  C   UNL     1      -1.625   0.840   7.755  0.00  0.00    +0.047 A 
ATOM     14  C   UNL     1      -2.494  -0.274   7.689  0.00  0.00    +0.045 A 
ATOM     15  C   UNL     1      -2.825  -0.433   6.395  0.00  0.00    +0.102 A 
ATOM     16  O   UNL     1      -2.210   0.522   5.678  0.00  0.00    -0.462 OA
ATOM     17  C   UNL     1      -3.731  -1.503   5.843  0.00  0.00    +0.086 C 
ENDBRANCH  11  12
BRANCH  11  18
ATOM     18  C   UNL     1      -1.536   3.681   5.884  0.00  0.00    +0.242 C 
ATOM     19  O   UNL     1      -1.590   4.226   4.802  0.00  0.00    -0.273 OA
ATOM     20  N   UNL     1      -2.272   4.150   6.912  0.00  0.00    -0.311 N 
ATOM     21  H   UNL     1      -2.229   3.715   7.777  0.00  0.00    +0.149 HD
BRANCH  20  22
ATOM     22  C   UNL     1      -3.136   5.317   6.721  0.00  0.00    +0.073 C 
ATOM     23  C   UNL     1      -2.341   6.613   6.984  0.00  0.00    +0.022 C 
ATOM     24  C   UNL     1      -3.358   7.548   7.683  0.00  0.00    +0.002 C 
ATOM     25  C   UNL     1      -4.151   6.575   8.590  0.00  0.00    +0.002 C 
ATOM     26  C   UNL     1      -4.287   5.293   7.742  0.00  0.00    +0.022 C 
ENDBRANCH  20  22
ENDBRANCH  11  18
ENDBRANCH   1  11
BRANCH   2  27
ATOM     27  C   UNL     1       2.100   1.702   3.536  0.00  0.00    +0.201 C 
BRANCH  27  28
ATOM     28  N   UNL     1       3.475   1.331   3.879  0.00  0.00    -0.300 N 
ATOM     29  C   UNL     1       4.305   0.865   2.925  0.00  0.00    +0.280 C 
ATOM     30  O   UNL     1       3.912   0.753   1.778  0.00  0.00    -0.267 OA
ATOM     31  H   UNL     1       3.788   1.421   4.793  0.00  0.00    +0.150 HD
BRANCH  29  32
ATOM     32  C   UNL     1       5.682   0.494   3.268  0.00  0.00    +0.189 A 
ATOM     33  C   UNL     1       6.622   0.012   2.403  0.00  0.00    +0.054 A 
ATOM     34  C   UNL     1       7.787  -0.206   3.155  0.00  0.00    +0.042 A 
ATOM     35  C   UNL     1       7.511   0.149   4.429  0.00  0.00    +0.196 A 
ATOM     36  O   UNL     1       6.243   0.576   4.492  0.00  0.00    -0.458 OA
ENDBRANCH  29  32
ENDBRANCH  27  28
ENDBRANCH   2  27
TORSDOF 8
