REMARK  Name = ZINC22916501
REMARK  5 active torsions:
REMARK  status: ('A' for Active; 'I' for Inactive)
REMARK    1  A    between atoms: C_3  and  O_31
REMARK    2  A    between atoms: C_6  and  N_7
REMARK    3  A    between atoms: C_11  and  N_15
REMARK    4  A    between atoms: N_18  and  C_21
REMARK    5  A    between atoms: O_31  and  C_32
REMARK                            x       y       z     vdW  Elec       q    Type
REMARK                         _______ _______ _______ _____ _____    ______ ____
ROOT
ATOM      1  N   UNL     1      -1.204  -0.723   0.010  0.00  0.00    -0.209 N 
ATOM      2  C   UNL     1      -2.399  -0.130   0.118  0.00  0.00    +0.228 C 
ATOM      3  O   UNL     1      -2.585   1.064   0.218  0.00  0.00    -0.275 OA
ATOM      4  C   UNL     1      -3.482  -1.186   0.094  0.00  0.00    +0.125 C 
ATOM      5  C   UNL     1      -2.697  -2.506  -0.048  0.00  0.00    +0.153 C 
ATOM      6  C   UNL     1      -1.253  -2.056  -0.095  0.00  0.00    +0.244 C 
ATOM      7  O   UNL     1      -0.293  -2.788  -0.207  0.00  0.00    -0.273 OA
ENDROOT
BRANCH   5   8
ATOM      8  N   UNL     1      -2.938  -3.378   1.110  0.00  0.00    -0.295 NA
ATOM      9  C   UNL     1      -4.374  -3.635   1.286  0.00  0.00    +0.066 C 
ATOM     10  C   UNL     1      -4.586  -4.496   2.533  0.00  0.00    -0.062 C 
ATOM     11  N   UNL     1      -3.858  -5.763   2.384  0.00  0.00    +0.385 N 
ATOM     12  C   UNL     1      -2.423  -5.490   2.234  0.00  0.00    -0.062 C 
ATOM     13  C   UNL     1      -2.193  -4.639   0.984  0.00  0.00    +0.066 C 
ATOM     14  H   UNL     1      -4.195  -6.250   1.567  0.00  0.00    -0.081 HD
BRANCH  11  15
ATOM     15  C   UNL     1      -4.077  -6.596   3.574  0.00  0.00    -0.065 C 
ATOM     16  C   UNL     1      -3.567  -5.858   4.814  0.00  0.00    -0.009 C 
ATOM     17  C   UNL     1      -3.795  -6.725   6.053  0.00  0.00    -0.012 C 
ATOM     18  C   UNL     1      -3.037  -8.046   5.898  0.00  0.00    +0.007 C 
ATOM     19  C   UNL     1      -3.547  -8.783   4.658  0.00  0.00    -0.012 C 
ATOM     20  C   UNL     1      -3.319  -7.916   3.419  0.00  0.00    -0.009 C 
ATOM     21  C   UNL     1      -5.042  -9.069   4.813  0.00  0.00    +0.007 C 
ATOM     22  C   UNL     1      -5.800  -7.749   4.969  0.00  0.00    -0.012 C 
ATOM     23  C   UNL     1      -5.290  -7.011   6.208  0.00  0.00    +0.007 C 
ATOM     24  C   UNL     1      -5.572  -6.881   3.729  0.00  0.00    -0.009 C 
ENDBRANCH  11  15
ENDBRANCH   5   8
BRANCH   1  30
ATOM     25  C   UNL     1       0.775   0.043  -1.150  0.00  0.00    +0.027 A 
ATOM     26  C   UNL     1       1.960   0.750  -1.158  0.00  0.00    +0.048 A 
ATOM     27  C   UNL     1       2.380   1.413  -0.014  0.00  0.00    +0.129 A 
ATOM     28  C   UNL     1       1.608   1.367   1.138  0.00  0.00    +0.048 A 
ATOM     29  C   UNL     1       0.422   0.660   1.146  0.00  0.00    +0.027 A 
ATOM     30  C   UNL     1       0.002  -0.004   0.002  0.00  0.00    +0.044 A 
BRANCH  27  31
ATOM     31  O   UNL     1       3.548   2.109  -0.022  0.00  0.00    -0.420 OA
BRANCH  31  32
ATOM     32  C   UNL     1       3.919   2.768   1.191  0.00  0.00    +0.489 C 
ATOM     33  F   UNL     1       2.931   3.696   1.538  0.00  0.00    -0.149 F 
ATOM     34  F   UNL     1       4.051   1.823   2.213  0.00  0.00    -0.149 F 
ATOM     35 CL   UNL     1       5.489   3.622   0.955  0.00  0.00    +0.000 Cl
ENDBRANCH  31  32
ENDBRANCH  27  31
ENDBRANCH   1  30
TORSDOF 5
