REMARK  Name = ZINC04177835
REMARK  10 active torsions:
REMARK  status: ('A' for Active; 'I' for Inactive)
REMARK    1  A    between atoms: C_1  and  C_2
REMARK    2  A    between atoms: N_7  and  S_9
REMARK    3  A    between atoms: S_9  and  C_12
REMARK    4  A    between atoms: C_15  and  C_18
REMARK    5  A    between atoms: N_20  and  C_21
REMARK    6  A    between atoms: C_22  and  C_33
REMARK    7  A    between atoms: C_26  and  C_31
REMARK    8  A    between atoms: C_26  and  C_32
REMARK    9  A    between atoms: C_27  and  C_29
REMARK   10  A    between atoms: C_27  and  C_30
REMARK                            x       y       z     vdW  Elec       q    Type
REMARK                         _______ _______ _______ _____ _____    ______ ____
ROOT
ATOM      1  C   UNL     1       0.081  -1.811   5.732  0.00  0.00    +0.249 C 
ATOM      2  O   UNL     1      -0.964  -2.008   6.322  0.00  0.00    -0.270 OA
ATOM      3  N   UNL     1       1.257  -1.999   6.364  0.00  0.00    -0.275 N 
ATOM      4  H   UNL     1       2.090  -1.842   5.893  0.00  0.00    +0.156 HD
ENDROOT
BRANCH   3   5
ATOM      5  C   UNL     1       1.275  -2.415   7.685  0.00  0.00    +0.085 A 
ATOM      6  C   UNL     1       2.378  -2.660   8.497  0.00  0.00    +0.068 A 
ATOM      7  C   UNL     1       2.120  -3.084   9.856  0.00  0.00    -0.026 A 
ATOM      8  C   UNL     1       0.815  -3.209  10.191  0.00  0.00    -0.016 A 
ATOM      9  S   UNL     1      -0.067  -2.759   8.725  0.00  0.00    -0.079 S 
ATOM     10  C   UNL     1       0.274  -3.642  11.515  0.00  0.00    -0.041 C 
ATOM     11  C   UNL     1       2.572  -3.029  12.277  0.00  0.00    -0.069 C 
ATOM     12  C   UNL     1       3.174  -3.387  10.913  0.00  0.00    +0.024 C 
ATOM     13  C   UNL     1       2.373  -1.513  12.359  0.00  0.00    -0.010 C 
ATOM     14  C   UNL     1       3.588  -3.432  13.362  0.00  0.00    -0.010 C 
ATOM     15  C   UNL     1      -0.814  -2.658  11.966  0.00  0.00    -0.005 C 
ATOM     16  C   UNL     1      -0.378  -5.027  11.343  0.00  0.00    -0.005 C 
ATOM     17  N   UNL     1       1.317  -3.766  12.574  0.00  0.00    +0.389 N 
ATOM     18  H   UNL     1       1.546  -4.761  12.687  0.00  0.00    -0.084 HD
ATOM     19  H   UNL     1       0.929  -3.402  13.453  0.00  0.00    -0.084 HD
BRANCH   6  20
ATOM     20  C   UNL     1       3.741  -2.494   7.982  0.00  0.00    +0.244 C 
ATOM     21  O   UNL     1       4.301  -1.418   8.081  0.00  0.00    -0.270 OA
ATOM     22  N   UNL     1       4.373  -3.532   7.401  0.00  0.00    -0.325 N 
ATOM     23  H   UNL     1       3.926  -4.390   7.323  0.00  0.00    +0.145 HD
ATOM     24  H   UNL     1       5.275  -3.422   7.061  0.00  0.00    +0.145 HD
ENDBRANCH   6  20
ENDBRANCH   3   5
BRANCH   1  28
ATOM     25  C   UNL     1       0.025  -0.534   1.682  0.00  0.00    +0.106 A 
ATOM     26  C   UNL     1       1.234  -0.730   2.326  0.00  0.00    +0.029 A 
ATOM     27  C   UNL     1       1.259  -1.141   3.643  0.00  0.00    +0.015 A 
ATOM     28  C   UNL     1       0.062  -1.367   4.323  0.00  0.00    +0.037 A 
ATOM     29  C   UNL     1      -1.155  -1.173   3.666  0.00  0.00    +0.015 A 
ATOM     30  C   UNL     1      -1.166  -0.757   2.350  0.00  0.00    +0.029 A 
BRANCH  25  31
ATOM     31  S   UNL     1       0.002  -0.004   0.002  0.00  0.00    +0.061 S 
ATOM     32  O   UNL     1      -1.243  -0.424  -0.539  0.00  0.00    -0.153 OA
ATOM     33  O   UNL     1       1.248  -0.390  -0.563  0.00  0.00    -0.153 OA
BRANCH  31  39
ATOM     34  C   UNL     1       2.453   4.301   1.106  0.00  0.00    +0.009 C 
ATOM     35  C   UNL     1       1.217   3.403   1.176  0.00  0.00    +0.002 C 
ATOM     36  C   UNL     1      -0.046   4.264   1.096  0.00  0.00    +0.006 C 
ATOM     37  C   UNL     1      -1.283   3.369   1.199  0.00  0.00    +0.017 C 
ATOM     38  C   UNL     1      -1.295   2.383   0.021  0.00  0.00    +0.109 C 
ATOM     39  N   UNL     1      -0.020   1.652   0.011  0.00  0.00    -0.176 NA
ATOM     40  C   UNL     1       1.234   2.417   0.003  0.00  0.00    +0.112 C 
ENDBRANCH  31  39
ENDBRANCH  25  31
ENDBRANCH   1  28
TORSDOF 5
