REMARK  Name = ZINC51682603
REMARK  6 active torsions:
REMARK  status: ('A' for Active; 'I' for Inactive)
REMARK    1  A    between atoms: C_1  and  C_2
REMARK    2  A    between atoms: C_6  and  O_11
REMARK    3  A    between atoms: C_7  and  N_8
REMARK    4  A    between atoms: O_11  and  C_12
REMARK    5  A    between atoms: C_12  and  C_14
REMARK    6  A    between atoms: C_14  and  N_15
REMARK                            x       y       z     vdW  Elec       q    Type
REMARK                         _______ _______ _______ _____ _____    ______ ____
ROOT
ATOM      1  N   UNL     1      -0.216  -6.341   3.254  0.00  0.00    -0.213 N 
ATOM      2  C   UNL     1      -1.371  -7.006   3.037  0.00  0.00    +0.252 C 
ATOM      3  O   UNL     1      -2.497  -6.557   3.072  0.00  0.00    -0.272 OA
ATOM      4  C   UNL     1      -0.962  -8.426   2.743  0.00  0.00    +0.138 C 
ATOM      5  C   UNL     1      -1.437  -8.863   1.351  0.00  0.00    +0.045 C 
ATOM      6  C   UNL     1      -2.761  -9.592   1.673  0.00  0.00    +0.038 C 
ATOM      7  C   UNL     1      -2.614 -10.070   3.103  0.00  0.00    -0.042 A 
ATOM      8  C   UNL     1      -1.574  -9.393   3.719  0.00  0.00    -0.012 A 
ATOM      9  C   UNL     1      -1.260  -9.673   5.038  0.00  0.00    +0.006 A 
ATOM     10  C   UNL     1      -1.979 -10.621   5.740  0.00  0.00    +0.000 A 
ATOM     11  C   UNL     1      -3.016 -11.295   5.125  0.00  0.00    +0.000 A 
ATOM     12  C   UNL     1      -3.332 -11.019   3.809  0.00  0.00    +0.004 A 
ATOM     13  N   UNL     1       0.498  -8.414   2.830  0.00  0.00    -0.281 N 
ATOM     14  C   UNL     1       0.847  -7.146   3.129  0.00  0.00    +0.310 C 
ATOM     15  O   UNL     1       1.996  -6.776   3.272  0.00  0.00    -0.252 OA
ATOM     16  H   UNL     1       1.096  -9.166   2.697  0.00  0.00    +0.152 HD
ENDROOT
BRANCH   1  17
ATOM     17  C   UNL     1      -0.136  -4.914   3.578  0.00  0.00    +0.238 C 
BRANCH  17  18
ATOM     18  C   UNL     1      -0.034  -4.114   2.305  0.00  0.00    +0.331 C 
ATOM     19  O   UNL     1      -0.030  -4.678   1.236  0.00  0.00    -0.249 OA
BRANCH  18  20
ATOM     20  O   UNL     1       0.051  -2.776   2.359  0.00  0.00    -0.422 OA
BRANCH  20  26
ATOM     21  C   UNL     1      -2.525  -0.814  -1.293  0.00  0.00    +0.046 C 
ATOM     22  C   UNL     1      -1.210  -1.113  -0.622  0.00  0.00    -0.017 A 
ATOM     23  C   UNL     1      -0.027  -0.687  -1.198  0.00  0.00    +0.006 A 
ATOM     24  C   UNL     1       1.181  -0.959  -0.584  0.00  0.00    +0.004 A 
ATOM     25  C   UNL     1       1.210  -1.659   0.607  0.00  0.00    +0.049 A 
ATOM     26  C   UNL     1       0.025  -2.087   1.187  0.00  0.00    +0.162 A 
ATOM     27  C   UNL     1      -1.187  -1.808   0.572  0.00  0.00    +0.171 A 
BRANCH  27  28
ATOM     28  N   UNL     1      -2.453  -2.258   1.191  0.00  0.00    +0.060 N 
ATOM     29  O   UNL     1      -2.907  -3.345   0.918  0.00  0.00    -0.126 OA
ATOM     30  O   UNL     1      -3.034  -1.540   1.971  0.00  0.00    -0.126 OA
ENDBRANCH  27  28
ENDBRANCH  20  26
ENDBRANCH  18  20
ENDBRANCH  17  18
ENDBRANCH   1  17
TORSDOF 5
