REMARK  Name = ZINC01326635
REMARK  8 active torsions:
REMARK  status: ('A' for Active; 'I' for Inactive)
REMARK    1  A    between atoms: C_1  and  O_2
REMARK    2  A    between atoms: O_2  and  C_3
REMARK    3  A    between atoms: C_5  and  N_11
REMARK    4  A    between atoms: C_7  and  O_9
REMARK    5  A    between atoms: O_9  and  C_10
REMARK    6  A    between atoms: C_12  and  C_14
REMARK    7  A    between atoms: C_18  and  C_29
REMARK    8  A    between atoms: C_21  and  C_25
REMARK                            x       y       z     vdW  Elec       q    Type
REMARK                         _______ _______ _______ _____ _____    ______ ____
ROOT
ATOM      1  C   UNL     1       1.784  -6.072  -3.507  0.00  0.00    +0.110 C 
ATOM      2  C   UNL     1       1.252  -6.923  -2.595  0.00  0.00    +0.072 C 
ATOM      3  C   UNL     1       1.417  -8.278  -3.118  0.00  0.00    +0.114 C 
ATOM      4  N   UNL     1       1.075  -9.422  -2.598  0.00  0.00    -0.369 N 
ATOM      5  C   UNL     1       1.393 -10.659  -3.323  0.00  0.00    +0.086 C 
ATOM      6  C   UNL     1       1.352 -10.422  -4.833  0.00  0.00    +0.058 C 
ATOM      7  C   UNL     1       2.338  -9.306  -5.210  0.00  0.00    +0.201 C 
ATOM      8  N   UNL     1       2.036  -8.153  -4.356  0.00  0.00    -0.226 N 
ATOM      9  N   UNL     1       2.271  -6.801  -4.580  0.00  0.00    -0.258 N 
ATOM     10  H   UNL     1       2.707  -6.428  -5.362  0.00  0.00    +0.170 HD
ATOM     11  H   UNL     1       0.617  -9.457  -1.744  0.00  0.00    +0.161 HD
ENDROOT
BRANCH   1  13
ATOM     12  N   UNL     1       1.323  -4.001  -2.284  0.00  0.00    -0.280 N 
ATOM     13  C   UNL     1       1.831  -4.600  -3.380  0.00  0.00    +0.264 C 
ATOM     14  O   UNL     1       2.328  -3.929  -4.263  0.00  0.00    -0.268 OA
ATOM     15  H   UNL     1       0.987  -4.539  -1.550  0.00  0.00    +0.155 HD
BRANCH  12  18
ATOM     16  C   UNL     1       0.177  -0.596  -1.488  0.00  0.00    +0.125 A 
ATOM     17  C   UNL     1       0.219  -1.979  -1.566  0.00  0.00    +0.069 A 
ATOM     18  C   UNL     1       1.279  -2.607  -2.206  0.00  0.00    +0.041 A 
ATOM     19  C   UNL     1       2.297  -1.847  -2.769  0.00  0.00    +0.069 A 
ATOM     20  C   UNL     1       2.253  -0.464  -2.691  0.00  0.00    +0.125 A 
ATOM     21  C   UNL     1       1.191   0.162  -2.056  0.00  0.00    +0.091 A 
BRANCH  16  23
ATOM     22  C   UNL     1      -0.842   1.447  -0.824  0.00  0.00    +0.277 C 
ATOM     23  O   UNL     1      -0.860   0.019  -0.861  0.00  0.00    -0.495 OA
ENDBRANCH  16  23
BRANCH  20  24
ATOM     24  O   UNL     1       3.249   0.279  -3.242  0.00  0.00    -0.495 OA
ATOM     25  C   UNL     1       3.140   1.699  -3.124  0.00  0.00    +0.277 C 
ENDBRANCH  20  24
ENDBRANCH  12  18
ENDBRANCH   1  13
BRANCH   7  26
ATOM     26  C   UNL     1       2.159  -8.928  -6.682  0.00  0.00    +0.410 C 
ATOM     27  F   UNL     1       0.852  -8.477  -6.892  0.00  0.00    -0.169 F 
ATOM     28  F   UNL     1       3.062  -7.912  -7.015  0.00  0.00    -0.169 F 
ATOM     29  F   UNL     1       2.401 -10.048  -7.484  0.00  0.00    -0.169 F 
ENDBRANCH   7  26
BRANCH   5  30
ATOM     30  C   UNL     1       2.792 -11.131  -2.925  0.00  0.00    +0.011 C 
ATOM     31  C   UNL     1       2.945 -12.584  -2.471  0.00  0.00    +0.006 C 
ATOM     32  C   UNL     1       3.037 -11.450  -1.448  0.00  0.00    +0.006 C 
ENDBRANCH   5  30
TORSDOF 6
