REMARK  Name = ZINC20558632
REMARK  6 active torsions:
REMARK  status: ('A' for Active; 'I' for Inactive)
REMARK    1  A    between atoms: C_1  and  C_2
REMARK    2  A    between atoms: C_6  and  C_8
REMARK    3  A    between atoms: C_8  and  N_9
REMARK    4  A    between atoms: C_21  and  C_29
REMARK    5  A    between atoms: C_23  and  C_27
REMARK    6  A    between atoms: C_24  and  N_26
REMARK                            x       y       z     vdW  Elec       q    Type
REMARK                         _______ _______ _______ _____ _____    ______ ____
ROOT
ATOM      1  N   UNL     1       1.339  -2.643  -1.408  0.00  0.00    -0.198 N 
ATOM      2  C   UNL     1       2.584  -2.791  -2.032  0.00  0.00    +0.062 A 
ATOM      3  C   UNL     1       3.626  -1.955  -1.651  0.00  0.00    +0.025 A 
ATOM      4  C   UNL     1       4.863  -2.071  -2.252  0.00  0.00    +0.002 A 
ATOM      5  C   UNL     1       5.069  -3.020  -3.239  0.00  0.00    +0.001 A 
ATOM      6  C   UNL     1       4.044  -3.856  -3.625  0.00  0.00    +0.013 A 
ATOM      7  C   UNL     1       2.784  -3.755  -3.021  0.00  0.00    +0.042 A 
ATOM      8  C   UNL     1       1.725  -4.690  -3.469  0.00  0.00    +0.162 C 
ATOM      9  C   UNL     1       0.440  -4.464  -3.216  0.00  0.00    +0.141 C 
ATOM     10  S   UNL     1      -0.009  -3.016  -2.311  0.00  0.00    +0.076 S 
ATOM     11  O   UNL     1      -1.029  -3.396  -1.398  0.00  0.00    -0.150 OA
ATOM     12  O   UNL     1      -0.175  -1.972  -3.261  0.00  0.00    -0.150 OA
ATOM     13  C   UNL     1      -0.636  -5.410  -3.672  0.00  0.00    +0.121 C 
ATOM     14  C   UNL     1      -0.107  -6.316  -4.751  0.00  0.00    +0.099 C 
ATOM     15  C   UNL     1       1.231  -6.457  -4.929  0.00  0.00    +0.199 C 
ATOM     16  O   UNL     1       2.109  -5.801  -4.154  0.00  0.00    -0.439 OA
ENDROOT
BRANCH  13  17
ATOM     17  C   UNL     1      -1.095  -6.242  -2.503  0.00  0.00    +0.002 A 
ATOM     18  C   UNL     1      -0.198  -7.062  -1.843  0.00  0.00    +0.007 A 
ATOM     19  C   UNL     1      -0.618  -7.825  -0.770  0.00  0.00    +0.000 A 
ATOM     20  C   UNL     1      -1.936  -7.769  -0.355  0.00  0.00    +0.003 A 
ATOM     21  C   UNL     1      -2.834  -6.950  -1.012  0.00  0.00    +0.038 A 
ATOM     22  C   UNL     1      -2.413  -6.182  -2.085  0.00  0.00    +0.128 A 
ATOM     23  F   UNL     1      -3.289  -5.377  -2.725  0.00  0.00    -0.205 F 
ENDBRANCH  13  17
BRANCH  15  24
ATOM     24  N   UNL     1       1.695  -7.285  -5.920  0.00  0.00    -0.328 N 
ATOM     25  H   UNL     1       2.777  -7.407  -6.073  0.00  0.00    +0.145 HD
ATOM     26  H   UNL     1       0.984  -7.828  -6.561  0.00  0.00    +0.145 HD
ENDBRANCH  15  24
BRANCH  14  27
ATOM     27  C   UNL     1      -1.018  -7.031  -5.593  0.00  0.00    +0.101 C 
ATOM     28  N   UNL     1      -1.741  -7.598  -6.260  0.00  0.00    -0.191 NA
ENDBRANCH  14  27
BRANCH   1  29
ATOM     29  C   UNL     1       1.229  -2.186  -0.021  0.00  0.00    +0.166 C 
BRANCH  29  35
ATOM     30  C   UNL     1      -0.700  -5.846   2.795  0.00  0.00    +0.044 C 
ATOM     31  C   UNL     1       0.498  -5.106   2.257  0.00  0.00    -0.050 A 
ATOM     32  C   UNL     1       1.773  -5.499   2.620  0.00  0.00    +0.003 A 
ATOM     33  C   UNL     1       2.872  -4.821   2.127  0.00  0.00    +0.001 A 
ATOM     34  C   UNL     1       2.696  -3.748   1.272  0.00  0.00    +0.005 A 
ATOM     35  C   UNL     1       1.421  -3.355   0.911  0.00  0.00    -0.028 A 
ATOM     36  C   UNL     1       0.322  -4.034   1.404  0.00  0.00    +0.008 A 
ENDBRANCH  29  35
ENDBRANCH   1  29
TORSDOF 5
