REMARK  Name = ZINC12871686
REMARK  12 active torsions:
REMARK  status: ('A' for Active; 'I' for Inactive)
REMARK    1  A    between atoms: C_1  and  C_2
REMARK    2  A    between atoms: C_2  and  N_3
REMARK    3  A    between atoms: N_3  and  C_4
REMARK    4  A    between atoms: N_3  and  S_6
REMARK    5  A    between atoms: C_4  and  C_5
REMARK    6  A    between atoms: S_6  and  C_9
REMARK    7  A    between atoms: C_11  and  C_35
REMARK    8  A    between atoms: C_12  and  C_34
REMARK    9  A    between atoms: C_13  and  N_15
REMARK   10  A    between atoms: C_16  and  C_18
REMARK   11  A    between atoms: C_20  and  C_28
REMARK   12  A    between atoms: C_24  and  C_27
REMARK                            x       y       z     vdW  Elec       q    Type
REMARK                         _______ _______ _______ _____ _____    ______ ____
ROOT
ATOM      1  N   UNL     1      -1.334   4.841   3.620  0.00  0.00    -0.281 N 
ATOM      2  C   UNL     1      -0.850   5.854   2.874  0.00  0.00    +0.249 C 
ATOM      3  O   UNL     1      -0.692   5.706   1.678  0.00  0.00    -0.270 OA
ATOM      4  H   UNL     1      -1.536   4.983   4.558  0.00  0.00    +0.155 HD
ENDROOT
BRANCH   2   5
ATOM      5  C   UNL     1      -0.511   7.145   3.511  0.00  0.00    +0.053 A 
ATOM      6  C   UNL     1      -1.152   7.562   4.675  0.00  0.00    +0.042 A 
ATOM      7  C   UNL     1      -0.796   8.786   5.246  0.00  0.00    +0.076 A 
ATOM      8  N   UNL     1       0.127   9.561   4.697  0.00  0.00    -0.210 NA
ATOM      9  C   UNL     1       0.762   9.216   3.589  0.00  0.00    +0.260 A 
ATOM     10  C   UNL     1       0.467   7.996   2.955  0.00  0.00    +0.076 A 
ATOM     11  C   UNL     1       1.328   7.917   1.777  0.00  0.00    +0.091 A 
ATOM     12  N   UNL     1       2.046   8.998   1.749  0.00  0.00    -0.080 NA
ATOM     13  O   UNL     1       1.719   9.817   2.853  0.00  0.00    -0.334 OA
ATOM     14  C   UNL     1       1.374   6.788   0.779  0.00  0.00    +0.070 C 
BRANCH   7  15
ATOM     15  C   UNL     1      -1.471   9.230   6.489  0.00  0.00    +0.000 A 
ATOM     16  C   UNL     1      -2.449   8.430   7.078  0.00  0.00    +0.010 A 
ATOM     17  C   UNL     1      -3.071   8.847   8.238  0.00  0.00    +0.001 A 
ATOM     18  C   UNL     1      -2.732  10.060   8.810  0.00  0.00    +0.000 A 
ATOM     19  C   UNL     1      -1.766  10.860   8.227  0.00  0.00    +0.001 A 
ATOM     20  C   UNL     1      -1.134  10.452   7.070  0.00  0.00    +0.010 A 
ENDBRANCH   7  15
ENDBRANCH   2   5
BRANCH   1  25
ATOM     21  C   UNL     1      -1.047   1.973   1.338  0.00  0.00    +0.107 A 
ATOM     22  C   UNL     1      -1.965   1.102   1.896  0.00  0.00    +0.032 A 
ATOM     23  C   UNL     1      -2.675   1.470   3.024  0.00  0.00    -0.044 A 
ATOM     24  C   UNL     1      -2.468   2.709   3.598  0.00  0.00    -0.026 A 
ATOM     25  C   UNL     1      -1.546   3.586   3.041  0.00  0.00    +0.039 A 
ATOM     26  C   UNL     1      -0.832   3.211   1.910  0.00  0.00    +0.052 A 
ATOM     27  C   UNL     1      -3.241   3.109   4.828  0.00  0.00    +0.046 C 
ATOM     28  C   UNL     1      -3.674   0.518   3.629  0.00  0.00    +0.044 C 
BRANCH  21  29
ATOM     29  S   UNL     1      -0.145   1.499  -0.100  0.00  0.00    +0.061 S 
ATOM     30  O   UNL     1      -0.129   0.078  -0.119  0.00  0.00    -0.153 OA
ATOM     31  O   UNL     1       1.045   2.275  -0.107  0.00  0.00    -0.153 OA
BRANCH  29  32
ATOM     32  N   UNL     1      -1.031   1.980  -1.414  0.00  0.00    -0.177 NA
BRANCH  32  34
ATOM     33  C   UNL     1       0.167   3.217  -3.150  0.00  0.00    +0.022 C 
ATOM     34  C   UNL     1      -0.825   3.311  -1.989  0.00  0.00    +0.106 C 
ENDBRANCH  32  34
BRANCH  32  35
ATOM     35  C   UNL     1      -2.021   1.074  -2.001  0.00  0.00    +0.106 C 
ATOM     36  C   UNL     1      -3.402   1.379  -1.417  0.00  0.00    +0.022 C 
ENDBRANCH  32  35
ENDBRANCH  29  32
ENDBRANCH  21  29
ENDBRANCH   1  25
TORSDOF 7
