REMARK  Name = ZINC36569514
REMARK  10 active torsions:
REMARK  status: ('A' for Active; 'I' for Inactive)
REMARK    1  A    between atoms: C_1  and  O_2
REMARK    2  A    between atoms: O_2  and  C_3
REMARK    3  A    between atoms: C_3  and  C_5
REMARK    4  A    between atoms: C_5  and  C_6
REMARK    5  A    between atoms: C_6  and  C_7
REMARK    6  A    between atoms: C_7  and  C_9
REMARK    7  A    between atoms: C_7  and  N_13
REMARK    8  A    between atoms: C_9  and  O_11
REMARK    9  A    between atoms: O_11  and  C_12
REMARK   10  A    between atoms: C_25  and  C_27
REMARK                            x       y       z     vdW  Elec       q    Type
REMARK                         _______ _______ _______ _____ _____    ______ ____
ROOT
ATOM      1  N   UNL     1       0.874  -6.915  -1.439  0.00  0.00    -0.286 N 
ATOM      2  C   UNL     1       0.050  -6.043  -2.052  0.00  0.00    +0.304 C 
ATOM      3  O   UNL     1       0.435  -4.918  -2.305  0.00  0.00    -0.253 OA
ATOM      4  N   UNL     1      -1.202  -6.417  -2.384  0.00  0.00    -0.273 N 
ATOM      5  C   UNL     1      -2.075  -5.522  -3.158  0.00  0.00    +0.116 C 
ATOM      6  C   UNL     1      -3.281  -5.128  -2.296  0.00  0.00    +0.074 C 
ATOM      7  C   UNL     1      -3.814  -6.360  -1.614  0.00  0.00    +0.040 A 
ATOM      8  C   UNL     1      -3.132  -7.516  -1.466  0.00  0.00    +0.062 A 
ATOM      9  N   UNL     1      -3.914  -8.379  -0.813  0.00  0.00    -0.348 N 
ATOM     10  C   UNL     1      -5.059  -7.805  -0.552  0.00  0.00    +0.171 A 
ATOM     11  N   UNL     1      -5.035  -6.543  -1.038  0.00  0.00    -0.349 N 
ATOM     12  H   UNL     1      -5.751  -5.891  -0.986  0.00  0.00    +0.166 HD
ATOM     13  C   UNL     1      -1.726  -7.735  -1.984  0.00  0.00    +0.156 C 
ATOM     14  H   UNL     1       0.545  -7.788  -1.172  0.00  0.00    +0.151 HD
ATOM     15  H   UNL     1      -3.671  -9.286  -0.572  0.00  0.00    +0.167 HD
ENDROOT
BRANCH  13  16
ATOM     16  C   UNL     1      -1.753  -8.659  -3.175  0.00  0.00    -0.021 A 
ATOM     17  C   UNL     1      -2.562  -8.367  -4.257  0.00  0.00    +0.007 A 
ATOM     18  C   UNL     1      -2.587  -9.214  -5.350  0.00  0.00    +0.020 A 
ATOM     19  C   UNL     1      -1.802 -10.353  -5.360  0.00  0.00    +0.041 A 
ATOM     20  C   UNL     1      -0.992 -10.644  -4.276  0.00  0.00    +0.020 A 
ATOM     21  C   UNL     1      -0.964  -9.794  -3.187  0.00  0.00    +0.007 A 
ATOM     22 CL   UNL     1      -1.833 -11.417  -6.731  0.00  0.00    -0.084 Cl
ENDBRANCH  13  16
BRANCH   1  23
ATOM     23  C   UNL     1       2.267  -6.546  -1.176  0.00  0.00    +0.184 C 
BRANCH  23  24
ATOM     24  C   UNL     1       2.348  -5.782   0.121  0.00  0.00    +0.327 C 
ATOM     25  O   UNL     1       1.344  -5.568   0.759  0.00  0.00    -0.249 OA
BRANCH  24  26
ATOM     26  O   UNL     1       3.534  -5.339   0.566  0.00  0.00    -0.467 OA
ATOM     27  C   UNL     1       3.536  -4.622   1.802  0.00  0.00    +0.280 C 
ENDBRANCH  24  26
ENDBRANCH  23  24
BRANCH  23  28
ATOM     28  C   UNL     1       3.120  -7.812  -1.075  0.00  0.00    +0.045 C 
BRANCH  28  29
ATOM     29  C   UNL     1       3.139  -8.523  -2.430  0.00  0.00    +0.123 C 
BRANCH  29  30
ATOM     30  C   UNL     1       3.979  -9.771  -2.331  0.00  0.00    +0.307 C 
ATOM     31  O   UNL     1       4.508 -10.061  -1.285  0.00  0.00    -0.251 OA
BRANCH  30  33
ATOM     32  C   UNL     1       4.948 -11.725  -3.240  0.00  0.00    +0.280 C 
ATOM     33  O   UNL     1       4.139 -10.559  -3.406  0.00  0.00    -0.468 OA
ENDBRANCH  30  33
ENDBRANCH  29  30
ENDBRANCH  28  29
ENDBRANCH  23  28
ENDBRANCH   1  23
TORSDOF 8
