REMARK  Name = ZINC13133684
REMARK  10 active torsions:
REMARK  status: ('A' for Active; 'I' for Inactive)
REMARK    1  A    between atoms: C_1  and  C_2
REMARK    2  A    between atoms: C_2  and  C_3
REMARK    3  A    between atoms: C_10  and  C_12
REMARK    4  A    between atoms: N_14  and  N_15
REMARK    5  A    between atoms: C_16  and  C_17
REMARK    6  A    between atoms: C_16  and  C_18
REMARK    7  A    between atoms: C_21  and  N_24
REMARK    8  A    between atoms: N_24  and  S_25
REMARK    9  A    between atoms: S_25  and  C_28
REMARK   10  A    between atoms: C_31  and  C_34
REMARK                            x       y       z     vdW  Elec       q    Type
REMARK                         _______ _______ _______ _____ _____    ______ ____
ROOT
ATOM      1  N   UNL     1       2.945  -3.394   4.211  0.00  0.00    -0.184 NA
ATOM      2  C   UNL     1       3.303  -2.269   3.671  0.00  0.00    +0.063 C 
ATOM      3  C   UNL     1       4.591  -1.608   4.090  0.00  0.00    +0.068 C 
ENDROOT
BRANCH   2   4
ATOM      4  C   UNL     1       2.450  -1.637   2.648  0.00  0.00    -0.002 A 
ATOM      5  C   UNL     1       1.255  -2.249   2.259  0.00  0.00    +0.011 A 
ATOM      6  C   UNL     1       0.460  -1.655   1.303  0.00  0.00    +0.025 A 
ATOM      7  C   UNL     1       0.845  -0.450   0.726  0.00  0.00    +0.048 A 
ATOM      8  C   UNL     1       2.036   0.159   1.107  0.00  0.00    +0.025 A 
ATOM      9  C   UNL     1       2.833  -0.426   2.066  0.00  0.00    +0.011 A 
BRANCH   7  10
ATOM     10  N   UNL     1       0.037   0.147  -0.242  0.00  0.00    -0.216 N 
ATOM     11  H   UNL     1       0.293   0.111  -1.177  0.00  0.00    +0.174 HD
BRANCH  10  12
ATOM     12  S   UNL     1      -1.359   0.918   0.205  0.00  0.00    +0.072 S 
ATOM     13  O   UNL     1      -1.920   1.462  -0.981  0.00  0.00    -0.150 OA
ATOM     14  O   UNL     1      -2.071   0.016   1.041  0.00  0.00    -0.150 OA
BRANCH  12  15
ATOM     15  C   UNL     1      -0.898   2.285   1.217  0.00  0.00    +0.109 A 
ATOM     16  C   UNL     1      -0.903   2.159   2.594  0.00  0.00    +0.029 A 
ATOM     17  C   UNL     1      -0.537   3.230   3.388  0.00  0.00    +0.005 A 
ATOM     18  C   UNL     1      -0.175   4.430   2.805  0.00  0.00    -0.050 A 
ATOM     19  C   UNL     1      -0.175   4.558   1.429  0.00  0.00    +0.005 A 
ATOM     20  C   UNL     1      -0.537   3.486   0.635  0.00  0.00    +0.029 A 
ATOM     21  C   UNL     1       0.219   5.599   3.671  0.00  0.00    +0.044 C 
ENDBRANCH  12  15
ENDBRANCH  10  12
ENDBRANCH   7  10
ENDBRANCH   2   4
BRANCH   1  24
ATOM     22  C   UNL     1       3.385  -5.162   5.743  0.00  0.00    +0.270 C 
ATOM     23  O   UNL     1       2.344  -5.695   5.405  0.00  0.00    -0.268 OA
ATOM     24  N   UNL     1       3.756  -3.994   5.183  0.00  0.00    -0.202 N 
ATOM     25  H   UNL     1       4.585  -3.568   5.452  0.00  0.00    +0.178 HD
BRANCH  22  32
ATOM     26  C   UNL     1       6.270  -8.996   9.738  0.00  0.00    -0.007 C 
ATOM     27  C   UNL     1       6.863  -7.795  10.480  0.00  0.00    +0.009 C 
ATOM     28  C   UNL     1       7.232  -6.714   9.454  0.00  0.00    +0.043 C 
ATOM     29  C   UNL     1       6.070  -6.525   8.528  0.00  0.00    -0.006 A 
ATOM     30  C   UNL     1       4.997  -7.356   8.373  0.00  0.00    -0.036 A 
ATOM     31  C   UNL     1       4.035  -6.968   7.455  0.00  0.00    +0.024 A 
ATOM     32  C   UNL     1       4.233  -5.789   6.760  0.00  0.00    +0.076 A 
ATOM     33  S   UNL     1       5.789  -5.227   7.431  0.00  0.00    -0.088 S 
ATOM     34  C   UNL     1       4.887  -8.640   9.191  0.00  0.00    +0.039 C 
BRANCH  26  36
ATOM     35  C   UNL     1       5.670 -11.413   9.935  0.00  0.00    +0.004 C 
ATOM     36  C   UNL     1       6.145 -10.177  10.702  0.00  0.00    +0.000 C 
ENDBRANCH  26  36
ENDBRANCH  22  32
ENDBRANCH   1  24
TORSDOF 7
