REMARK  Name = ZINC15088170
REMARK  7 active torsions:
REMARK  status: ('A' for Active; 'I' for Inactive)
REMARK    1  A    between atoms: C_4  and  C_7
REMARK    2  A    between atoms: N_14  and  N_32
REMARK    3  A    between atoms: C_15  and  S_17
REMARK    4  A    between atoms: S_17  and  C_18
REMARK    5  A    between atoms: C_18  and  C_19
REMARK    6  A    between atoms: C_19  and  C_20
REMARK    7  A    between atoms: C_20  and  N_21
REMARK                            x       y       z     vdW  Elec       q    Type
REMARK                         _______ _______ _______ _____ _____    ______ ____
ROOT
ATOM      1  C   UNL     1       1.333  -0.603  -0.014  0.00  0.00    +0.004 A 
ATOM      2  C   UNL     1       2.414   0.212  -0.020  0.00  0.00    +0.056 A 
ATOM      3  S   UNL     1       1.701   1.845  -0.004  0.00  0.00    -0.076 S 
ATOM      4  C   UNL     1      -0.017   1.401   0.010  0.00  0.00    +0.117 A 
ATOM      5  C   UNL     1       0.002  -0.004   0.002  0.00  0.00    +0.081 A 
ATOM      6  C   UNL     1      -1.275  -0.645   0.011  0.00  0.00    +0.280 A 
ATOM      7  O   UNL     1      -1.355  -1.861   0.005  0.00  0.00    -0.265 OA
ATOM      8  N   UNL     1      -2.388   0.111   0.026  0.00  0.00    -0.209 N 
ATOM      9  C   UNL     1      -2.317   1.474   0.033  0.00  0.00    +0.190 A 
ATOM     10  N   UNL     1      -1.152   2.090   0.029  0.00  0.00    -0.215 NA
ENDROOT
BRANCH   1  14
ATOM     11  C   UNL     1       1.807  -4.827  -0.042  0.00  0.00    +0.000 A 
ATOM     12  C   UNL     1       2.488  -4.051  -0.963  0.00  0.00    +0.001 A 
ATOM     13  C   UNL     1       2.338  -2.680  -0.959  0.00  0.00    +0.008 A 
ATOM     14  C   UNL     1       1.498  -2.076  -0.024  0.00  0.00    -0.017 A 
ATOM     15  C   UNL     1       0.819  -2.862   0.906  0.00  0.00    +0.008 A 
ATOM     16  C   UNL     1       0.973  -4.234   0.888  0.00  0.00    +0.001 A 
ENDBRANCH   1  14
BRANCH   8  17
ATOM     17  N   UNL     1      -3.611  -0.496   0.036  0.00  0.00    -0.293 N 
ATOM     18  H   UNL     1      -3.516  -1.501   0.030  0.00  0.00    +0.163 HD
ATOM     19  H   UNL     1      -4.161  -0.190   0.824  0.00  0.00    +0.163 HD
ENDBRANCH   8  17
BRANCH   9  20
ATOM     20  S   UNL     1      -3.802   2.422   0.052  0.00  0.00    -0.086 S 
BRANCH  20  21
ATOM     21  C   UNL     1      -3.108   4.094   0.054  0.00  0.00    +0.079 C 
BRANCH  21  22
ATOM     22  C   UNL     1      -4.244   5.118   0.071  0.00  0.00    +0.033 C 
BRANCH  22  23
ATOM     23  C   UNL     1      -3.657   6.531   0.073  0.00  0.00    +0.128 C 
BRANCH  23  24
ATOM     24  N   UNL     1      -4.745   7.512   0.088  0.00  0.00    -0.292 N 
ATOM     25  C   UNL     1      -5.358   8.068  -1.032  0.00  0.00    +0.070 A 
ATOM     26  C   UNL     1      -5.181   7.896  -2.397  0.00  0.00    +0.028 A 
ATOM     27  C   UNL     1      -5.968   8.601  -3.286  0.00  0.00    +0.002 A 
ATOM     28  C   UNL     1      -6.935   9.475  -2.821  0.00  0.00    +0.002 A 
ATOM     29  C   UNL     1      -7.123   9.649  -1.464  0.00  0.00    +0.028 A 
ATOM     30  C   UNL     1      -6.338   8.945  -0.563  0.00  0.00    +0.067 A 
ATOM     31  N   UNL     1      -6.284   8.902   0.828  0.00  0.00    -0.306 N 
ATOM     32  H   UNL     1      -6.846   9.410   1.434  0.00  0.00    +0.170 HD
ATOM     33  C   UNL     1      -5.320   8.034   1.188  0.00  0.00    +0.328 A 
ATOM     34  O   UNL     1      -5.014   7.763   2.334  0.00  0.00    -0.247 OA
ENDBRANCH  23  24
ENDBRANCH  22  23
ENDBRANCH  21  22
ENDBRANCH  20  21
ENDBRANCH   9  20
TORSDOF 7
