REMARK  Name = ZINC36027257
REMARK  7 active torsions:
REMARK  status: ('A' for Active; 'I' for Inactive)
REMARK    1  A    between atoms: C_4  and  C_7
REMARK    2  A    between atoms: C_7  and  C_8
REMARK    3  A    between atoms: N_12  and  C_30
REMARK    4  A    between atoms: N_17  and  S_20
REMARK    5  A    between atoms: S_20  and  C_23
REMARK    6  A    between atoms: C_30  and  C_31
REMARK    7  A    between atoms: C_31  and  C_32
REMARK                            x       y       z     vdW  Elec       q    Type
REMARK                         _______ _______ _______ _____ _____    ______ ____
ROOT
ATOM      1  C   UNL     1       4.176  -0.607   1.673  0.00  0.00    +0.023 C 
ATOM      2  C   UNL     1       5.390  -1.503   1.564  0.00  0.00    +0.201 C 
ATOM      3  O   UNL     1       5.499  -2.462   0.829  0.00  0.00    -0.277 OA
ATOM      4  N   UNL     1       6.331  -1.056   2.421  0.00  0.00    -0.313 N 
ATOM      5  C   UNL     1       5.823   0.119   3.135  0.00  0.00    +0.006 C 
ATOM      6  N   UNL     1       4.664   0.614   2.360  0.00  0.00    +0.401 N 
ATOM      7  C   UNL     1       5.371  -0.273   4.541  0.00  0.00    +0.023 C 
ATOM      8  C   UNL     1       6.568  -0.821   5.325  0.00  0.00    +0.109 C 
ATOM      9  N   UNL     1       7.654   0.168   5.283  0.00  0.00    -0.177 NA
ATOM     10  C   UNL     1       8.109   0.665   3.978  0.00  0.00    +0.109 C 
ATOM     11  C   UNL     1       6.899   1.201   3.205  0.00  0.00    +0.023 C 
ATOM     12  H   UNL     1       4.955   1.308   1.688  0.00  0.00    -0.082 HD
ATOM     13  H   UNL     1       3.954   0.985   2.974  0.00  0.00    -0.082 HD
ENDROOT
BRANCH   9  14
ATOM     14  S   UNL     1       8.351   0.714   6.683  0.00  0.00    +0.061 S 
ATOM     15  O   UNL     1       8.910   1.986   6.388  0.00  0.00    -0.153 OA
ATOM     16  O   UNL     1       7.393   0.523   7.715  0.00  0.00    -0.153 OA
BRANCH  14  17
ATOM     17  C   UNL     1       9.701  -0.358   7.045  0.00  0.00    +0.106 A 
ATOM     18  C   UNL     1       9.500  -1.485   7.820  0.00  0.00    +0.030 A 
ATOM     19  C   UNL     1      10.559  -2.327   8.104  0.00  0.00    +0.022 A 
ATOM     20  C   UNL     1      11.820  -2.041   7.613  0.00  0.00    +0.041 A 
ATOM     21  C   UNL     1      12.021  -0.913   6.837  0.00  0.00    +0.022 A 
ATOM     22  C   UNL     1      10.960  -0.076   6.549  0.00  0.00    +0.030 A 
ATOM     23 CL   UNL     1      13.151  -3.098   7.970  0.00  0.00    -0.084 Cl
ENDBRANCH  14  17
ENDBRANCH   9  14
BRANCH   1  24
ATOM     24  C   UNL     1       3.643  -0.259   0.282  0.00  0.00    +0.028 C 
BRANCH  24  28
ATOM     25  C   UNL     1       0.138   2.153   0.659  0.00  0.00    +0.000 A 
ATOM     26  C   UNL     1       1.383   2.750   0.587  0.00  0.00    +0.000 A 
ATOM     27  C   UNL     1       2.517   1.969   0.465  0.00  0.00    +0.003 A 
ATOM     28  C   UNL     1       2.407   0.592   0.416  0.00  0.00    -0.048 A 
ATOM     29  C   UNL     1       1.162  -0.004   0.489  0.00  0.00    +0.003 A 
ATOM     30  C   UNL     1       0.027   0.776   0.609  0.00  0.00    +0.000 A 
ENDBRANCH  24  28
ENDBRANCH   1  24
BRANCH   4  31
ATOM     31  C   UNL     1       7.656  -1.652   2.609  0.00  0.00    +0.112 C 
BRANCH  31  32
ATOM     32  C   UNL     1       8.638  -1.038   1.611  0.00  0.00    +0.074 C 
BRANCH  32  33
ATOM     33  C   UNL     1      10.013  -1.610   1.841  0.00  0.00    +0.043 A 
ATOM     34  C   UNL     1      10.691  -2.203   0.793  0.00  0.00    +0.023 A 
ATOM     35  C   UNL     1      11.956  -2.726   1.016  0.00  0.00    +0.003 A 
ATOM     36  C   UNL     1      12.493  -2.633   2.291  0.00  0.00    +0.020 A 
ATOM     37  C   UNL     1      11.755  -2.026   3.290  0.00  0.00    +0.111 A 
ATOM     38  N   UNL     1      10.557  -1.535   3.040  0.00  0.00    -0.260 NA
ENDBRANCH  32  33
ENDBRANCH  31  32
ENDBRANCH   4  31
TORSDOF 7
