REMARK  Name = ZINC15227525
REMARK  4 active torsions:
REMARK  status: ('A' for Active; 'I' for Inactive)
REMARK    1  A    between atoms: C_9  and  O_19
REMARK    2  A    between atoms: C_10  and  C_11
REMARK    3  A    between atoms: O_19  and  C_20
REMARK    4  A    between atoms: C_20  and  C_21
REMARK                            x       y       z     vdW  Elec       q    Type
REMARK                         _______ _______ _______ _____ _____    ______ ____
ROOT
ATOM      1  C   UNL     1      -2.822   6.319  -2.722  0.00  0.00    +0.001 A 
ATOM      2  C   UNL     1      -3.056   4.947  -2.760  0.00  0.00    +0.001 A 
ATOM      3  C   UNL     1      -2.435   4.106  -1.883  0.00  0.00    +0.009 A 
ATOM      4  C   UNL     1      -1.551   4.628  -0.933  0.00  0.00    -0.007 A 
ATOM      5  C   UNL     1      -1.314   6.024  -0.888  0.00  0.00    -0.017 A 
ATOM      6  C   UNL     1      -1.975   6.861  -1.803  0.00  0.00    +0.008 A 
ATOM      7  C   UNL     1      -0.421   6.546   0.064  0.00  0.00    +0.012 A 
ATOM      8  C   UNL     1       0.215   5.729   0.946  0.00  0.00    +0.047 A 
ATOM      9  C   UNL     1       0.013   4.350   0.947  0.00  0.00    +0.129 A 
ATOM     10  C   UNL     1      -0.863   3.763   0.027  0.00  0.00    +0.026 A 
ENDROOT
BRANCH  10  11
ATOM     11  C   UNL     1      -1.081   2.317   0.020  0.00  0.00    +0.032 C 
ATOM     12  C   UNL     1      -0.018   1.469   0.010  0.00  0.00    +0.078 C 
ATOM     13  C   UNL     1       0.002  -0.004   0.002  0.00  0.00    +0.256 C 
ATOM     14  O   UNL     1      -1.028  -0.654   0.008  0.00  0.00    -0.269 OA
ATOM     15  N   UNL     1       1.188  -0.590  -0.012  0.00  0.00    -0.261 N 
ATOM     16  C   UNL     1       2.343   0.165  -0.019  0.00  0.00    +0.158 C 
ATOM     17  N   UNL     1       3.581  -0.246  -0.034  0.00  0.00    -0.279 NA
ATOM     18  S   UNL     1       1.730   1.842  -0.005  0.00  0.00    -0.049 S 
ATOM     19  H   UNL     1       1.246  -1.558  -0.018  0.00  0.00    +0.157 HD
ATOM     20  H   UNL     1       4.306   0.399  -0.037  0.00  0.00    +0.189 HD
ENDBRANCH  10  11
BRANCH   9  21
ATOM     21  O   UNL     1       0.668   3.573   1.845  0.00  0.00    -0.487 OA
BRANCH  21  22
ATOM     22  C   UNL     1       1.547   4.235   2.756  0.00  0.00    +0.266 C 
BRANCH  22  23
ATOM     23  C   UNL     1       2.181   3.219   3.671  0.00  0.00    +0.008 A 
ATOM     24  C   UNL     1       1.864   1.880   3.541  0.00  0.00    +0.008 A 
ATOM     25  C   UNL     1       2.449   0.947   4.377  0.00  0.00    +0.000 A 
ATOM     26  C   UNL     1       3.344   1.354   5.350  0.00  0.00    +0.001 A 
ATOM     27  C   UNL     1       3.657   2.693   5.484  0.00  0.00    +0.020 A 
ATOM     28  C   UNL     1       3.076   3.627   4.644  0.00  0.00    +0.047 A 
ATOM     29 CL   UNL     1       3.469   5.309   4.812  0.00  0.00    -0.083 Cl
ENDBRANCH  22  23
ENDBRANCH  21  22
ENDBRANCH   9  21
TORSDOF 4
