REMARK  Name = ZINC21715086
REMARK  9 active torsions:
REMARK  status: ('A' for Active; 'I' for Inactive)
REMARK    1  A    between atoms: C_1  and  C_2
REMARK    2  A    between atoms: C_2  and  C_3
REMARK    3  A    between atoms: N_9  and  C_10
REMARK    4  A    between atoms: C_10  and  C_11
REMARK    5  A    between atoms: C_11  and  C_12
REMARK    6  A    between atoms: C_12  and  N_13
REMARK    7  A    between atoms: C_16  and  C_23
REMARK    8  A    between atoms: C_28  and  O_29
REMARK    9  A    between atoms: O_29  and  C_30
REMARK                            x       y       z     vdW  Elec       q    Type
REMARK                         _______ _______ _______ _____ _____    ______ ____
ROOT
ATOM      1  N   UNL     1       2.145  -2.919  -0.177  0.00  0.00    -0.328 N 
ATOM      2  C   UNL     1       2.809  -1.708  -0.191  0.00  0.00    +0.135 A 
ATOM      3  C   UNL     1       2.105  -0.504  -0.242  0.00  0.00    +0.108 A 
ATOM      4  C   UNL     1       0.705  -0.066  -0.292  0.00  0.00    +0.130 A 
ATOM      5  N   UNL     1       0.759   1.243  -0.325  0.00  0.00    -0.075 NA
ATOM      6  O   UNL     1       1.890   1.673  -0.305  0.00  0.00    -0.334 OA
ATOM      7  C   UNL     1       2.821   0.710  -0.254  0.00  0.00    +0.264 A 
ATOM      8  N   UNL     1       4.146   0.659  -0.216  0.00  0.00    -0.198 NA
ATOM      9  C   UNL     1       4.774  -0.498  -0.169  0.00  0.00    +0.227 A 
ATOM     10  N   UNL     1       4.141  -1.656  -0.156  0.00  0.00    -0.220 NA
ATOM     11  H   UNL     1       1.050  -2.947  -0.279  0.00  0.00    +0.147 HD
ENDROOT
BRANCH   4  12
ATOM     12  C   UNL     1      -0.507  -0.919  -0.303  0.00  0.00    +0.046 A 
ATOM     13  C   UNL     1      -0.615  -1.971  -1.211  0.00  0.00    +0.014 A 
ATOM     14  C   UNL     1      -1.743  -2.765  -1.213  0.00  0.00    +0.001 A 
ATOM     15  C   UNL     1      -2.774  -2.514  -0.324  0.00  0.00    +0.004 A 
ATOM     16  C   UNL     1      -2.680  -1.471   0.577  0.00  0.00    +0.046 A 
ATOM     17  C   UNL     1      -1.550  -0.668   0.594  0.00  0.00    +0.129 A 
BRANCH  17  18
ATOM     18  O   UNL     1      -1.456   0.357   1.479  0.00  0.00    -0.494 OA
ATOM     19  C   UNL     1      -2.561   0.553   2.365  0.00  0.00    +0.277 C 
ENDBRANCH  17  18
ENDBRANCH   4  12
BRANCH   1  20
ATOM     20  C   UNL     1       2.899  -4.166  -0.028  0.00  0.00    +0.101 C 
BRANCH  20  21
ATOM     21  C   UNL     1       1.932  -5.352  -0.045  0.00  0.00    +0.000 C 
BRANCH  21  22
ATOM     22  C   UNL     1       2.720  -6.654   0.111  0.00  0.00    -0.077 C 
BRANCH  22  28
ATOM     23  C   UNL     1       2.520  -9.067   0.137  0.00  0.00    -0.069 C 
ATOM     24  C   UNL     1       1.524 -10.222   0.266  0.00  0.00    -0.015 C 
ATOM     25  C   UNL     1       0.566 -10.199  -0.928  0.00  0.00    -0.003 C 
ATOM     26  C   UNL     1      -0.145  -8.843  -0.977  0.00  0.00    -0.019 C 
ATOM     27  C   UNL     1       0.900  -7.728  -1.070  0.00  0.00    -0.078 C 
ATOM     28  N   UNL     1       1.791  -7.792   0.095  0.00  0.00    +0.382 N 
ATOM     29  H   UNL     1       1.167  -7.734   0.999  0.00  0.00    -0.081 HD
BRANCH  23  31
ATOM     30  C   UNL     1       4.305 -10.353   1.320  0.00  0.00    +0.002 C 
ATOM     31  C   UNL     1       3.467  -9.073   1.339  0.00  0.00    -0.019 C 
ENDBRANCH  23  31
ENDBRANCH  22  28
ENDBRANCH  21  22
ENDBRANCH  20  21
ENDBRANCH   1  20
TORSDOF 7
