REMARK  Name = ZINC23430075
REMARK  8 active torsions:
REMARK  status: ('A' for Active; 'I' for Inactive)
REMARK    1  A    between atoms: C_1  and  C_2
REMARK    2  A    between atoms: C_3  and  C_9
REMARK    3  A    between atoms: C_4  and  C_8
REMARK    4  A    between atoms: C_9  and  N_10
REMARK    5  A    between atoms: N_10  and  C_11
REMARK    6  A    between atoms: N_10  and  C_12
REMARK    7  A    between atoms: C_12  and  C_13
REMARK    8  A    between atoms: C_16  and  C_19
REMARK                            x       y       z     vdW  Elec       q    Type
REMARK                         _______ _______ _______ _____ _____    ______ ____
ROOT
ATOM      1  C   UNL     1       5.948  -2.206  -0.067  0.00  0.00    -0.064 A 
ATOM      2  C   UNL     1       4.737  -2.876  -0.059  0.00  0.00    +0.002 A 
ATOM      3  C   UNL     1       3.554  -2.167  -0.044  0.00  0.00    +0.012 A 
ATOM      4  C   UNL     1       3.579  -0.771  -0.036  0.00  0.00    +0.017 A 
ATOM      5  C   UNL     1       4.805  -0.102  -0.050  0.00  0.00    +0.012 A 
ATOM      6  C   UNL     1       5.981  -0.823  -0.059  0.00  0.00    +0.002 A 
ENDROOT
BRANCH   4   7
ATOM      7  C   UNL     1       2.316  -0.006  -0.020  0.00  0.00    +0.141 A 
ATOM      8  N   UNL     1       2.359   1.356  -0.012  0.00  0.00    -0.307 N 
ATOM      9  H   UNL     1       3.328   1.876  -0.017  0.00  0.00    +0.170 HD
ATOM     10  C   UNL     1       1.207   2.059   0.002  0.00  0.00    +0.255 A 
ATOM     11  O   UNL     1       1.224   3.279   0.008  0.00  0.00    -0.268 OA
ATOM     12  C   UNL     1      -0.016   1.358   0.009  0.00  0.00    +0.038 A 
ATOM     13  C   UNL     1       0.002  -0.004   0.002  0.00  0.00    +0.052 A 
ATOM     14  N   UNL     1       1.170  -0.651  -0.013  0.00  0.00    -0.234 NA
ATOM     15  C   UNL     1      -1.414  -0.540   0.013  0.00  0.00    +0.056 C 
ATOM     16  C   UNL     1      -2.299   0.653  -0.409  0.00  0.00    +0.011 C 
ATOM     17  C   UNL     1      -1.442   1.862   0.020  0.00  0.00    +0.043 C 
ENDBRANCH   4   7
BRANCH   1  18
ATOM     18  C   UNL     1       7.237  -2.987  -0.084  0.00  0.00    -0.043 C 
BRANCH  18  19
ATOM     19  N   UNL     1       7.642  -3.233  -1.474  0.00  0.00    +0.383 N 
ATOM     20  C   UNL     1       6.687  -4.119  -2.153  0.00  0.00    -0.095 C 
ATOM     21  H   UNL     1       7.641  -2.268  -2.002  0.00  0.00    -0.081 HD
BRANCH  19  22
ATOM     22  C   UNL     1       9.004  -3.780  -1.537  0.00  0.00    -0.039 C 
BRANCH  22  25
ATOM     23  C   UNL     1      10.529  -1.464  -2.987  0.00  0.00    +0.065 C 
ATOM     24  C   UNL     1      10.136  -2.786  -3.595  0.00  0.00    +0.035 A 
ATOM     25  C   UNL     1       9.477  -3.788  -2.968  0.00  0.00    -0.021 A 
ATOM     26  C   UNL     1       9.316  -4.835  -3.881  0.00  0.00    +0.061 A 
ATOM     27  N   UNL     1       9.852  -4.471  -5.018  0.00  0.00    -0.179 NA
ATOM     28  N   UNL     1      10.379  -3.183  -4.861  0.00  0.00    -0.281 N 
ATOM     29  H   UNL     1      10.911  -2.515  -5.554  0.00  0.00    +0.189 HD
ATOM     30  C   UNL     1       8.640  -6.153  -3.605  0.00  0.00    +0.068 C 
ENDBRANCH  22  25
ENDBRANCH  19  22
ENDBRANCH  18  19
ENDBRANCH   1  18
TORSDOF 5
