REMARK  Name = ZINC13063808
REMARK  12 active torsions:
REMARK  status: ('A' for Active; 'I' for Inactive)
REMARK    1  A    between atoms: C_1  and  C_2
REMARK    2  A    between atoms: C_2  and  C_3
REMARK    3  A    between atoms: C_3  and  C_5
REMARK    4  A    between atoms: C_3  and  N_70
REMARK    5  A    between atoms: N_9  and  C_10
REMARK    6  A    between atoms: C_15  and  C_16
REMARK    7  A    between atoms: C_15  and  N_70
REMARK    8  A    between atoms: C_19  and  O_22
REMARK    9  A    between atoms: O_22  and  C_23
REMARK   10  A    between atoms: C_24  and  C_25
REMARK   11  A    between atoms: C_24  and  N_70
REMARK   12  A    between atoms: C_30  and  C_37
REMARK                            x       y       z     vdW  Elec       q    Type
REMARK                         _______ _______ _______ _____ _____    ______ ____
ROOT
ATOM      1  N   UNL     1       0.159  -0.383   1.062  0.00  0.00    +0.392 N 
ATOM      2  H   UNL     1      -0.702  -0.123   1.558  0.00  0.00    -0.080 HD
ENDROOT
BRANCH   1   3
ATOM      3  C   UNL     1       1.319   0.170   1.791  0.00  0.00    +0.003 C 
BRANCH   3   4
ATOM      4  C   UNL     1       0.880   1.415   2.517  0.00  0.00    +0.138 A 
ATOM      5  N   UNL     1      -0.055   2.252   2.140  0.00  0.00    -0.115 NA
ATOM      6  N   UNL     1      -0.134   3.186   3.024  0.00  0.00    -0.023 NA
ATOM      7  N   UNL     1       0.728   2.966   3.956  0.00  0.00    -0.044 NA
ATOM      8  N   UNL     1       1.369   1.881   3.682  0.00  0.00    -0.228 N 
BRANCH   8   9
ATOM      9  C   UNL     1       2.431   1.271   4.485  0.00  0.00    +0.111 C 
ATOM     10  C   UNL     1       1.878   0.854   5.864  0.00  0.00    +0.027 C 
ATOM     11  C   UNL     1       3.039   1.155   6.845  0.00  0.00    +0.002 C 
ATOM     12  C   UNL     1       3.632   2.470   6.281  0.00  0.00    +0.002 C 
ATOM     13  C   UNL     1       3.546   2.298   4.751  0.00  0.00    +0.027 C 
ENDBRANCH   8   9
ENDBRANCH   3   4
BRANCH   3  15
ATOM     14  C   UNL     1       2.930  -0.755   0.120  0.00  0.00    +0.002 C 
ATOM     15  C   UNL     1       2.445   0.518   0.815  0.00  0.00    -0.011 C 
ENDBRANCH   3  15
ENDBRANCH   1   3
BRANCH   1  16
ATOM     16  C   UNL     1       0.110   0.174  -0.307  0.00  0.00    -0.042 C 
BRANCH  16  17
ATOM     17  C   UNL     1      -0.288   1.625  -0.226  0.00  0.00    -0.064 A 
ATOM     18  C   UNL     1      -1.565   1.968   0.180  0.00  0.00    +0.005 A 
ATOM     19  C   UNL     1      -1.931   3.298   0.260  0.00  0.00    +0.046 A 
ATOM     20  C   UNL     1      -1.020   4.288  -0.077  0.00  0.00    +0.120 A 
ATOM     21  C   UNL     1       0.258   3.941  -0.489  0.00  0.00    +0.046 A 
ATOM     22  C   UNL     1       0.621   2.610  -0.563  0.00  0.00    +0.005 A 
BRANCH  20  23
ATOM     23  O   UNL     1      -1.379   5.597  -0.004  0.00  0.00    -0.495 OA
ATOM     24  C   UNL     1      -2.712   5.881   0.428  0.00  0.00    +0.277 C 
ENDBRANCH  20  23
ENDBRANCH  16  17
ENDBRANCH   1  16
BRANCH   1  25
ATOM     25  C   UNL     1       0.254  -1.857   1.004  0.00  0.00    -0.036 C 
BRANCH  25  26
ATOM     26  C   UNL     1      -0.106  -2.418   2.356  0.00  0.00    +0.001 A 
ATOM     27  C   UNL     1      -1.389  -2.761   2.625  0.00  0.00    +0.017 A 
ATOM     28  C   UNL     1      -1.705  -3.303   3.948  0.00  0.00    -0.001 A 
ATOM     29  C   UNL     1      -3.011  -3.676   4.285  0.00  0.00    +0.010 A 
ATOM     30  C   UNL     1      -3.273  -4.179   5.527  0.00  0.00    +0.004 A 
ATOM     31  C   UNL     1      -2.254  -4.323   6.460  0.00  0.00    -0.048 A 
ATOM     32  C   UNL     1      -0.961  -3.963   6.150  0.00  0.00    +0.029 A 
ATOM     33  C   UNL     1      -0.670  -3.448   4.891  0.00  0.00    +0.049 A 
ATOM     34  N   UNL     1       0.615  -3.081   4.554  0.00  0.00    -0.322 N 
ATOM     35  H   UNL     1       1.327  -3.181   5.205  0.00  0.00    +0.169 HD
ATOM     36  C   UNL     1       0.896  -2.589   3.335  0.00  0.00    +0.251 A 
ATOM     37  O   UNL     1       2.045  -2.278   3.070  0.00  0.00    -0.268 OA
ATOM     38  C   UNL     1      -2.567  -4.880   7.825  0.00  0.00    +0.044 C 
ENDBRANCH  25  26
ENDBRANCH   1  25
TORSDOF 9
