REMARK  Name = ZINC11838858
REMARK  12 active torsions:
REMARK  status: ('A' for Active; 'I' for Inactive)
REMARK    1  A    between atoms: C_1  and  C_2
REMARK    2  A    between atoms: C_2  and  C_3
REMARK    3  A    between atoms: C_2  and  N_4
REMARK    4  A    between atoms: C_5  and  C_7
REMARK    5  A    between atoms: N_9  and  C_12
REMARK    6  A    between atoms: C_15  and  N_63
REMARK    7  A    between atoms: C_18  and  C_19
REMARK    8  A    between atoms: C_18  and  N_63
REMARK    9  A    between atoms: C_20  and  C_21
REMARK   10  A    between atoms: C_24  and  N_27
REMARK   11  A    between atoms: N_27  and  C_28
REMARK   12  A    between atoms: N_27  and  C_29
REMARK                            x       y       z     vdW  Elec       q    Type
REMARK                         _______ _______ _______ _____ _____    ______ ____
ROOT
ATOM      1  C   UNL     1       0.002  -0.004   0.002  0.00  0.00    +0.109 C 
ATOM      2  C   UNL     1      -1.180  -0.526  -0.817  0.00  0.00    +0.025 C 
ATOM      3  C   UNL     1      -1.159  -2.055  -0.826  0.00  0.00    -0.014 C 
ATOM      4  C   UNL     1      -1.265  -2.575   0.609  0.00  0.00    -0.071 C 
ATOM      5  C   UNL     1      -0.083  -2.053   1.429  0.00  0.00    -0.014 C 
ATOM      6  C   UNL     1      -0.104  -0.523   1.437  0.00  0.00    +0.025 C 
ENDROOT
BRANCH   1   9
ATOM      7  C   UNL     1      -0.667   3.541   0.026  0.00  0.00    +0.167 A 
ATOM      8  C   UNL     1      -1.111   2.250   0.019  0.00  0.00    +0.143 A 
ATOM      9  N   UNL     1      -0.018   1.461   0.010  0.00  0.00    -0.248 N 
ATOM     10  N   UNL     1       1.096   2.312   0.004  0.00  0.00    -0.065 NA
ATOM     11  N   UNL     1       0.677   3.529   0.014  0.00  0.00    -0.125 NA
BRANCH   7  13
ATOM     12  N   UNL     1      -0.954   5.970   0.041  0.00  0.00    -0.308 N 
ATOM     13  C   UNL     1      -1.518   4.746   0.040  0.00  0.00    +0.266 C 
ATOM     14  O   UNL     1      -2.729   4.635   0.050  0.00  0.00    -0.268 OA
ATOM     15  H   UNL     1       0.012   6.059   0.033  0.00  0.00    +0.149 HD
BRANCH  12  17
ATOM     16  C   UNL     1      -1.021   8.334   0.664  0.00  0.00    +0.027 C 
ATOM     17  C   UNL     1      -1.800   7.166   0.055  0.00  0.00    +0.067 C 
ATOM     18  C   UNL     1      -2.209   7.518  -1.377  0.00  0.00    +0.027 C 
ENDBRANCH  12  17
ENDBRANCH   7  13
ENDBRANCH   1   9
BRANCH   4  19
ATOM     19  N   UNL     1      -1.236  -4.050   0.603  0.00  0.00    +0.383 N 
ATOM     20  H   UNL     1      -0.888  -4.386   1.508  0.00  0.00    -0.085 HD
ATOM     21  H   UNL     1      -0.612  -4.373  -0.146  0.00  0.00    -0.085 HD
BRANCH  19  22
ATOM     22  C   UNL     1      -2.591  -4.587   0.372  0.00  0.00    -0.054 C 
BRANCH  22  23
ATOM     23  C   UNL     1      -2.530  -6.093   0.371  0.00  0.00    -0.045 C 
ATOM     24  C   UNL     1      -3.308  -6.788   1.190  0.00  0.00    +0.002 C 
BRANCH  24  25
ATOM     25  C   UNL     1      -3.249  -8.265   1.188  0.00  0.00    -0.025 A 
ATOM     26  C   UNL     1      -2.380  -8.929   0.321  0.00  0.00    +0.010 A 
ATOM     27  C   UNL     1      -2.323 -10.306   0.325  0.00  0.00    +0.023 A 
ATOM     28  C   UNL     1      -3.139 -11.034   1.184  0.00  0.00    +0.029 A 
ATOM     29  C   UNL     1      -4.010 -10.375   2.045  0.00  0.00    +0.023 A 
ATOM     30  C   UNL     1      -4.067  -8.998   2.049  0.00  0.00    +0.010 A 
BRANCH  28  31
ATOM     31  N   UNL     1      -3.084 -12.428   1.182  0.00  0.00    -0.336 N 
ATOM     32  C   UNL     1      -3.944 -13.197   2.086  0.00  0.00    +0.129 C 
ATOM     33  C   UNL     1      -2.167 -13.124   0.276  0.00  0.00    +0.129 C 
ENDBRANCH  28  31
ENDBRANCH  24  25
ENDBRANCH  22  23
ENDBRANCH  19  22
ENDBRANCH   4  19
TORSDOF 8
