REMARK  Name = ZINC00119619
REMARK  5 active torsions:
REMARK  status: ('A' for Active; 'I' for Inactive)
REMARK    1  A    between atoms: C_1  and  C_2
REMARK    2  A    between atoms: C_2  and  C_3
REMARK    3  A    between atoms: C_3  and  N_4
REMARK    4  A    between atoms: N_14  and  C_21
REMARK    5  A    between atoms: N_17  and  C_20
REMARK                            x       y       z     vdW  Elec       q    Type
REMARK                         _______ _______ _______ _____ _____    ______ ____
ROOT
ATOM      1  N   UNL     1      -1.389  -1.998   0.003  0.00  0.00    -0.306 N 
ATOM      2  C   UNL     1      -1.501  -2.822  -1.109  0.00  0.00    +0.153 A 
ATOM      3  C   UNL     1      -1.463  -4.129  -0.634  0.00  0.00    +0.170 A 
ATOM      4  N   UNL     1      -1.342  -4.071   0.693  0.00  0.00    -0.196 NA
ATOM      5  C   UNL     1      -1.297  -2.814   1.086  0.00  0.00    +0.201 A 
ATOM      6  N   UNL     1      -1.176  -2.393   2.390  0.00  0.00    -0.301 N 
ATOM      7  C   UNL     1      -2.489  -2.423   3.084  0.00  0.00    +0.108 C 
ATOM      8  C   UNL     1      -2.098  -2.448   4.583  0.00  0.00    +0.020 C 
ATOM      9  C   UNL     1      -0.841  -3.348   4.597  0.00  0.00    +0.020 C 
ATOM     10  C   UNL     1      -0.293  -3.296   3.159  0.00  0.00    +0.108 C 
ATOM     11  N   UNL     1      -1.554  -5.172  -1.542  0.00  0.00    -0.280 N 
ATOM     12  C   UNL     1      -1.685  -4.913  -2.857  0.00  0.00    +0.333 A 
ATOM     13  O   UNL     1      -1.767  -5.840  -3.639  0.00  0.00    -0.246 OA
ATOM     14  N   UNL     1      -1.720  -3.654  -3.326  0.00  0.00    -0.262 N 
ATOM     15  C   UNL     1      -1.632  -2.598  -2.491  0.00  0.00    +0.282 A 
ATOM     16  O   UNL     1      -1.665  -1.461  -2.930  0.00  0.00    -0.265 OA
ATOM     17  C   UNL     1      -1.856  -3.425  -4.767  0.00  0.00    +0.157 C 
ATOM     18  C   UNL     1      -1.521  -6.558  -1.069  0.00  0.00    +0.155 C 
ENDROOT
BRANCH   1  19
ATOM     19  C   UNL     1      -1.378  -0.533   0.008  0.00  0.00    +0.125 C 
BRANCH  19  21
ATOM     20  C   UNL     1       0.079   1.496   0.002  0.00  0.00    +0.005 C 
ATOM     21  C   UNL     1       0.068  -0.034  -0.003  0.00  0.00    +0.018 C 
ENDBRANCH  19  21
ENDBRANCH   1  19
TORSDOF 2
