REMARK  Name = ZINC38596407
REMARK  9 active torsions:
REMARK  status: ('A' for Active; 'I' for Inactive)
REMARK    1  A    between atoms: C_1  and  C_2
REMARK    2  A    between atoms: C_2  and  C_4
REMARK    3  A    between atoms: C_2  and  N_24
REMARK    4  A    between atoms: C_4  and  C_6
REMARK    5  A    between atoms: C_4  and  N_11
REMARK    6  A    between atoms: N_14  and  C_17
REMARK    7  A    between atoms: C_17  and  C_18
REMARK    8  A    between atoms: N_24  and  S_25
REMARK    9  A    between atoms: S_25  and  C_28
REMARK                            x       y       z     vdW  Elec       q    Type
REMARK                         _______ _______ _______ _____ _____    ______ ____
ROOT
ATOM      1  C   UNL     1       0.476  -0.136   1.253  0.00  0.00    +0.112 C 
ENDROOT
BRANCH   1   2
ATOM      2  N   UNL     1      -0.224   0.567   2.337  0.00  0.00    -0.297 NA
ATOM      3  C   UNL     1      -1.657   0.242   2.336  0.00  0.00    +0.066 C 
ATOM      4  C   UNL     1      -2.359   1.038   3.439  0.00  0.00    -0.063 C 
ATOM      5  N   UNL     1      -1.764   0.701   4.739  0.00  0.00    +0.384 N 
ATOM      6  C   UNL     1      -0.338   1.053   4.733  0.00  0.00    -0.063 C 
ATOM      7  C   UNL     1       0.380   0.258   3.641  0.00  0.00    +0.066 C 
ATOM      8  H   UNL     1      -1.865  -0.288   4.909  0.00  0.00    -0.081 HD
BRANCH   5   9
ATOM      9  C   UNL     1      -2.450   1.452   5.800  0.00  0.00    -0.043 C 
BRANCH   9  10
ATOM     10  C   UNL     1      -1.924   1.016   7.143  0.00  0.00    -0.064 A 
ATOM     11  C   UNL     1      -2.523  -0.036   7.812  0.00  0.00    +0.002 A 
ATOM     12  C   UNL     1      -2.041  -0.435   9.044  0.00  0.00    +0.000 A 
ATOM     13  C   UNL     1      -0.960   0.216   9.608  0.00  0.00    +0.000 A 
ATOM     14  C   UNL     1      -0.360   1.267   8.939  0.00  0.00    +0.000 A 
ATOM     15  C   UNL     1      -0.840   1.663   7.705  0.00  0.00    +0.002 A 
ENDBRANCH   9  10
ENDBRANCH   5   9
ENDBRANCH   1   2
BRANCH   1  16
ATOM     16  C   UNL     1       1.921   0.290   1.230  0.00  0.00    +0.008 A 
ATOM     17  C   UNL     1       3.029  -0.460   1.010  0.00  0.00    +0.013 A 
ATOM     18  C   UNL     1       4.268   0.151   1.035  0.00  0.00    +0.008 A 
ATOM     19  C   UNL     1       4.339   1.483   1.278  0.00  0.00    +0.045 A 
ATOM     20  S   UNL     1       2.619   1.915   1.476  0.00  0.00    -0.100 S 
ENDBRANCH   1  16
BRANCH   1  22
ATOM     21  C   UNL     1      -0.208   1.729  -0.262  0.00  0.00    +0.027 C 
ATOM     22  C   UNL     1      -0.180   0.210  -0.085  0.00  0.00    +0.095 C 
BRANCH  22  23
ATOM     23  N   UNL     1       0.589  -0.394  -1.176  0.00  0.00    -0.185 NA
ATOM     24  H   UNL     1       1.556  -0.444  -1.118  0.00  0.00    +0.148 HD
BRANCH  23  25
ATOM     25  S   UNL     1      -0.192  -0.992  -2.508  0.00  0.00    +0.060 S 
ATOM     26  O   UNL     1      -1.093   0.019  -2.938  0.00  0.00    -0.153 OA
ATOM     27  O   UNL     1       0.810  -1.532  -3.359  0.00  0.00    -0.153 OA
BRANCH  25  28
ATOM     28  C   UNL     1      -1.178  -2.349  -1.968  0.00  0.00    +0.125 A 
ATOM     29  C   UNL     1      -2.556  -2.280  -2.057  0.00  0.00    +0.050 A 
ATOM     30  C   UNL     1      -3.330  -3.345  -1.633  0.00  0.00    +0.043 A 
ATOM     31  C   UNL     1      -2.726  -4.479  -1.120  0.00  0.00    +0.021 A 
ATOM     32  C   UNL     1      -1.349  -4.548  -1.031  0.00  0.00    +0.023 A 
ATOM     33  C   UNL     1      -0.574  -3.485  -1.460  0.00  0.00    +0.067 A 
ATOM     34 CL   UNL     1       1.157  -3.573  -1.355  0.00  0.00    -0.082 Cl
ATOM     35 CL   UNL     1      -5.061  -3.259  -1.745  0.00  0.00    -0.083 Cl
ENDBRANCH  25  28
ENDBRANCH  23  25
ENDBRANCH  22  23
ENDBRANCH   1  22
TORSDOF 8
