REMARK  Name = ZINC13064762
REMARK  16 active torsions:
REMARK  status: ('A' for Active; 'I' for Inactive)
REMARK    1  A    between atoms: C_1  and  C_2
REMARK    2  A    between atoms: C_2  and  C_3
REMARK    3  A    between atoms: C_3  and  C_5
REMARK    4  A    between atoms: C_3  and  N_71
REMARK    5  A    between atoms: N_9  and  C_10
REMARK    6  A    between atoms: C_10  and  C_11
REMARK    7  A    between atoms: C_11  and  O_13
REMARK    8  A    between atoms: O_13  and  C_14
REMARK    9  A    between atoms: C_14  and  C_15
REMARK   10  A    between atoms: C_16  and  C_17
REMARK   11  A    between atoms: C_16  and  N_71
REMARK   12  A    between atoms: C_20  and  C_23
REMARK   13  A    between atoms: C_24  and  C_25
REMARK   14  A    between atoms: C_24  and  N_71
REMARK   15  A    between atoms: C_29  and  C_38
REMARK   16  A    between atoms: C_30  and  C_37
REMARK                            x       y       z     vdW  Elec       q    Type
REMARK                         _______ _______ _______ _____ _____    ______ ____
ROOT
ATOM      1  N   UNL     1      -5.415   4.149  -1.418  0.00  0.00    +0.392 N 
ATOM      2  H   UNL     1      -5.075   4.557  -2.297  0.00  0.00    -0.080 HD
ENDROOT
BRANCH   1   3
ATOM      3  C   UNL     1      -6.834   4.519  -1.235  0.00  0.00    +0.003 C 
BRANCH   3   4
ATOM      4  C   UNL     1      -7.279   4.222   0.174  0.00  0.00    +0.139 A 
ATOM      5  N   UNL     1      -6.580   4.396   1.269  0.00  0.00    -0.115 NA
ATOM      6  N   UNL     1      -7.306   4.028   2.268  0.00  0.00    -0.023 NA
ATOM      7  N   UNL     1      -8.447   3.616   1.837  0.00  0.00    -0.043 NA
ATOM      8  N   UNL     1      -8.470   3.720   0.552  0.00  0.00    -0.220 N 
BRANCH   8   9
ATOM      9  C   UNL     1      -9.582   3.359  -0.332  0.00  0.00    +0.267 C 
BRANCH   9  10
ATOM     10  C   UNL     1      -9.444   1.918  -0.749  0.00  0.00    +0.329 C 
ATOM     11  O   UNL     1      -8.512   1.259  -0.350  0.00  0.00    -0.249 OA
BRANCH  10  12
ATOM     12  O   UNL     1     -10.356   1.365  -1.564  0.00  0.00    -0.464 OA
BRANCH  12  13
ATOM     13  C   UNL     1     -10.160  -0.028  -1.925  0.00  0.00    +0.229 C 
ATOM     14  C   UNL     1     -11.290  -0.478  -2.853  0.00  0.00    +0.048 C 
ENDBRANCH  12  13
ENDBRANCH  10  12
ENDBRANCH   9  10
ENDBRANCH   8   9
ENDBRANCH   3   4
BRANCH   3  16
ATOM     15  C   UNL     1      -6.575   6.312  -2.956  0.00  0.00    +0.002 C 
ATOM     16  C   UNL     1      -6.992   6.015  -1.514  0.00  0.00    -0.011 C 
ENDBRANCH   3  16
ENDBRANCH   1   3
BRANCH   1  17
ATOM     17  C   UNL     1      -5.281   2.679  -1.488  0.00  0.00    -0.042 C 
BRANCH  17  18
ATOM     18  C   UNL     1      -5.733   2.217  -2.850  0.00  0.00    -0.064 A 
ATOM     19  C   UNL     1      -7.039   1.808  -3.043  0.00  0.00    +0.002 A 
ATOM     20  C   UNL     1      -7.454   1.388  -4.293  0.00  0.00    +0.003 A 
ATOM     21  C   UNL     1      -6.561   1.368  -5.347  0.00  0.00    -0.050 A 
ATOM     22  C   UNL     1      -5.253   1.773  -5.153  0.00  0.00    +0.003 A 
ATOM     23  C   UNL     1      -4.839   2.197  -3.904  0.00  0.00    +0.002 A 
ATOM     24  C   UNL     1      -7.013   0.906  -6.709  0.00  0.00    +0.044 C 
ENDBRANCH  17  18
ENDBRANCH   1  17
BRANCH   1  25
ATOM     25  C   UNL     1      -4.606   4.678  -0.300  0.00  0.00    -0.036 C 
BRANCH  25  26
ATOM     26  C   UNL     1      -3.166   4.747  -0.737  0.00  0.00    +0.001 A 
ATOM     27  C   UNL     1      -2.666   5.905  -1.234  0.00  0.00    +0.017 A 
ATOM     28  C   UNL     1      -1.264   5.938  -1.655  0.00  0.00    -0.001 A 
ATOM     29  C   UNL     1      -0.697   7.098  -2.192  0.00  0.00    +0.013 A 
ATOM     30  C   UNL     1       0.615   7.096  -2.576  0.00  0.00    -0.047 A 
ATOM     31  C   UNL     1       1.389   5.952  -2.437  0.00  0.00    -0.046 A 
ATOM     32  C   UNL     1       0.852   4.798  -1.910  0.00  0.00    +0.030 A 
ATOM     33  C   UNL     1      -0.483   4.774  -1.518  0.00  0.00    +0.049 A 
ATOM     34  N   UNL     1      -1.048   3.632  -0.993  0.00  0.00    -0.322 N 
ATOM     35  H   UNL     1      -0.508   2.833  -0.895  0.00  0.00    +0.169 HD
ATOM     36  C   UNL     1      -2.339   3.610  -0.615  0.00  0.00    +0.251 A 
ATOM     37  O   UNL     1      -2.805   2.582  -0.155  0.00  0.00    -0.268 OA
ATOM     38  C   UNL     1       2.833   5.973  -2.867  0.00  0.00    +0.044 C 
ATOM     39  C   UNL     1       1.225   8.346  -3.155  0.00  0.00    +0.044 C 
ENDBRANCH  25  26
ENDBRANCH   1  25
TORSDOF 11
