REMARK  Name = ZINC39636148
REMARK  4 active torsions:
REMARK  status: ('A' for Active; 'I' for Inactive)
REMARK    1  A    between atoms: C_1  and  C_2
REMARK    2  A    between atoms: C_8  and  N_10
REMARK    3  A    between atoms: C_11  and  C_13
REMARK    4  A    between atoms: C_24  and  C_26
REMARK                            x       y       z     vdW  Elec       q    Type
REMARK                         _______ _______ _______ _____ _____    ______ ____
ROOT
ATOM      1  C   UNL     1       4.209   0.648   2.386  0.00  0.00    +0.100 C 
ATOM      2  C   UNL     1       5.154  -0.366   1.704  0.00  0.00    +0.121 C 
ATOM      3  N   UNL     1       6.408  -0.297   2.489  0.00  0.00    -0.295 N 
ATOM      4  C   UNL     1       5.956  -0.168   3.895  0.00  0.00    +0.115 C 
ATOM      5  C   UNL     1       4.739   0.775   3.824  0.00  0.00    -0.004 C 
ATOM      6  C   UNL     1       3.671   0.334   4.821  0.00  0.00    -0.010 C 
ATOM      7  C   UNL     1       4.200   0.525   6.245  0.00  0.00    -0.082 C 
ATOM      8  N   UNL     1       4.543   1.936   6.458  0.00  0.00    +0.379 N 
ATOM      9  C   UNL     1       5.635   2.327   5.558  0.00  0.00    -0.082 C 
ATOM     10  C   UNL     1       5.167   2.213   4.104  0.00  0.00    -0.010 C 
ATOM     11  C   UNL     1       7.675  -0.341   2.029  0.00  0.00    +0.265 C 
ATOM     12  O   UNL     1       8.605  -0.353   2.811  0.00  0.00    -0.268 OA
ATOM     13  H   UNL     1       3.733   2.509   6.271  0.00  0.00    -0.086 HD
ATOM     14  H   UNL     1       4.833   2.070   7.415  0.00  0.00    -0.086 HD
ENDROOT
BRANCH  11  15
ATOM     15  C   UNL     1       7.932  -0.376   0.570  0.00  0.00    +0.126 A 
ATOM     16  C   UNL     1       9.248  -0.538   0.110  0.00  0.00    +0.033 A 
ATOM     17  C   UNL     1       9.498  -0.572  -1.232  0.00  0.00    +0.012 A 
ATOM     18  C   UNL     1       8.411  -0.441  -2.116  0.00  0.00    +0.000 A 
ATOM     19  C   UNL     1       8.596  -0.468  -3.508  0.00  0.00    +0.010 A 
ATOM     20  C   UNL     1       7.521  -0.339  -4.332  0.00  0.00    +0.001 A 
ATOM     21  C   UNL     1       6.236  -0.181  -3.815  0.00  0.00    +0.002 A 
ATOM     22  C   UNL     1       6.018  -0.150  -2.473  0.00  0.00    +0.028 A 
ATOM     23  C   UNL     1       7.105  -0.280  -1.586  0.00  0.00    +0.072 A 
ATOM     24  N   UNL     1       6.919  -0.260  -0.266  0.00  0.00    -0.242 NA
ENDBRANCH  11  15
BRANCH   1  26
ATOM     25  N   UNL     1       1.763   0.983   2.529  0.00  0.00    -0.312 N 
ATOM     26  C   UNL     1       2.795   0.128   2.391  0.00  0.00    +0.218 C 
ATOM     27  O   UNL     1       2.586  -1.061   2.271  0.00  0.00    -0.275 OA
ATOM     28  H   UNL     1       1.930   1.933   2.625  0.00  0.00    +0.149 HD
BRANCH  25  35
ATOM     29  C   UNL     1      -0.014   1.592   4.734  0.00  0.00    +0.009 C 
ATOM     30  C   UNL     1      -0.512   1.453   3.294  0.00  0.00    +0.006 C 
ATOM     31  C   UNL     1      -1.948   0.925   3.299  0.00  0.00    +0.005 C 
ATOM     32  C   UNL     1      -2.446   0.786   1.859  0.00  0.00    +0.000 C 
ATOM     33  C   UNL     1      -1.546  -0.191   1.100  0.00  0.00    +0.002 C 
ATOM     34  C   UNL     1      -0.110   0.338   1.094  0.00  0.00    +0.022 C 
ATOM     35  C   UNL     1       0.388   0.477   2.534  0.00  0.00    +0.076 C 
ENDBRANCH  25  35
ENDBRANCH   1  26
TORSDOF 3
