REMARK  Name = ZINC21710803
REMARK  11 active torsions:
REMARK  status: ('A' for Active; 'I' for Inactive)
REMARK    1  A    between atoms: C_1  and  C_2
REMARK    2  A    between atoms: C_2  and  C_3
REMARK    3  A    between atoms: C_3  and  C_4
REMARK    4  A    between atoms: C_4  and  N_5
REMARK    5  A    between atoms: C_6  and  C_8
REMARK    6  A    between atoms: C_15  and  C_17
REMARK    7  A    between atoms: C_21  and  N_23
REMARK    8  A    between atoms: N_23  and  S_24
REMARK    9  A    between atoms: S_24  and  C_27
REMARK   10  A    between atoms: C_30  and  C_34
REMARK   11  A    between atoms: C_31  and  C_33
REMARK                            x       y       z     vdW  Elec       q    Type
REMARK                         _______ _______ _______ _____ _____    ______ ____
ROOT
ATOM      1  C   UNL     1       1.149   5.534  -4.486  0.00  0.00    +0.039 A 
ATOM      2  C   UNL     1       1.584   6.844  -4.275  0.00  0.00    +0.013 A 
ATOM      3  C   UNL     1       1.933   7.259  -3.007  0.00  0.00    +0.003 A 
ATOM      4  C   UNL     1       1.853   6.383  -1.941  0.00  0.00    +0.024 A 
ATOM      5  C   UNL     1       1.421   5.077  -2.140  0.00  0.00    +0.049 A 
ATOM      6  C   UNL     1       1.073   4.648  -3.412  0.00  0.00    +0.037 A 
ENDROOT
BRANCH   1  13
ATOM      7  C   UNL     1      -2.067   5.332  -7.926  0.00  0.00    +0.092 C 
ATOM      8  C   UNL     1      -2.589   6.720  -7.547  0.00  0.00    +0.016 C 
ATOM      9  C   UNL     1      -2.134   7.068  -6.128  0.00  0.00    +0.020 C 
ATOM     10  C   UNL     1      -0.607   7.094  -6.077  0.00  0.00    +0.108 C 
ATOM     11  N   UNL     1      -0.089   5.815  -6.580  0.00  0.00    -0.297 N 
ATOM     12  C   UNL     1      -0.535   5.341  -7.897  0.00  0.00    +0.120 C 
ATOM     13  C   UNL     1       0.774   5.086  -5.845  0.00  0.00    +0.247 C 
ATOM     14  O   UNL     1       1.245   4.062  -6.298  0.00  0.00    -0.270 OA
BRANCH   7  16
ATOM     15  N   UNL     1      -2.200   3.793  -9.858  0.00  0.00    -0.315 N 
ATOM     16  C   UNL     1      -2.542   4.976  -9.311  0.00  0.00    +0.218 C 
ATOM     17  O   UNL     1      -3.233   5.755  -9.933  0.00  0.00    -0.275 OA
ATOM     18  H   UNL     1      -1.573   3.087  -9.293  0.00  0.00    +0.149 HD
BRANCH  15  19
ATOM     19  C   UNL     1      -2.662   3.448 -11.205  0.00  0.00    +0.104 C 
BRANCH  19  20
ATOM     20  C   UNL     1      -2.136   2.062 -11.584  0.00  0.00    +0.018 C 
BRANCH  20  22
ATOM     21  C   UNL     1      -2.094   0.315 -13.370  0.00  0.00    +0.004 C 
ATOM     22  C   UNL     1      -2.619   1.701 -12.991  0.00  0.00    -0.002 C 
ENDBRANCH  20  22
ENDBRANCH  19  20
ENDBRANCH  15  19
ENDBRANCH   7  16
ENDBRANCH   1  13
BRANCH   5  23
ATOM     23  N   UNL     1       1.342   4.195  -1.059  0.00  0.00    -0.216 N 
ATOM     24  H   UNL     1       1.726   3.169  -1.157  0.00  0.00    +0.174 HD
BRANCH  23  25
ATOM     25  S   UNL     1       0.669   4.694   0.370  0.00  0.00    +0.072 S 
ATOM     26  O   UNL     1       1.274   5.939   0.690  0.00  0.00    -0.150 OA
ATOM     27  O   UNL     1       0.710   3.579   1.249  0.00  0.00    -0.150 OA
BRANCH  25  28
ATOM     28  C   UNL     1      -1.032   5.026   0.057  0.00  0.00    +0.109 A 
ATOM     29  C   UNL     1      -1.971   4.022   0.203  0.00  0.00    +0.029 A 
ATOM     30  C   UNL     1      -3.306   4.282  -0.043  0.00  0.00    +0.005 A 
ATOM     31  C   UNL     1      -3.702   5.546  -0.440  0.00  0.00    -0.047 A 
ATOM     32  C   UNL     1      -2.764   6.551  -0.582  0.00  0.00    -0.046 A 
ATOM     33  C   UNL     1      -1.429   6.291  -0.336  0.00  0.00    +0.032 A 
ATOM     34  C   UNL     1      -3.196   7.930  -1.010  0.00  0.00    +0.044 C 
ATOM     35  C   UNL     1      -5.157   5.829  -0.713  0.00  0.00    +0.044 C 
ENDBRANCH  25  28
ENDBRANCH  23  25
ENDBRANCH   5  23
TORSDOF 8
