REMARK  Name = ZINC06282120
REMARK  7 active torsions:
REMARK  status: ('A' for Active; 'I' for Inactive)
REMARK    1  A    between atoms: C_1  and  C_2
REMARK    2  A    between atoms: C_7  and  C_14
REMARK    3  A    between atoms: C_14  and  C_16
REMARK    4  A    between atoms: C_14  and  N_67
REMARK    5  A    between atoms: N_20  and  C_21
REMARK    6  A    between atoms: C_21  and  C_22
REMARK    7  A    between atoms: N_30  and  C_33
REMARK                            x       y       z     vdW  Elec       q    Type
REMARK                         _______ _______ _______ _____ _____    ______ ____
ROOT
ATOM      1  C   UNL     1       4.959   1.184  -0.043  0.00  0.00    +0.039 C 
ENDROOT
BRANCH   1   8
ATOM      2  C   UNL     1      -2.719   3.261   0.561  0.00  0.00    +0.044 C 
ATOM      3  C   UNL     1      -1.346   2.648   0.453  0.00  0.00    -0.048 A 
ATOM      4  C   UNL     1      -1.210   1.267   0.430  0.00  0.00    +0.004 A 
ATOM      5  C   UNL     1       0.025   0.691   0.338  0.00  0.00    +0.010 A 
ATOM      6  C   UNL     1       1.163   1.501   0.254  0.00  0.00    -0.001 A 
ATOM      7  C   UNL     1       2.501   0.917   0.148  0.00  0.00    +0.017 A 
ATOM      8  C   UNL     1       3.567   1.752   0.068  0.00  0.00    +0.011 A 
ATOM      9  C   UNL     1       3.378   3.150   0.089  0.00  0.00    +0.251 A 
ATOM     10  O   UNL     1       4.350   3.882   0.017  0.00  0.00    -0.268 OA
ATOM     11  N   UNL     1       2.153   3.695   0.186  0.00  0.00    -0.322 N 
ATOM     12  H   UNL     1       2.059   4.660   0.197  0.00  0.00    +0.169 HD
ATOM     13  C   UNL     1       1.029   2.902   0.270  0.00  0.00    +0.049 A 
ATOM     14  C   UNL     1      -0.239   3.465   0.371  0.00  0.00    +0.029 A 
ENDBRANCH   1   8
BRANCH   1  20
ATOM     15  C   UNL     1       7.190   1.274   0.894  0.00  0.00    -0.058 C 
ATOM     16  C   UNL     1       8.055   1.952   1.960  0.00  0.00    +0.086 C 
ATOM     17  N   UNL     1       7.509   1.655   3.292  0.00  0.00    -0.333 N 
ATOM     18  C   UNL     1       6.125   2.135   3.410  0.00  0.00    +0.086 C 
ATOM     19  C   UNL     1       5.260   1.458   2.344  0.00  0.00    -0.058 C 
ATOM     20  N   UNL     1       5.807   1.782   1.010  0.00  0.00    +0.391 N 
ATOM     21  H   UNL     1       5.815   2.802   0.892  0.00  0.00    -0.080 HD
BRANCH  17  22
ATOM     22  C   UNL     1       8.316   2.198   4.296  0.00  0.00    +0.030 A 
ATOM     23  C   UNL     1       7.772   3.074   5.227  0.00  0.00    +0.026 A 
ATOM     24  C   UNL     1       8.570   3.605   6.222  0.00  0.00    +0.040 A 
ATOM     25  C   UNL     1       9.913   3.275   6.284  0.00  0.00    +0.124 A 
ATOM     26  C   UNL     1      10.458   2.406   5.354  0.00  0.00    +0.040 A 
ATOM     27  C   UNL     1       9.663   1.868   4.361  0.00  0.00    +0.026 A 
ATOM     28  F   UNL     1      10.692   3.800   7.255  0.00  0.00    -0.205 F 
ENDBRANCH  17  22
ENDBRANCH   1  20
BRANCH   1  29
ATOM     29  C   UNL     1       5.536   1.528  -1.392  0.00  0.00    +0.143 A 
ATOM     30  N   UNL     1       5.982   2.699  -1.776  0.00  0.00    -0.115 NA
ATOM     31  N   UNL     1       6.394   2.588  -2.992  0.00  0.00    -0.023 NA
ATOM     32  N   UNL     1       6.215   1.379  -3.396  0.00  0.00    -0.044 NA
ATOM     33  N   UNL     1       5.688   0.694  -2.437  0.00  0.00    -0.228 N 
BRANCH  33  34
ATOM     34  C   UNL     1       5.323  -0.724  -2.479  0.00  0.00    +0.178 C 
BRANCH  34  35
ATOM     35  C   UNL     1       3.880  -0.866  -2.966  0.00  0.00    +0.140 C 
ATOM     36  C   UNL     1       3.449  -2.347  -2.904  0.00  0.00    +0.035 C 
ATOM     37  C   UNL     1       2.609  -2.500  -4.202  0.00  0.00    +0.031 C 
ATOM     38  C   UNL     1       3.365  -1.542  -5.157  0.00  0.00    +0.160 C 
ATOM     39  O   UNL     1       3.784  -0.444  -4.332  0.00  0.00    -0.375 OA
ENDBRANCH  34  35
ENDBRANCH  33  34
ENDBRANCH   1  29
TORSDOF 6
