REMARK  Name = ZINC14383209
REMARK  7 active torsions:
REMARK  status: ('A' for Active; 'I' for Inactive)
REMARK    1  A    between atoms: C_4  and  C_7
REMARK    2  A    between atoms: C_7  and  N_8
REMARK    3  A    between atoms: C_9  and  N_35
REMARK    4  A    between atoms: C_10  and  N_17
REMARK    5  A    between atoms: N_17  and  C_18
REMARK    6  A    between atoms: C_18  and  C_19
REMARK    7  A    between atoms: C_25  and  C_27
REMARK                            x       y       z     vdW  Elec       q    Type
REMARK                         _______ _______ _______ _____ _____    ______ ____
ROOT
ATOM      1  N   UNL     1      -5.162  -1.821  -1.717  0.00  0.00    -0.276 N 
ATOM      2  C   UNL     1      -4.136  -0.927  -1.516  0.00  0.00    +0.128 A 
ATOM      3  C   UNL     1      -3.631  -0.758  -0.243  0.00  0.00    +0.140 A 
ATOM      4  C   UNL     1      -4.189  -1.500   0.814  0.00  0.00    +0.277 A 
ATOM      5  O   UNL     1      -3.764  -1.367   1.949  0.00  0.00    -0.266 OA
ATOM      6  N   UNL     1      -5.197  -2.359   0.563  0.00  0.00    -0.273 N 
ATOM      7  H   UNL     1      -5.594  -2.888   1.314  0.00  0.00    +0.173 HD
ATOM      8  C   UNL     1      -5.673  -2.515  -0.684  0.00  0.00    +0.331 A 
ATOM      9  O   UNL     1      -6.583  -3.297  -0.883  0.00  0.00    -0.246 OA
ENDROOT
BRANCH   3  10
ATOM     10  N   UNL     1      -2.576   0.148  -0.005  0.00  0.00    -0.256 N 
ATOM     11  C   UNL     1      -1.426  -0.287   0.547  0.00  0.00    +0.253 C 
ATOM     12  O   UNL     1      -0.508   0.489   0.730  0.00  0.00    -0.270 OA
BRANCH  11  13
ATOM     13  C   UNL     1      -1.280  -1.707   0.929  0.00  0.00    +0.057 A 
ATOM     14  C   UNL     1      -1.918  -2.702   0.185  0.00  0.00    +0.034 A 
ATOM     15  C   UNL     1      -1.777  -4.026   0.547  0.00  0.00    +0.042 A 
ATOM     16  C   UNL     1      -1.007  -4.369   1.646  0.00  0.00    +0.021 A 
ATOM     17  C   UNL     1      -0.372  -3.389   2.387  0.00  0.00    +0.022 A 
ATOM     18  C   UNL     1      -0.504  -2.060   2.036  0.00  0.00    +0.053 A 
ATOM     19 CL   UNL     1       0.293  -0.830   2.967  0.00  0.00    -0.083 Cl
ATOM     20 CL   UNL     1      -2.569  -5.265  -0.376  0.00  0.00    -0.084 Cl
ENDBRANCH  11  13
BRANCH  10  21
ATOM     21  C   UNL     1      -2.731   1.562  -0.357  0.00  0.00    +0.149 C 
BRANCH  21  22
ATOM     22  C   UNL     1      -3.159   2.339   0.861  0.00  0.00    -0.030 A 
ATOM     23  C   UNL     1      -4.499   2.435   1.184  0.00  0.00    +0.005 A 
ATOM     24  C   UNL     1      -4.891   3.144   2.304  0.00  0.00    +0.000 A 
ATOM     25  C   UNL     1      -3.943   3.765   3.096  0.00  0.00    +0.000 A 
ATOM     26  C   UNL     1      -2.603   3.673   2.770  0.00  0.00    +0.000 A 
ATOM     27  C   UNL     1      -2.211   2.960   1.653  0.00  0.00    +0.005 A 
ENDBRANCH  21  22
ENDBRANCH  10  21
ENDBRANCH   3  10
BRANCH   2  28
ATOM     28  N   UNL     1      -3.618  -0.214  -2.571  0.00  0.00    -0.343 N 
ATOM     29  H   UNL     1      -2.785   0.272  -2.465  0.00  0.00    +0.144 HD
ATOM     30  H   UNL     1      -4.085  -0.197  -3.421  0.00  0.00    +0.144 HD
ENDBRANCH   2  28
BRANCH   1  31
ATOM     31  C   UNL     1      -5.706  -2.013  -3.064  0.00  0.00    +0.163 C 
BRANCH  31  35
ATOM     32  C   UNL     1      -8.905   0.742  -3.716  0.00  0.00    +0.000 A 
ATOM     33  C   UNL     1      -7.609   1.098  -4.040  0.00  0.00    +0.000 A 
ATOM     34  C   UNL     1      -6.574   0.207  -3.829  0.00  0.00    +0.005 A 
ATOM     35  C   UNL     1      -6.835  -1.041  -3.294  0.00  0.00    -0.028 A 
ATOM     36  C   UNL     1      -8.131  -1.400  -2.976  0.00  0.00    +0.005 A 
ATOM     37  C   UNL     1      -9.166  -0.506  -3.182  0.00  0.00    +0.000 A 
ENDBRANCH  31  35
ENDBRANCH   1  31
TORSDOF 7
