REMARK  Name = ZINC32985239
REMARK  10 active torsions:
REMARK  status: ('A' for Active; 'I' for Inactive)
REMARK    1  A    between atoms: C_1  and  C_2
REMARK    2  A    between atoms: C_2  and  C_3
REMARK    3  A    between atoms: C_6  and  S_9
REMARK    4  A    between atoms: S_9  and  N_12
REMARK    5  A    between atoms: N_12  and  C_13
REMARK    6  A    between atoms: C_19  and  C_33
REMARK    7  A    between atoms: C_21  and  N_23
REMARK    8  A    between atoms: N_26  and  C_29
REMARK    9  A    between atoms: C_29  and  C_30
REMARK   10  A    between atoms: C_30  and  C_31
REMARK                            x       y       z     vdW  Elec       q    Type
REMARK                         _______ _______ _______ _____ _____    ______ ____
ROOT
ATOM      1  C   UNL     1      -0.732   2.652   6.468  0.00  0.00    +0.049 A 
ATOM      2  C   UNL     1       0.168   2.836   5.411  0.00  0.00    +0.026 A 
ATOM      3  C   UNL     1       1.466   3.167   5.646  0.00  0.00    +0.028 A 
ATOM      4  C   UNL     1       1.924   3.318   6.967  0.00  0.00    +0.049 A 
ATOM      5  C   UNL     1       1.018   3.127   8.039  0.00  0.00    +0.014 A 
ATOM      6  C   UNL     1      -0.314   2.792   7.776  0.00  0.00    +0.035 A 
ATOM      7  C   UNL     1       1.507   3.287   9.409  0.00  0.00    +0.075 A 
ATOM      8  C   UNL     1       2.845   3.621   9.572  0.00  0.00    +0.057 A 
ATOM      9  C   UNL     1       3.655   3.787   8.442  0.00  0.00    +0.100 A 
ATOM     10  N   UNL     1       3.196   3.638   7.220  0.00  0.00    -0.343 N 
ATOM     11  H   UNL     1       3.902   3.787   6.389  0.00  0.00    +0.167 HD
ENDROOT
BRANCH   9  12
ATOM     12  N   UNL     1       4.991   4.121   8.619  0.00  0.00    -0.314 N 
ATOM     13  C   UNL     1       5.126   5.352   9.410  0.00  0.00    +0.122 C 
ATOM     14  C   UNL     1       6.609   5.642   9.650  0.00  0.00    +0.103 C 
ATOM     15  N   UNL     1       7.296   5.772   8.357  0.00  0.00    -0.298 NA
ATOM     16  C   UNL     1       7.161   4.541   7.566  0.00  0.00    +0.103 C 
ATOM     17  C   UNL     1       5.678   4.252   7.326  0.00  0.00    +0.122 C 
BRANCH  15  18
ATOM     18  C   UNL     1       8.709   6.126   8.545  0.00  0.00    +0.099 C 
BRANCH  18  19
ATOM     19  C   UNL     1       8.820   7.256   9.570  0.00  0.00    +0.134 C 
BRANCH  19  20
ATOM     20  C   UNL     1      10.237   7.611   9.758  0.00  0.00    +0.064 C 
ATOM     21  N   UNL     1      11.330   7.884   9.903  0.00  0.00    -0.197 NA
ENDBRANCH  19  20
ENDBRANCH  18  19
ENDBRANCH  15  18
ENDBRANCH   9  12
BRANCH   7  22
ATOM     22  C   UNL     1       0.615   3.102  10.571  0.00  0.00    +0.387 C 
ATOM     23  O   UNL     1      -0.573   2.911  10.401  0.00  0.00    -0.241 OA
ATOM     24  O   UNL     1       1.117   3.143  11.821  0.00  0.00    -0.241 OA
ENDBRANCH   7  22
BRANCH   1  25
ATOM     25  N   UNL     1      -2.059   2.317   6.197  0.00  0.00    -0.216 N 
ATOM     26  H   UNL     1      -2.313   1.301   5.861  0.00  0.00    +0.174 HD
BRANCH  25  27
ATOM     27  S   UNL     1      -3.252   3.450   6.382  0.00  0.00    +0.072 S 
ATOM     28  O   UNL     1      -3.079   4.016   7.674  0.00  0.00    -0.150 OA
ATOM     29  O   UNL     1      -4.466   2.832   5.978  0.00  0.00    -0.150 OA
BRANCH  27  33
ATOM     30  C   UNL     1      -2.433   6.758   3.401  0.00  0.00    -0.048 A 
ATOM     31  C   UNL     1      -1.976   6.870   4.701  0.00  0.00    +0.005 A 
ATOM     32  C   UNL     1      -2.230   5.861   5.612  0.00  0.00    +0.029 A 
ATOM     33  C   UNL     1      -2.933   4.737   5.222  0.00  0.00    +0.109 A 
ATOM     34  C   UNL     1      -3.385   4.623   3.920  0.00  0.00    +0.029 A 
ATOM     35  C   UNL     1      -3.135   5.633   3.010  0.00  0.00    +0.005 A 
BRANCH  30  37
ATOM     36  C   UNL     1      -3.304   8.874   2.446  0.00  0.00    +0.009 C 
ATOM     37  C   UNL     1      -2.160   7.859   2.409  0.00  0.00    +0.032 C 
ENDBRANCH  30  37
ENDBRANCH  27  33
ENDBRANCH  25  27
ENDBRANCH   1  25
TORSDOF 9
