REMARK  Name = ZINC63957285
REMARK  10 active torsions:
REMARK  status: ('A' for Active; 'I' for Inactive)
REMARK    1  A    between atoms: C_1  and  C_2
REMARK    2  A    between atoms: C_4  and  C_7
REMARK    3  A    between atoms: N_9  and  C_10
REMARK    4  A    between atoms: C_10  and  C_11
REMARK    5  A    between atoms: C_10  and  C_12
REMARK    6  A    between atoms: C_10  and  C_13
REMARK    7  A    between atoms: C_15  and  C_18
REMARK    8  A    between atoms: C_18  and  C_19
REMARK    9  A    between atoms: C_18  and  C_20
REMARK   10  A    between atoms: C_18  and  C_21
REMARK                            x       y       z     vdW  Elec       q    Type
REMARK                         _______ _______ _______ _____ _____    ______ ____
ROOT
ATOM      1  C   UNL     1       0.070  -5.722  -1.926  0.00  0.00    +0.092 C 
ATOM      2  C   UNL     1      -1.184  -5.724  -2.803  0.00  0.00    +0.040 C 
ATOM      3  C   UNL     1       1.314  -5.690  -2.815  0.00  0.00    +0.040 C 
ENDROOT
BRANCH   1   4
ATOM      4  C   UNL     1       0.091  -6.967  -1.077  0.00  0.00    +0.194 A 
ATOM      5  N   UNL     1       0.110  -8.223  -1.538  0.00  0.00    -0.193 NA
ATOM      6  C   UNL     1       0.125  -9.065  -0.543  0.00  0.00    +0.233 A 
ATOM      7  O   UNL     1       0.115  -8.366   0.599  0.00  0.00    -0.337 OA
ATOM      8  N   UNL     1       0.098  -6.996   0.225  0.00  0.00    -0.059 NA
BRANCH   6   9
ATOM      9  C   UNL     1       0.149 -10.568  -0.657  0.00  0.00    +0.041 C 
ATOM     10  C   UNL     1       1.405 -11.001  -1.417  0.00  0.00    +0.020 C 
ATOM     11  C   UNL     1       0.161 -11.186   0.742  0.00  0.00    +0.020 C 
ATOM     12  C   UNL     1      -1.093 -11.041  -1.414  0.00  0.00    +0.020 C 
ENDBRANCH   6   9
ENDBRANCH   1   4
BRANCH   1  15
ATOM     13  C   UNL     1       0.039  -3.307  -1.602  0.00  0.00    +0.283 C 
ATOM     14  O   UNL     1       0.031  -3.175  -2.811  0.00  0.00    -0.267 OA
ATOM     15  N   UNL     1       0.058  -4.541  -1.060  0.00  0.00    -0.297 N 
ATOM     16  H   UNL     1       0.065  -4.646  -0.095  0.00  0.00    +0.150 HD
BRANCH  13  20
ATOM     17  C   UNL     1      -0.018   1.503   0.010  0.00  0.00    +0.069 C 
ATOM     18  C   UNL     1       0.002  -0.004   0.002  0.00  0.00    +0.081 A 
ATOM     19  C   UNL     1       0.008  -0.821  -1.141  0.00  0.00    +0.080 A 
ATOM     20  C   UNL     1       0.028  -2.118  -0.730  0.00  0.00    +0.222 A 
ATOM     21  O   UNL     1       0.034  -2.120   0.617  0.00  0.00    -0.350 OA
ATOM     22  N   UNL     1       0.023  -0.772   1.053  0.00  0.00    -0.083 NA
ENDBRANCH  13  20
ENDBRANCH   1  15
TORSDOF 4
