REMARK  Name = ZINC00902617
REMARK  10 active torsions:
REMARK  status: ('A' for Active; 'I' for Inactive)
REMARK    1  A    between atoms: N_9  and  C_10
REMARK    2  A    between atoms: C_10  and  C_11
REMARK    3  A    between atoms: N_13  and  C_14
REMARK    4  A    between atoms: N_13  and  C_21
REMARK    5  A    between atoms: C_18  and  O_20
REMARK    6  A    between atoms: C_21  and  C_23
REMARK    7  A    between atoms: C_21  and  C_31
REMARK    8  A    between atoms: C_26  and  O_30
REMARK    9  A    between atoms: C_27  and  O_29
REMARK   10  A    between atoms: N_33  and  C_34
REMARK                            x       y       z     vdW  Elec       q    Type
REMARK                         _______ _______ _______ _____ _____    ______ ____
ROOT
ATOM      1  C   UNL     1       5.487   0.265   1.471  0.00  0.00    +0.242 C 
ATOM      2  O   UNL     1       5.206   1.267   2.095  0.00  0.00    -0.273 OA
ATOM      3  N   UNL     1       6.502  -0.521   1.879  0.00  0.00    -0.254 N 
ENDROOT
BRANCH   3   4
ATOM      4  C   UNL     1       6.893  -1.619   1.104  0.00  0.00    +0.041 A 
ATOM      5  C   UNL     1       6.651  -2.910   1.555  0.00  0.00    +0.024 A 
ATOM      6  C   UNL     1       7.036  -3.993   0.790  0.00  0.00    +0.005 A 
ATOM      7  C   UNL     1       7.664  -3.796  -0.426  0.00  0.00    +0.045 A 
ATOM      8  C   UNL     1       7.908  -2.508  -0.881  0.00  0.00    +0.119 A 
ATOM      9  C   UNL     1       7.517  -1.418  -0.119  0.00  0.00    +0.069 A 
BRANCH   8  10
ATOM     10  O   UNL     1       8.525  -2.315  -2.076  0.00  0.00    -0.507 OA
ATOM     11  H   UNL     1       7.919  -2.253  -2.827  0.00  0.00    +0.292 HD
ENDBRANCH   8  10
ENDBRANCH   3   4
BRANCH   1  12
ATOM     12  C   UNL     1       4.699  -0.100   0.239  0.00  0.00    +0.242 C 
BRANCH  12  21
ATOM     13  C   UNL     1       2.978   4.435  -1.812  0.00  0.00    +0.002 A 
ATOM     14  C   UNL     1       4.253   3.896  -1.935  0.00  0.00    +0.002 A 
ATOM     15  C   UNL     1       4.562   2.703  -1.345  0.00  0.00    +0.029 A 
ATOM     16  C   UNL     1       3.595   2.020  -0.616  0.00  0.00    +0.090 A 
ATOM     17  C   UNL     1       2.303   2.560  -0.488  0.00  0.00    +0.113 A 
ATOM     18  C   UNL     1       2.011   3.786  -1.103  0.00  0.00    +0.032 A 
ATOM     19  N   UNL     1       1.575   1.707   0.259  0.00  0.00    -0.129 NA
ATOM     20  N   UNL     1       2.289   0.694   0.604  0.00  0.00    -0.064 NA
ATOM     21  N   UNL     1       3.582   0.834   0.079  0.00  0.00    -0.235 N 
ENDBRANCH  12  21
ENDBRANCH   1  12
BRANCH   3  22
ATOM     22  C   UNL     1       7.197  -0.227   3.135  0.00  0.00    +0.197 C 
BRANCH  22  23
ATOM     23  C   UNL     1       8.182  -1.328   3.434  0.00  0.00    -0.014 A 
ATOM     24  C   UNL     1       9.180  -1.627   2.525  0.00  0.00    +0.010 A 
ATOM     25  C   UNL     1      10.085  -2.636   2.795  0.00  0.00    +0.049 A 
ATOM     26  C   UNL     1       9.994  -3.350   3.978  0.00  0.00    +0.158 A 
ATOM     27  C   UNL     1       8.990  -3.049   4.894  0.00  0.00    +0.159 A 
ATOM     28  C   UNL     1       8.088  -2.033   4.619  0.00  0.00    +0.055 A 
BRANCH  27  29
ATOM     29  O   UNL     1       8.896  -3.748   6.057  0.00  0.00    -0.503 OA
ATOM     30  H   UNL     1       9.403  -3.365   6.787  0.00  0.00    +0.292 HD
ENDBRANCH  27  29
BRANCH  26  31
ATOM     31  O   UNL     1      10.884  -4.344   4.245  0.00  0.00    -0.503 OA
ATOM     32  H   UNL     1      11.675  -4.047   4.715  0.00  0.00    +0.292 HD
ENDBRANCH  26  31
ENDBRANCH  22  23
BRANCH  22  33
ATOM     33  C   UNL     1       7.932   1.083   3.007  0.00  0.00    +0.239 C 
ATOM     34  O   UNL     1       7.880   1.709   1.970  0.00  0.00    -0.273 OA
ATOM     35  N   UNL     1       8.646   1.558   4.046  0.00  0.00    -0.311 N 
ATOM     36  H   UNL     1       8.688   1.058   4.876  0.00  0.00    +0.149 HD
BRANCH  35  37
ATOM     37  C   UNL     1       9.360   2.832   3.923  0.00  0.00    +0.073 C 
ATOM     38  C   UNL     1      10.729   2.589   3.282  0.00  0.00    +0.022 C 
ATOM     39  C   UNL     1      11.474   3.918   3.153  0.00  0.00    +0.002 C 
ATOM     40  C   UNL     1      11.663   4.534   4.541  0.00  0.00    +0.000 C 
ATOM     41  C   UNL     1      10.295   4.777   5.181  0.00  0.00    +0.002 C 
ATOM     42  C   UNL     1       9.549   3.447   5.311  0.00  0.00    +0.022 C 
ENDBRANCH  35  37
ENDBRANCH  22  33
ENDBRANCH   3  22
TORSDOF 10
