REMARK  Name = ZINC39596312
REMARK  9 active torsions:
REMARK  status: ('A' for Active; 'I' for Inactive)
REMARK    1  A    between atoms: C_1  and  C_2
REMARK    2  A    between atoms: C_2  and  C_4
REMARK    3  A    between atoms: C_2  and  O_29
REMARK    4  A    between atoms: C_4  and  N_5
REMARK    5  A    between atoms: C_6  and  C_8
REMARK    6  A    between atoms: C_19  and  C_21
REMARK    7  A    between atoms: C_25  and  O_26
REMARK    8  A    between atoms: O_26  and  C_27
REMARK    9  A    between atoms: O_29  and  C_30
REMARK                            x       y       z     vdW  Elec       q    Type
REMARK                         _______ _______ _______ _____ _____    ______ ____
ROOT
ATOM      1  C   UNL     1      -2.027  -4.118   0.260  0.00  0.00    +0.100 C 
ATOM      2  C   UNL     1      -1.164  -4.623  -0.917  0.00  0.00    +0.121 C 
ATOM      3  N   UNL     1      -1.768  -5.923  -1.294  0.00  0.00    -0.296 N 
ATOM      4  C   UNL     1      -3.228  -5.700  -1.171  0.00  0.00    +0.115 C 
ATOM      5  C   UNL     1      -3.381  -4.827   0.089  0.00  0.00    -0.004 C 
ATOM      6  C   UNL     1      -4.493  -3.801  -0.112  0.00  0.00    -0.010 C 
ATOM      7  C   UNL     1      -5.837  -4.526  -0.221  0.00  0.00    -0.082 C 
ATOM      8  N   UNL     1      -6.076  -5.303   1.001  0.00  0.00    +0.379 N 
ATOM      9  C   UNL     1      -5.055  -6.349   1.138  0.00  0.00    -0.082 C 
ATOM     10  C   UNL     1      -3.678  -5.700   1.304  0.00  0.00    -0.010 C 
ATOM     11  C   UNL     1      -1.132  -7.052  -1.664  0.00  0.00    +0.251 C 
ATOM     12  O   UNL     1       0.082  -7.112  -1.614  0.00  0.00    -0.270 OA
ATOM     13  H   UNL     1      -6.037  -4.690   1.802  0.00  0.00    -0.086 HD
ATOM     14  H   UNL     1      -6.989  -5.731   0.953  0.00  0.00    -0.086 HD
ENDROOT
BRANCH  11  15
ATOM     15  C   UNL     1      -1.907  -8.213  -2.128  0.00  0.00    +0.087 A 
ATOM     16  C   UNL     1      -3.159  -8.070  -2.684  0.00  0.00    +0.063 A 
ATOM     17  S   UNL     1      -3.632  -9.637  -3.050  0.00  0.00    -0.081 S 
ATOM     18  C   UNL     1      -2.203 -10.535  -2.485  0.00  0.00    +0.120 A 
ATOM     19  C   UNL     1      -1.388  -9.558  -2.027  0.00  0.00    +0.158 A 
ATOM     20 CL   UNL     1      -1.921 -12.248  -2.521  0.00  0.00    -0.072 Cl
BRANCH  19  21
ATOM     21  O   UNL     1      -0.160  -9.825  -1.501  0.00  0.00    -0.492 OA
ATOM     22  C   UNL     1      -0.096 -10.066  -0.095  0.00  0.00    +0.277 C 
ENDBRANCH  19  21
ENDBRANCH  11  15
BRANCH   1  24
ATOM     23  N   UNL     1      -2.351  -1.900   1.307  0.00  0.00    -0.312 N 
ATOM     24  C   UNL     1      -2.203  -2.624   0.179  0.00  0.00    +0.218 C 
ATOM     25  O   UNL     1      -2.212  -2.072  -0.901  0.00  0.00    -0.275 OA
ATOM     26  H   UNL     1      -2.344  -2.342   2.171  0.00  0.00    +0.149 HD
BRANCH  23  27
ATOM     27  C   UNL     1      -2.522  -0.447   1.228  0.00  0.00    +0.148 C 
BRANCH  27  29
ATOM     28  C   UNL     1      -2.845   1.644   2.557  0.00  0.00    +0.053 C 
ATOM     29  C   UNL     1      -2.666   0.126   2.639  0.00  0.00    +0.187 C 
BRANCH  29  30
ATOM     30  O   UNL     1      -3.808  -0.454   3.274  0.00  0.00    -0.488 OA
BRANCH  30  31
ATOM     31  C   UNL     1      -3.726  -0.667   4.614  0.00  0.00    +0.121 A 
ATOM     32  C   UNL     1      -4.746  -1.336   5.274  0.00  0.00    +0.048 A 
ATOM     33  C   UNL     1      -4.662  -1.552   6.636  0.00  0.00    +0.042 A 
ATOM     34  C   UNL     1      -3.560  -1.100   7.343  0.00  0.00    +0.124 A 
ATOM     35  C   UNL     1      -2.542  -0.431   6.685  0.00  0.00    +0.042 A 
ATOM     36  C   UNL     1      -2.620  -0.220   5.322  0.00  0.00    +0.048 A 
ATOM     37  F   UNL     1      -3.479  -1.312   8.675  0.00  0.00    -0.205 F 
ENDBRANCH  30  31
ENDBRANCH  29  30
ENDBRANCH  27  29
ENDBRANCH  23  27
ENDBRANCH   1  24
TORSDOF 7
