REMARK  Name = ZINC36586407
REMARK  15 active torsions:
REMARK  status: ('A' for Active; 'I' for Inactive)
REMARK    1  A    between atoms: C_1  and  C_2
REMARK    2  A    between atoms: C_5  and  S_8
REMARK    3  A    between atoms: S_8  and  C_11
REMARK    4  A    between atoms: C_11  and  N_12
REMARK    5  A    between atoms: C_13  and  C_15
REMARK    6  A    between atoms: C_15  and  C_17
REMARK    7  A    between atoms: C_15  and  N_26
REMARK    8  A    between atoms: C_17  and  C_19
REMARK    9  A    between atoms: C_17  and  C_20
REMARK   10  A    between atoms: N_26  and  C_36
REMARK   11  A    between atoms: C_27  and  C_29
REMARK   12  A    between atoms: C_32  and  O_35
REMARK   13  A    between atoms: C_36  and  C_37
REMARK   14  A    between atoms: C_36  and  C_38
REMARK   15  A    between atoms: C_36  and  C_39
REMARK                            x       y       z     vdW  Elec       q    Type
REMARK                         _______ _______ _______ _____ _____    ______ ____
ROOT
ATOM      1  C   UNL     1       2.655  -7.582   5.239  0.00  0.00    +0.170 C 
ENDROOT
BRANCH   1   3
ATOM      2  N   UNL     1       0.849  -8.182   3.660  0.00  0.00    -0.295 N 
ATOM      3  C   UNL     1       2.134  -8.329   4.040  0.00  0.00    +0.235 C 
ATOM      4  O   UNL     1       2.870  -9.064   3.415  0.00  0.00    -0.274 OA
ATOM      5  H   UNL     1       0.243  -7.645   4.195  0.00  0.00    +0.150 HD
BRANCH   2   6
ATOM      6  C   UNL     1       0.366  -8.834   2.440  0.00  0.00    +0.278 C 
BRANCH   6   7
ATOM      7  S   UNL     1      -0.406 -10.419   2.866  0.00  0.00    +0.013 S 
ATOM      8  O   UNL     1       0.421 -11.138   3.772  0.00  0.00    -0.168 OA
ATOM      9  O   UNL     1      -0.914 -11.046   1.696  0.00  0.00    -0.168 OA
BRANCH   7  14
ATOM     10  C   UNL     1      -5.299  -8.954   6.078  0.00  0.00    +0.044 C 
ATOM     11  C   UNL     1      -4.077  -9.320   5.276  0.00  0.00    -0.050 A 
ATOM     12  C   UNL     1      -4.126  -9.302   3.894  0.00  0.00    +0.005 A 
ATOM     13  C   UNL     1      -3.005  -9.638   3.158  0.00  0.00    +0.027 A 
ATOM     14  C   UNL     1      -1.834  -9.991   3.804  0.00  0.00    +0.090 A 
ATOM     15  C   UNL     1      -1.785 -10.008   5.185  0.00  0.00    +0.027 A 
ATOM     16  C   UNL     1      -2.905  -9.668   5.921  0.00  0.00    +0.005 A 
ENDBRANCH   7  14
ENDBRANCH   6   7
ENDBRANCH   2   6
ENDBRANCH   1   3
BRANCH   1  17
ATOM     17  N   UNL     1       4.114  -7.711   5.299  0.00  0.00    -0.280 N 
ATOM     18  C   UNL     1       4.674  -8.909   5.557  0.00  0.00    +0.248 C 
ATOM     19  O   UNL     1       4.125  -9.929   5.186  0.00  0.00    -0.270 OA
BRANCH  18  20
ATOM     20  C   UNL     1       5.953  -8.984   6.289  0.00  0.00    +0.037 A 
ATOM     21  C   UNL     1       6.980  -8.082   5.998  0.00  0.00    +0.016 A 
ATOM     22  C   UNL     1       8.172  -8.154   6.683  0.00  0.00    +0.046 A 
ATOM     23  C   UNL     1       8.355  -9.123   7.663  0.00  0.00    +0.117 A 
ATOM     24  C   UNL     1       7.336 -10.022   7.955  0.00  0.00    +0.046 A 
ATOM     25  C   UNL     1       6.139  -9.952   7.278  0.00  0.00    +0.016 A 
BRANCH  23  26
ATOM     26  O   UNL     1       9.532  -9.191   8.335  0.00  0.00    -0.507 OA
ATOM     27  H   UNL     1       9.557  -8.655   9.139  0.00  0.00    +0.292 HD
ENDBRANCH  23  26
ENDBRANCH  18  20
BRANCH  17  28
ATOM     28  C   UNL     1       4.963  -6.538   5.079  0.00  0.00    +0.030 C 
ATOM     29  C   UNL     1       4.083  -5.310   4.835  0.00  0.00    +0.031 C 
ATOM     30  C   UNL     1       5.837  -6.302   6.312  0.00  0.00    +0.031 C 
ATOM     31  C   UNL     1       5.855  -6.776   3.859  0.00  0.00    +0.031 C 
ENDBRANCH  17  28
ENDBRANCH   1  17
BRANCH   1  32
ATOM     32  C   UNL     1       2.039  -8.165   6.512  0.00  0.00    +0.045 C 
ATOM     33  C   UNL     1       0.513  -8.122   6.406  0.00  0.00    +0.015 C 
BRANCH  32  34
ATOM     34  C   UNL     1       2.483  -7.355   7.703  0.00  0.00    -0.042 A 
ATOM     35  C   UNL     1       2.057  -6.048   7.846  0.00  0.00    +0.004 A 
ATOM     36  C   UNL     1       2.465  -5.304   8.938  0.00  0.00    +0.000 A 
ATOM     37  C   UNL     1       3.297  -5.868   9.887  0.00  0.00    +0.000 A 
ATOM     38  C   UNL     1       3.722  -7.176   9.744  0.00  0.00    +0.000 A 
ATOM     39  C   UNL     1       3.311  -7.920   8.654  0.00  0.00    +0.004 A 
ENDBRANCH  32  34
ENDBRANCH   1  32
TORSDOF 10
