REMARK  Name = ZINC08995016
REMARK  8 active torsions:
REMARK  status: ('A' for Active; 'I' for Inactive)
REMARK    1  A    between atoms: C_1  and  C_2
REMARK    2  A    between atoms: C_2  and  C_3
REMARK    3  A    between atoms: C_3  and  C_4
REMARK    4  A    between atoms: C_4  and  N_5
REMARK    5  A    between atoms: C_10  and  C_27
REMARK    6  A    between atoms: C_27  and  C_28
REMARK    7  A    between atoms: C_28  and  C_29
REMARK    8  A    between atoms: C_28  and  C_30
REMARK                            x       y       z     vdW  Elec       q    Type
REMARK                         _______ _______ _______ _____ _____    ______ ____
ROOT
ATOM      1  N   UNL     1      -0.067   1.120  -2.437  0.00  0.00    -0.242 N 
ATOM      2  C   UNL     1       0.931   1.817  -3.068  0.00  0.00    +0.224 C 
ATOM      3  O   UNL     1       1.621   2.701  -2.607  0.00  0.00    -0.275 OA
ATOM      4  C   UNL     1       0.984   1.241  -4.460  0.00  0.00    +0.073 C 
ATOM      5  C   UNL     1       2.335   1.057  -5.145  0.00  0.00    -0.057 C 
ATOM      6  C   UNL     1       1.121  -1.014  -5.190  0.00  0.00    +0.050 C 
ATOM      7  C   UNL     1       0.714  -0.251  -4.011  0.00  0.00    +0.088 C 
ATOM      8  C   UNL     1      -0.357  -0.068  -3.064  0.00  0.00    +0.225 C 
ATOM      9  O   UNL     1      -1.303  -0.800  -2.865  0.00  0.00    -0.275 OA
ATOM     10  C   UNL     1       0.222  -0.906  -6.388  0.00  0.00    -0.026 A 
ATOM     11  C   UNL     1      -0.311   0.155  -7.086  0.00  0.00    +0.004 A 
ATOM     12  C   UNL     1      -1.126  -0.069  -8.180  0.00  0.00    +0.002 A 
ATOM     13  C   UNL     1      -1.408  -1.365  -8.574  0.00  0.00    +0.022 A 
ATOM     14  C   UNL     1      -0.880  -2.433  -7.878  0.00  0.00    +0.062 A 
ATOM     15  C   UNL     1      -0.056  -2.214  -6.775  0.00  0.00    +0.054 A 
ATOM     16  N   UNL     1       0.587  -3.117  -5.925  0.00  0.00    -0.285 N 
ATOM     17  C   UNL     1       1.299  -2.493  -4.967  0.00  0.00    +0.211 C 
ATOM     18  O   UNL     1       1.957  -3.020  -4.095  0.00  0.00    -0.277 OA
ATOM     19 CL   UNL     1      -1.241  -4.056  -8.379  0.00  0.00    -0.082 Cl
ATOM     20  H   UNL     1       0.528  -4.081  -6.014  0.00  0.00    +0.155 HD
ATOM     21  N   UNL     1       2.437  -0.382  -5.484  0.00  0.00    +0.394 N 
ATOM     22  H   UNL     1       3.170  -0.823  -4.918  0.00  0.00    -0.083 HD
ATOM     23  H   UNL     1       2.661  -0.490  -6.480  0.00  0.00    -0.083 HD
ENDROOT
BRANCH   1  24
ATOM     24  C   UNL     1      -0.753   1.593  -1.232  0.00  0.00    +0.116 C 
BRANCH  24  25
ATOM     25  C   UNL     1      -0.013   1.086   0.008  0.00  0.00    +0.019 C 
BRANCH  25  27
ATOM     26  C   UNL     1       0.011   1.072   2.506  0.00  0.00    +0.004 C 
ATOM     27  C   UNL     1      -0.729   1.579   1.267  0.00  0.00    -0.002 C 
ENDBRANCH  25  27
ENDBRANCH  24  25
ENDBRANCH   1  24
BRANCH   5  28
ATOM     28  C   UNL     1       3.463   1.460  -4.193  0.00  0.00    -0.012 C 
BRANCH  28  29
ATOM     29  C   UNL     1       4.804   1.365  -4.922  0.00  0.00    -0.019 C 
ATOM     30  C   UNL     1       4.843   2.393  -6.054  0.00  0.00    +0.007 C 
ATOM     31  C   UNL     1       5.941   1.647  -3.938  0.00  0.00    +0.007 C 
ENDBRANCH  28  29
ENDBRANCH   5  28
TORSDOF 5
