REMARK  Name = ZINC20788919
REMARK  7 active torsions:
REMARK  status: ('A' for Active; 'I' for Inactive)
REMARK    1  A    between atoms: C_1  and  C_2
REMARK    2  A    between atoms: C_2  and  C_4
REMARK    3  A    between atoms: C_2  and  S_17
REMARK    4  A    between atoms: N_6  and  C_7
REMARK    5  A    between atoms: C_10  and  N_14
REMARK    6  A    between atoms: S_17  and  C_18
REMARK    7  A    between atoms: N_28  and  C_29
REMARK                            x       y       z     vdW  Elec       q    Type
REMARK                         _______ _______ _______ _____ _____    ______ ____
ROOT
ATOM      1  S   UNL     1       3.541  -2.672  -0.390  0.00  0.00    -0.075 S 
ENDROOT
BRANCH   1   2
ATOM      2  C   UNL     1       5.216  -3.213  -0.334  0.00  0.00    +0.177 A 
ATOM      3  N   UNL     1       6.128  -2.380   0.102  0.00  0.00    -0.223 NA
ATOM      4  C   UNL     1       7.434  -2.732   0.171  0.00  0.00    +0.079 A 
ATOM      5  C   UNL     1       8.408  -1.844   0.636  0.00  0.00    +0.028 A 
ATOM      6  C   UNL     1       9.715  -2.241   0.689  0.00  0.00    +0.002 A 
ATOM      7  C   UNL     1      10.091  -3.517   0.288  0.00  0.00    +0.001 A 
ATOM      8  C   UNL     1       9.161  -4.407  -0.172  0.00  0.00    +0.015 A 
ATOM      9  C   UNL     1       7.820  -4.029  -0.237  0.00  0.00    +0.065 A 
ATOM     10  C   UNL     1       6.778  -4.943  -0.721  0.00  0.00    +0.267 A 
ATOM     11  O   UNL     1       7.049  -6.073  -1.086  0.00  0.00    -0.267 OA
ATOM     12  N   UNL     1       5.504  -4.487  -0.742  0.00  0.00    -0.255 N 
BRANCH  12  13
ATOM     13  C   UNL     1       4.473  -5.323  -1.190  0.00  0.00    +0.052 A 
ATOM     14  C   UNL     1       3.786  -5.015  -2.356  0.00  0.00    +0.026 A 
ATOM     15  C   UNL     1       2.774  -5.845  -2.799  0.00  0.00    +0.002 A 
ATOM     16  C   UNL     1       2.438  -6.974  -2.075  0.00  0.00    +0.000 A 
ATOM     17  C   UNL     1       3.116  -7.280  -0.909  0.00  0.00    +0.002 A 
ATOM     18  C   UNL     1       4.133  -6.457  -0.465  0.00  0.00    +0.026 A 
ENDBRANCH  12  13
ENDBRANCH   1   2
BRANCH   1  20
ATOM     19  C   UNL     1       4.206  -1.040   1.698  0.00  0.00    +0.029 C 
ATOM     20  C   UNL     1       3.734  -0.987   0.244  0.00  0.00    +0.137 C 
BRANCH  20  21
ATOM     21  C   UNL     1       2.411  -0.269   0.171  0.00  0.00    +0.230 C 
ATOM     22  O   UNL     1       1.376  -0.901   0.181  0.00  0.00    -0.274 OA
ATOM     23  N   UNL     1       2.378   1.077   0.096  0.00  0.00    -0.283 N 
ATOM     24  H   UNL     1       3.316   1.646   0.019  0.00  0.00    +0.155 HD
BRANCH  23  25
ATOM     25  C   UNL     1       1.151   1.749   0.114  0.00  0.00    +0.052 A 
ATOM     26  C   UNL     1       0.035   1.177  -0.482  0.00  0.00    +0.027 A 
ATOM     27  C   UNL     1      -1.173   1.845  -0.467  0.00  0.00    +0.034 A 
ATOM     28  C   UNL     1      -1.276   3.079   0.150  0.00  0.00    +0.128 A 
ATOM     29  C   UNL     1      -0.168   3.652   0.745  0.00  0.00    +0.054 A 
ATOM     30  C   UNL     1       1.046   2.991   0.729  0.00  0.00    +0.064 A 
ATOM     31 CL   UNL     1       2.438   3.710   1.477  0.00  0.00    -0.082 Cl
BRANCH  28  32
ATOM     32  N   UNL     1      -2.574   3.790   0.168  0.00  0.00    +0.056 N 
ATOM     33  O   UNL     1      -2.665   4.878   0.707  0.00  0.00    -0.126 OA
ATOM     34  O   UNL     1      -3.552   3.286  -0.357  0.00  0.00    -0.126 OA
ENDBRANCH  28  32
ENDBRANCH  23  25
ENDBRANCH  20  21
ENDBRANCH   1  20
TORSDOF 6
