REMARK  Name = ZINC13064301
REMARK  13 active torsions:
REMARK  status: ('A' for Active; 'I' for Inactive)
REMARK    1  A    between atoms: C_1  and  C_2
REMARK    2  A    between atoms: C_2  and  C_3
REMARK    3  A    between atoms: C_3  and  C_5
REMARK    4  A    between atoms: C_3  and  N_71
REMARK    5  A    between atoms: N_9  and  C_10
REMARK    6  A    between atoms: C_10  and  C_11
REMARK    7  A    between atoms: C_14  and  O_17
REMARK    8  A    between atoms: O_17  and  C_18
REMARK    9  A    between atoms: C_19  and  C_20
REMARK   10  A    between atoms: C_19  and  N_71
REMARK   11  A    between atoms: C_25  and  O_32
REMARK   12  A    between atoms: O_32  and  C_33
REMARK   13  A    between atoms: C_34  and  N_71
REMARK                            x       y       z     vdW  Elec       q    Type
REMARK                         _______ _______ _______ _____ _____    ______ ____
ROOT
ATOM      1  N   UNL     1      -1.139   0.727   2.275  0.00  0.00    +0.391 N 
ATOM      2  H   UNL     1      -1.159   1.408   3.042  0.00  0.00    -0.080 HD
ENDROOT
BRANCH   1   3
ATOM      3  C   UNL     1      -0.069   1.103   1.327  0.00  0.00    -0.067 C 
ATOM      4  C   UNL     1      -0.459   2.392   0.562  0.00  0.00    -0.015 C 
ATOM      5  C   UNL     1       0.915   2.973   0.147  0.00  0.00    -0.002 C 
ATOM      6  C   UNL     1       1.829   2.686   1.357  0.00  0.00    -0.002 C 
ATOM      7  C   UNL     1       1.203   1.496   2.107  0.00  0.00    -0.015 C 
ENDBRANCH   1   3
BRANCH   1   8
ATOM      8  C   UNL     1      -2.448   0.736   1.589  0.00  0.00    +0.003 C 
BRANCH   8   9
ATOM      9  C   UNL     1      -2.440  -0.219   0.422  0.00  0.00    +0.138 A 
ATOM     10  N   UNL     1      -1.661  -1.262   0.270  0.00  0.00    -0.115 NA
ATOM     11  N   UNL     1      -1.959  -1.821  -0.852  0.00  0.00    -0.023 NA
ATOM     12  N   UNL     1      -2.908  -1.161  -1.419  0.00  0.00    -0.044 NA
ATOM     13  N   UNL     1      -3.236  -0.170  -0.662  0.00  0.00    -0.226 N 
BRANCH  13  14
ATOM     14  C   UNL     1      -4.277   0.825  -0.933  0.00  0.00    +0.182 C 
BRANCH  14  15
ATOM     15  C   UNL     1      -3.714   1.915  -1.809  0.00  0.00    -0.026 A 
ATOM     16  C   UNL     1      -3.219   3.072  -1.239  0.00  0.00    +0.009 A 
ATOM     17  C   UNL     1      -2.697   4.070  -2.039  0.00  0.00    +0.046 A 
ATOM     18  C   UNL     1      -2.682   3.914  -3.418  0.00  0.00    +0.120 A 
ATOM     19  C   UNL     1      -3.185   2.754  -3.988  0.00  0.00    +0.046 A 
ATOM     20  C   UNL     1      -3.700   1.757  -3.183  0.00  0.00    +0.009 A 
BRANCH  18  21
ATOM     21  O   UNL     1      -2.174   4.896  -4.208  0.00  0.00    -0.495 OA
ATOM     22  C   UNL     1      -1.673   6.063  -3.553  0.00  0.00    +0.277 C 
ENDBRANCH  18  21
ENDBRANCH  14  15
ENDBRANCH  13  14
ENDBRANCH   8   9
BRANCH   8  24
ATOM     23  C   UNL     1      -3.541   1.288   3.766  0.00  0.00    +0.002 C 
ATOM     24  C   UNL     1      -3.533   0.319   2.582  0.00  0.00    -0.011 C 
ENDBRANCH   8  24
ENDBRANCH   1   8
BRANCH   1  25
ATOM     25  C   UNL     1      -0.870  -0.616   2.832  0.00  0.00    -0.036 C 
BRANCH  25  26
ATOM     26  C   UNL     1       0.182  -0.492   3.904  0.00  0.00    +0.001 A 
ATOM     27  C   UNL     1      -0.147   0.021   5.117  0.00  0.00    +0.017 A 
ATOM     28  C   UNL     1       0.895   0.124   6.138  0.00  0.00    -0.001 A 
ATOM     29  C   UNL     1       0.615   0.641   7.409  0.00  0.00    +0.013 A 
ATOM     30  C   UNL     1       1.608   0.730   8.339  0.00  0.00    +0.046 A 
ATOM     31  C   UNL     1       2.903   0.312   8.034  0.00  0.00    +0.122 A 
ATOM     32  C   UNL     1       3.201  -0.203   6.784  0.00  0.00    +0.072 A 
ATOM     33  C   UNL     1       2.202  -0.301   5.825  0.00  0.00    +0.053 A 
ATOM     34  N   UNL     1       2.471  -0.808   4.571  0.00  0.00    -0.322 N 
ATOM     35  H   UNL     1       3.371  -1.100   4.356  0.00  0.00    +0.169 HD
ATOM     36  C   UNL     1       1.504  -0.903   3.641  0.00  0.00    +0.251 A 
ATOM     37  O   UNL     1       1.778  -1.356   2.543  0.00  0.00    -0.268 OA
BRANCH  31  38
ATOM     38  O   UNL     1       3.880   0.409   8.972  0.00  0.00    -0.495 OA
ATOM     39  C   UNL     1       3.508   0.947  10.243  0.00  0.00    +0.277 C 
ENDBRANCH  31  38
ENDBRANCH  25  26
ENDBRANCH   1  25
TORSDOF 10
