REMARK  Name = ZINC58201274
REMARK  9 active torsions:
REMARK  status: ('A' for Active; 'I' for Inactive)
REMARK    1  A    between atoms: C_1  and  C_2
REMARK    2  A    between atoms: C_2  and  N_3
REMARK    3  A    between atoms: C_6  and  N_9
REMARK    4  A    between atoms: N_9  and  C_10
REMARK    5  A    between atoms: C_11  and  C_13
REMARK    6  A    between atoms: N_24  and  S_25
REMARK    7  A    between atoms: S_25  and  N_28
REMARK    8  A    between atoms: C_30  and  C_37
REMARK    9  A    between atoms: C_33  and  C_36
REMARK                            x       y       z     vdW  Elec       q    Type
REMARK                         _______ _______ _______ _____ _____    ______ ____
ROOT
ATOM      1  C   UNL     1      -6.855  -3.909  -1.862  0.00  0.00    +0.167 C 
ATOM      2  C   UNL     1      -7.216  -4.569  -0.513  0.00  0.00    +0.035 C 
ATOM      3  C   UNL     1      -7.113  -6.091  -0.838  0.00  0.00    +0.010 C 
ATOM      4  C   UNL     1      -5.625  -6.445  -0.805  0.00  0.00    +0.005 C 
ATOM      5  C   UNL     1      -5.372  -7.779  -1.503  0.00  0.00    +0.000 C 
ATOM      6  C   UNL     1      -5.787  -7.651  -2.973  0.00  0.00    +0.002 C 
ATOM      7  C   UNL     1      -7.289  -7.374  -3.028  0.00  0.00    +0.021 C 
ATOM      8  C   UNL     1      -7.658  -6.108  -2.279  0.00  0.00    +0.085 C 
ATOM      9  N   UNL     1      -7.123  -4.899  -2.921  0.00  0.00    -0.151 NA
ENDROOT
BRANCH   1  12
ATOM     10  N   UNL     1      -4.978  -2.442  -1.197  0.00  0.00    -0.300 N 
ATOM     11  C   UNL     1      -5.921  -1.689  -0.365  0.00  0.00    +0.132 C 
ATOM     12  C   UNL     1      -5.396  -3.530  -1.873  0.00  0.00    +0.235 C 
ATOM     13  O   UNL     1      -4.599  -4.203  -2.491  0.00  0.00    -0.274 OA
BRANCH  10  17
ATOM     14  N   UNL     1      -1.523  -0.125  -0.520  0.00  0.00    +0.380 N 
ATOM     15  C   UNL     1      -2.066  -0.117  -1.884  0.00  0.00    -0.077 C 
ATOM     16  C   UNL     1      -3.521  -0.590  -1.860  0.00  0.00    +0.004 C 
ATOM     17  C   UNL     1      -3.581  -2.011  -1.293  0.00  0.00    +0.072 C 
ATOM     18  C   UNL     1      -2.945  -2.022   0.100  0.00  0.00    +0.004 C 
ATOM     19  C   UNL     1      -1.511  -1.496   0.004  0.00  0.00    -0.077 C 
ATOM     20  H   UNL     1      -2.099   0.456   0.072  0.00  0.00    -0.082 HD
BRANCH  14  22
ATOM     21  C   UNL     1      -0.177   1.872  -0.965  0.00  0.00    -0.017 C 
ATOM     22  C   UNL     1      -0.152   0.403  -0.537  0.00  0.00    -0.082 C 
ENDBRANCH  14  22
ENDBRANCH  10  17
ENDBRANCH   1  12
BRANCH   9  23
ATOM     23  S   UNL     1      -6.866  -4.686  -4.543  0.00  0.00    +0.100 S 
ATOM     24  O   UNL     1      -6.010  -3.559  -4.673  0.00  0.00    -0.141 OA
ATOM     25  O   UNL     1      -6.533  -5.961  -5.072  0.00  0.00    -0.141 OA
BRANCH  23  26
ATOM     26  N   UNL     1      -8.317  -4.258  -5.216  0.00  0.00    -0.166 NA
ATOM     27  C   UNL     1      -9.287  -5.285  -5.620  0.00  0.00    +0.113 C 
ATOM     28  C   UNL     1     -10.635  -4.979  -4.960  0.00  0.00    +0.002 C 
ATOM     29  C   UNL     1     -11.054  -3.548  -5.306  0.00  0.00    +0.009 C 
ATOM     30  C   UNL     1     -10.015  -2.565  -4.762  0.00  0.00    +0.002 C 
ATOM     31  C   UNL     1      -8.663  -2.844  -5.415  0.00  0.00    +0.113 C 
ATOM     32  C   UNL     1     -10.452  -1.133  -5.079  0.00  0.00    +0.009 C 
ATOM     33  C   UNL     1     -11.690  -5.960  -5.475  0.00  0.00    +0.009 C 
ENDBRANCH  23  26
ENDBRANCH   9  23
TORSDOF 5
