REMARK  Name = ZINC20522585
REMARK  5 active torsions:
REMARK  status: ('A' for Active; 'I' for Inactive)
REMARK    1  A    between atoms: C_4  and  C_7
REMARK    2  A    between atoms: C_7  and  N_8
REMARK    3  A    between atoms: N_11  and  C_14
REMARK    4  A    between atoms: C_14  and  N_15
REMARK    5  A    between atoms: C_19  and  N_26
REMARK                            x       y       z     vdW  Elec       q    Type
REMARK                         _______ _______ _______ _____ _____    ______ ____
ROOT
ATOM      1  C   UNL     1      -0.800   1.987  -1.118  0.00  0.00    +0.201 C 
ENDROOT
BRANCH   1   2
ATOM      2  N   UNL     1      -1.304   3.323  -0.787  0.00  0.00    -0.251 N 
ATOM      3  C   UNL     1      -2.529   3.568  -0.172  0.00  0.00    +0.049 A 
ATOM      4  C   UNL     1      -3.523   2.706   0.273  0.00  0.00    +0.026 A 
ATOM      5  C   UNL     1      -4.664   3.208   0.869  0.00  0.00    +0.034 A 
ATOM      6  C   UNL     1      -4.833   4.573   1.035  0.00  0.00    +0.127 A 
ATOM      7  C   UNL     1      -3.856   5.448   0.605  0.00  0.00    +0.046 A 
ATOM      8  C   UNL     1      -2.700   4.951   0.003  0.00  0.00    +0.051 A 
ATOM      9  C   UNL     1      -1.497   5.598  -0.553  0.00  0.00    +0.250 C 
ATOM     10  O   UNL     1      -1.251   6.785  -0.603  0.00  0.00    -0.282 OA
ATOM     11  C   UNL     1      -0.645   4.466  -1.044  0.00  0.00    +0.292 C 
ATOM     12  O   UNL     1       0.441   4.564  -1.576  0.00  0.00    -0.266 OA
BRANCH   6  13
ATOM     13  N   UNL     1      -6.062   5.093   1.675  0.00  0.00    +0.056 N 
ATOM     14  O   UNL     1      -6.211   6.293   1.822  0.00  0.00    -0.126 OA
ATOM     15  O   UNL     1      -6.924   4.322   2.055  0.00  0.00    -0.126 OA
ENDBRANCH   6  13
ENDBRANCH   1   2
BRANCH   1  19
ATOM     16  N   UNL     1       2.123   0.034   1.224  0.00  0.00    +0.384 N 
ATOM     17  C   UNL     1       0.757  -0.508   1.234  0.00  0.00    -0.063 C 
ATOM     18  C   UNL     1       0.002  -0.004   0.002  0.00  0.00    +0.067 C 
ATOM     19  N   UNL     1      -0.018   1.465   0.010  0.00  0.00    -0.290 NA
ATOM     20  C   UNL     1       1.348   2.008   0.000  0.00  0.00    +0.067 C 
ATOM     21  C   UNL     1       2.103   1.504   1.232  0.00  0.00    -0.063 C 
ATOM     22  H   UNL     1       2.612  -0.294   0.295  0.00  0.00    -0.081 HD
BRANCH  16  23
ATOM     23  C   UNL     1       2.905  -0.488   2.352  0.00  0.00    -0.043 C 
BRANCH  23  27
ATOM     24  C   UNL     1       6.591   1.653   2.642  0.00  0.00    +0.000 A 
ATOM     25  C   UNL     1       5.475   2.102   3.324  0.00  0.00    +0.000 A 
ATOM     26  C   UNL     1       4.282   1.409   3.230  0.00  0.00    +0.002 A 
ATOM     27  C   UNL     1       4.205   0.267   2.455  0.00  0.00    -0.064 A 
ATOM     28  C   UNL     1       5.323  -0.185   1.778  0.00  0.00    +0.002 A 
ATOM     29  C   UNL     1       6.514   0.510   1.868  0.00  0.00    +0.000 A 
ENDBRANCH  23  27
ENDBRANCH  16  23
ENDBRANCH   1  19
TORSDOF 5
