REMARK  Name = ZINC63139123
REMARK  6 active torsions:
REMARK  status: ('A' for Active; 'I' for Inactive)
REMARK    1  A    between atoms: C_1  and  O_2
REMARK    2  A    between atoms: O_2  and  C_3
REMARK    3  A    between atoms: C_6  and  C_9
REMARK    4  A    between atoms: N_28  and  C_31
REMARK    5  A    between atoms: C_31  and  C_32
REMARK    6  A    between atoms: C_32  and  C_33
REMARK                            x       y       z     vdW  Elec       q    Type
REMARK                         _______ _______ _______ _____ _____    ______ ____
ROOT
ATOM      1  C   UNL     1       2.505  -2.503  -4.381  0.00  0.00    +0.133 C 
ATOM      2  C   UNL     1       3.950  -2.858  -4.021  0.00  0.00    +0.131 C 
ATOM      3  C   UNL     1       4.471  -3.760  -5.133  0.00  0.00    -0.034 C 
ATOM      4  C   UNL     1       5.573  -3.184  -5.598  0.00  0.00    -0.001 A 
ATOM      5  C   UNL     1       6.547  -3.612  -6.615  0.00  0.00    +0.010 A 
ATOM      6  C   UNL     1       7.574  -2.755  -6.859  0.00  0.00    +0.001 A 
ATOM      7  C   UNL     1       7.726  -1.530  -6.201  0.00  0.00    +0.002 A 
ATOM      8  C   UNL     1       6.882  -1.060  -5.249  0.00  0.00    +0.026 A 
ATOM      9  C   UNL     1       5.765  -1.875  -4.902  0.00  0.00    +0.043 A 
ATOM     10  N   UNL     1       4.816  -1.678  -4.007  0.00  0.00    -0.375 N 
ATOM     11  C   UNL     1       3.734  -4.999  -5.580  0.00  0.00    +0.065 C 
ATOM     12  C   UNL     1       2.273  -4.578  -5.824  0.00  0.00    +0.167 C 
ATOM     13  N   UNL     1       1.800  -3.762  -4.711  0.00  0.00    -0.279 N 
ATOM     14  C   UNL     1       0.746  -4.105  -3.961  0.00  0.00    +0.234 C 
ATOM     15  O   UNL     1       0.444  -3.370  -3.045  0.00  0.00    -0.274 OA
ATOM     16  C   UNL     1      -0.085  -5.327  -4.173  0.00  0.00    +0.203 C 
ATOM     17  N   UNL     1       0.375  -6.115  -5.303  0.00  0.00    -0.291 N 
ATOM     18  C   UNL     1       1.431  -5.790  -6.047  0.00  0.00    +0.237 C 
ATOM     19  O   UNL     1       1.725  -6.524  -6.967  0.00  0.00    -0.274 OA
ATOM     20  H   UNL     1       4.701  -0.897  -3.442  0.00  0.00    +0.160 HD
ENDROOT
BRANCH   1  24
ATOM     21  C   UNL     1       0.606  -0.607  -1.056  0.00  0.00    +0.120 A 
ATOM     22  C   UNL     1       0.254  -0.254  -2.350  0.00  0.00    +0.046 A 
ATOM     23  C   UNL     1       0.870  -0.868  -3.424  0.00  0.00    +0.009 A 
ATOM     24  C   UNL     1       1.835  -1.835  -3.209  0.00  0.00    -0.025 A 
ATOM     25  C   UNL     1       2.187  -2.189  -1.919  0.00  0.00    +0.009 A 
ATOM     26  C   UNL     1       1.579  -1.573  -0.842  0.00  0.00    +0.046 A 
BRANCH  21  28
ATOM     27  C   UNL     1      -0.990   0.981  -0.292  0.00  0.00    +0.277 C 
ATOM     28  O   UNL     1       0.002  -0.004   0.002  0.00  0.00    -0.495 OA
ENDBRANCH  21  28
ENDBRANCH   1  24
BRANCH  17  29
ATOM     29  C   UNL     1      -0.361  -7.336  -5.641  0.00  0.00    +0.112 C 
BRANCH  29  30
ATOM     30  C   UNL     1      -1.473  -7.002  -6.637  0.00  0.00    +0.049 C 
BRANCH  30  31
ATOM     31  C   UNL     1      -2.230  -8.258  -6.985  0.00  0.00    -0.072 C 
ATOM     32  C   UNL     1      -3.313  -8.516  -6.324  0.00  0.00    -0.028 C 
ATOM     33  C   UNL     1      -4.166  -9.731  -6.550  0.00  0.00    +0.027 C 
ATOM     34  C   UNL     1      -3.833 -10.365  -7.902  0.00  0.00    +0.004 C 
ATOM     35  C   UNL     1      -2.310 -10.524  -8.001  0.00  0.00    +0.005 C 
ATOM     36  C   UNL     1      -1.685  -9.128  -8.079  0.00  0.00    +0.030 C 
ENDBRANCH  30  31
ENDBRANCH  29  30
ENDBRANCH  17  29
TORSDOF 5
