REMARK  Name = ZINC03257957
REMARK  12 active torsions:
REMARK  status: ('A' for Active; 'I' for Inactive)
REMARK    1  A    between atoms: C_1  and  C_2
REMARK    2  A    between atoms: C_2  and  N_3
REMARK    3  A    between atoms: N_3  and  C_4
REMARK    4  A    between atoms: N_3  and  S_6
REMARK    5  A    between atoms: C_4  and  C_5
REMARK    6  A    between atoms: S_6  and  C_9
REMARK    7  A    between atoms: C_13  and  C_15
REMARK    8  A    between atoms: N_17  and  C_18
REMARK    9  A    between atoms: C_18  and  C_20
REMARK   10  A    between atoms: C_18  and  C_21
REMARK   11  A    between atoms: C_21  and  C_23
REMARK   12  A    between atoms: C_21  and  N_28
REMARK                            x       y       z     vdW  Elec       q    Type
REMARK                         _______ _______ _______ _____ _____    ______ ____
ROOT
ATOM      1  C   UNL     1       4.759   2.314   4.511  0.00  0.00    +0.246 C 
ATOM      2  O   UNL     1       5.284   3.364   4.829  0.00  0.00    -0.270 OA
ATOM      3  N   UNL     1       4.357   1.446   5.460  0.00  0.00    -0.310 N 
ATOM      4  H   UNL     1       3.938   0.609   5.206  0.00  0.00    +0.149 HD
ENDROOT
BRANCH   1   9
ATOM      5  C   UNL     1       3.777   0.491   1.379  0.00  0.00    +0.106 A 
ATOM      6  C   UNL     1       4.190   1.384   0.405  0.00  0.00    +0.030 A 
ATOM      7  C   UNL     1       4.787   2.578   0.762  0.00  0.00    +0.022 A 
ATOM      8  C   UNL     1       4.976   2.888   2.095  0.00  0.00    +0.053 A 
ATOM      9  C   UNL     1       4.561   1.991   3.082  0.00  0.00    +0.057 A 
ATOM     10  C   UNL     1       3.953   0.789   2.713  0.00  0.00    +0.043 A 
ATOM     11 CL   UNL     1       5.727   4.388   2.543  0.00  0.00    -0.083 Cl
BRANCH   5  12
ATOM     12  S   UNL     1       3.017  -1.029   0.911  0.00  0.00    +0.061 S 
ATOM     13  O   UNL     1       3.210  -1.929   1.993  0.00  0.00    -0.153 OA
ATOM     14  O   UNL     1       3.461  -1.316  -0.408  0.00  0.00    -0.153 OA
BRANCH  12  15
ATOM     15  N   UNL     1       1.387  -0.751   0.812  0.00  0.00    -0.177 NA
BRANCH  15  17
ATOM     16  C   UNL     1       0.685   1.210  -0.470  0.00  0.00    +0.022 C 
ATOM     17  C   UNL     1       0.794  -0.316  -0.455  0.00  0.00    +0.106 C 
ENDBRANCH  15  17
BRANCH  15  18
ATOM     18  C   UNL     1       0.539  -0.940   1.991  0.00  0.00    +0.106 C 
ATOM     19  C   UNL     1      -0.069  -2.344   1.962  0.00  0.00    +0.022 C 
ENDBRANCH  15  18
ENDBRANCH  12  15
ENDBRANCH   5  12
ENDBRANCH   1   9
BRANCH   3  20
ATOM     20  C   UNL     1       4.553   1.767   6.876  0.00  0.00    +0.061 C 
ATOM     21  C   UNL     1       3.368   2.591   7.381  0.00  0.00    +0.026 C 
BRANCH  20  22
ATOM     22  C   UNL     1       4.655   0.472   7.683  0.00  0.00    -0.010 C 
BRANCH  22  23
ATOM     23  N   UNL     1       4.795   0.793   9.110  0.00  0.00    +0.386 N 
ATOM     24  C   UNL     1       4.968  -0.452   9.901  0.00  0.00    -0.078 C 
ATOM     25  C   UNL     1       5.645   0.045  11.202  0.00  0.00    -0.020 C 
ATOM     26  C   UNL     1       6.600   1.150  10.694  0.00  0.00    -0.020 C 
ATOM     27  C   UNL     1       6.023   1.587   9.335  0.00  0.00    -0.078 C 
ATOM     28  H   UNL     1       3.987   1.303   9.433  0.00  0.00    -0.081 HD
ENDBRANCH  22  23
BRANCH  22  29
ATOM     29  C   UNL     1       3.409  -0.350   7.474  0.00  0.00    -0.022 A 
ATOM     30  C   UNL     1       3.216  -1.417   6.661  0.00  0.00    +0.009 A 
ATOM     31  C   UNL     1       1.974  -2.022   6.631  0.00  0.00    +0.008 A 
ATOM     32  C   UNL     1       0.984  -1.529   7.415  0.00  0.00    +0.045 A 
ATOM     33  S   UNL     1       1.805  -0.174   8.238  0.00  0.00    -0.103 S 
ENDBRANCH  22  29
ENDBRANCH  20  22
ENDBRANCH   3  20
TORSDOF 9
