REMARK  Name = ZINC04856610
REMARK  8 active torsions:
REMARK  status: ('A' for Active; 'I' for Inactive)
REMARK    1  A    between atoms: C_1  and  C_2
REMARK    2  A    between atoms: C_2  and  C_3
REMARK    3  A    between atoms: C_2  and  C_4
REMARK    4  A    between atoms: C_4  and  C_6
REMARK    5  A    between atoms: C_4  and  N_53
REMARK    6  A    between atoms: N_10  and  C_11
REMARK    7  A    between atoms: C_11  and  C_12
REMARK    8  A    between atoms: N_19  and  C_22
REMARK                            x       y       z     vdW  Elec       q    Type
REMARK                         _______ _______ _______ _____ _____    ______ ____
ROOT
ATOM      1  C   UNL     1       1.703   7.538  -1.029  0.00  0.00    +0.005 C 
ENDROOT
BRANCH   1   7
ATOM      2  C   UNL     1       1.246   5.215  -0.519  0.00  0.00    -0.059 C 
ATOM      3  C   UNL     1       0.647   3.922  -1.079  0.00  0.00    +0.086 C 
ATOM      4  N   UNL     1      -0.775   4.135  -1.379  0.00  0.00    -0.333 N 
ATOM      5  C   UNL     1      -0.948   5.216  -2.359  0.00  0.00    +0.086 C 
ATOM      6  C   UNL     1      -0.349   6.509  -1.799  0.00  0.00    -0.059 C 
ATOM      7  N   UNL     1       1.086   6.288  -1.522  0.00  0.00    +0.389 N 
ATOM      8  H   UNL     1       1.554   6.005  -2.391  0.00  0.00    -0.081 HD
BRANCH   4   9
ATOM      9  C   UNL     1      -1.375   2.953  -1.826  0.00  0.00    +0.030 A 
ATOM     10  C   UNL     1      -2.722   2.942  -2.164  0.00  0.00    +0.026 A 
ATOM     11  C   UNL     1      -3.312   1.773  -2.606  0.00  0.00    +0.040 A 
ATOM     12  C   UNL     1      -2.561   0.615  -2.712  0.00  0.00    +0.124 A 
ATOM     13  C   UNL     1      -1.218   0.624  -2.375  0.00  0.00    +0.040 A 
ATOM     14  C   UNL     1      -0.624   1.790  -1.933  0.00  0.00    +0.026 A 
ATOM     15  F   UNL     1      -3.141  -0.527  -3.144  0.00  0.00    -0.205 F 
ENDBRANCH   4   9
ENDBRANCH   1   7
BRANCH   1  16
ATOM     16  C   UNL     1       0.992   8.026   0.206  0.00  0.00    +0.139 A 
ATOM     17  N   UNL     1      -0.268   8.380   0.296  0.00  0.00    -0.115 NA
ATOM     18  N   UNL     1      -0.496   8.734   1.513  0.00  0.00    -0.023 NA
ATOM     19  N   UNL     1       0.587   8.623   2.201  0.00  0.00    -0.044 NA
ATOM     20  N   UNL     1       1.527   8.189   1.431  0.00  0.00    -0.223 N 
BRANCH  20  21
ATOM     21  C   UNL     1       2.915   7.925   1.816  0.00  0.00    +0.221 C 
BRANCH  21  22
ATOM     22  C   UNL     1       3.707   9.206   1.752  0.00  0.00    +0.126 A 
ATOM     23  C   UNL     1       3.788  10.130   2.726  0.00  0.00    +0.046 A 
ATOM     24  C   UNL     1       4.632  11.158   2.247  0.00  0.00    +0.041 A 
ATOM     25  C   UNL     1       5.009  10.805   1.004  0.00  0.00    +0.195 A 
ATOM     26  O   UNL     1       4.445   9.622   0.710  0.00  0.00    -0.466 OA
ENDBRANCH  21  22
ENDBRANCH  20  21
ENDBRANCH   1  16
BRANCH   1  28
ATOM     27  C   UNL     1       2.360   9.859  -1.677  0.00  0.00    +0.006 C 
ATOM     28  C   UNL     1       1.612   8.602  -2.124  0.00  0.00    -0.024 C 
ATOM     29  C   UNL     1       2.242   8.064  -3.411  0.00  0.00    +0.006 C 
ENDBRANCH   1  28
TORSDOF 6
