REMARK  Name = ZINC58614128
REMARK  10 active torsions:
REMARK  status: ('A' for Active; 'I' for Inactive)
REMARK    1  A    between atoms: C_1  and  C_2
REMARK    2  A    between atoms: C_4  and  C_33
REMARK    3  A    between atoms: C_6  and  O_8
REMARK    4  A    between atoms: O_8  and  C_9
REMARK    5  A    between atoms: C_9  and  C_10
REMARK    6  A    between atoms: C_10  and  C_12
REMARK    7  A    between atoms: C_10  and  O_32
REMARK    8  A    between atoms: C_12  and  N_13
REMARK    9  A    between atoms: N_16  and  C_19
REMARK   10  A    between atoms: C_19  and  C_20
REMARK                            x       y       z     vdW  Elec       q    Type
REMARK                         _______ _______ _______ _____ _____    ______ ____
ROOT
ATOM      1  N   UNL     1       0.336  -3.119   7.124  0.00  0.00    -0.303 NA
ATOM      2  C   UNL     1      -0.860  -3.967   7.227  0.00  0.00    +0.066 C 
ATOM      3  C   UNL     1      -0.639  -5.026   8.309  0.00  0.00    -0.063 C 
ATOM      4  N   UNL     1      -0.375  -4.365   9.594  0.00  0.00    +0.386 N 
ATOM      5  C   UNL     1       0.836  -3.542   9.483  0.00  0.00    -0.063 C 
ATOM      6  C   UNL     1       0.628  -2.470   8.410  0.00  0.00    +0.066 C 
ATOM      7  H   UNL     1      -1.159  -3.779   9.838  0.00  0.00    -0.081 HD
ENDROOT
BRANCH   1   8
ATOM      8  C   UNL     1       0.185  -2.124   6.054  0.00  0.00    +0.119 C 
BRANCH   8   9
ATOM      9  C   UNL     1       1.564  -1.602   5.645  0.00  0.00    +0.166 C 
BRANCH   9  10
ATOM     10  O   UNL     1       2.360  -2.687   5.163  0.00  0.00    -0.387 OA
ATOM     11  H   UNL     1       1.986  -3.138   4.394  0.00  0.00    +0.210 HD
ENDBRANCH   9  10
BRANCH   9  12
ATOM     12  C   UNL     1       1.406  -0.555   4.541  0.00  0.00    +0.261 C 
BRANCH  12  13
ATOM     13  O   UNL     1       2.681   0.016   4.240  0.00  0.00    -0.489 OA
BRANCH  13  19
ATOM     14  C   UNL     1       0.320   2.731   0.942  0.00  0.00    +0.044 C 
ATOM     15  C   UNL     1       1.588   2.319   1.644  0.00  0.00    -0.047 A 
ATOM     16  C   UNL     1       2.790   2.913   1.304  0.00  0.00    +0.007 A 
ATOM     17  C   UNL     1       3.955   2.537   1.947  0.00  0.00    -0.047 A 
ATOM     18  C   UNL     1       3.921   1.567   2.930  0.00  0.00    +0.049 A 
ATOM     19  C   UNL     1       2.717   0.970   3.273  0.00  0.00    +0.121 A 
ATOM     20  C   UNL     1       1.548   1.353   2.631  0.00  0.00    +0.049 A 
ATOM     21  C   UNL     1       5.263   3.186   1.575  0.00  0.00    +0.044 C 
ENDBRANCH  13  19
ENDBRANCH  12  13
ENDBRANCH   9  12
ENDBRANCH   8   9
ENDBRANCH   1   8
BRANCH   4  22
ATOM     22  C   UNL     1      -0.181  -5.382  10.637  0.00  0.00    -0.003 C 
BRANCH  22  23
ATOM     23  C   UNL     1      -0.032  -4.707  11.976  0.00  0.00    +0.094 A 
ATOM     24  N   UNL     1       0.163  -5.485  13.072  0.00  0.00    -0.312 N 
ATOM     25  H   UNL     1       0.202  -6.449  12.976  0.00  0.00    +0.170 HD
ATOM     26  C   UNL     1       0.303  -4.927  14.297  0.00  0.00    +0.259 A 
ATOM     27  O   UNL     1       0.478  -5.612  15.287  0.00  0.00    -0.267 OA
ATOM     28  C   UNL     1       0.235  -3.461  14.385  0.00  0.00    +0.065 A 
ATOM     29  C   UNL     1       0.367  -2.788  15.598  0.00  0.00    +0.015 A 
ATOM     30  C   UNL     1       0.295  -1.413  15.622  0.00  0.00    +0.001 A 
ATOM     31  C   UNL     1       0.092  -0.695  14.451  0.00  0.00    +0.002 A 
ATOM     32  C   UNL     1      -0.041  -1.340  13.242  0.00  0.00    +0.028 A 
ATOM     33  C   UNL     1       0.029  -2.734  13.191  0.00  0.00    +0.078 A 
ATOM     34  N   UNL     1      -0.091  -3.410  12.021  0.00  0.00    -0.236 NA
ENDBRANCH  22  23
ENDBRANCH   4  22
TORSDOF 8
