REMARK  Name = ZINC42360728
REMARK  3 active torsions:
REMARK  status: ('A' for Active; 'I' for Inactive)
REMARK    1  A    between atoms: C_6  and  S_7
REMARK    2  A    between atoms: S_7  and  N_10
REMARK    3  A    between atoms: C_13  and  C_16
REMARK                            x       y       z     vdW  Elec       q    Type
REMARK                         _______ _______ _______ _____ _____    ______ ____
ROOT
ATOM      1  S   UNL     1      -1.505  -0.916   0.011  0.00  0.00    +0.103 S 
ATOM      2  O   UNL     1      -1.203  -2.195   0.553  0.00  0.00    -0.146 OA
ATOM      3  O   UNL     1      -2.492  -0.064   0.576  0.00  0.00    -0.146 OA
ENDROOT
BRANCH   1   9
ATOM      4  C   UNL     1      -0.017   1.383   0.010  0.00  0.00    +0.033 A 
ATOM      5  C   UNL     1       1.193   2.059   0.002  0.00  0.00    +0.042 A 
ATOM      6  C   UNL     1       2.371   1.333  -0.013  0.00  0.00    +0.129 A 
ATOM      7  N   UNL     1       2.350   0.014  -0.021  0.00  0.00    -0.242 NA
ATOM      8  C   UNL     1       1.217  -0.662  -0.014  0.00  0.00    +0.141 A 
ATOM      9  C   UNL     1       0.002  -0.004   0.002  0.00  0.00    +0.131 A 
ATOM     10 CL   UNL     1       3.893   2.168  -0.024  0.00  0.00    -0.062 Cl
ENDBRANCH   1   9
BRANCH   1  11
ATOM     11  N   UNL     1      -1.939  -1.161  -1.568  0.00  0.00    -0.103 NA
ATOM     12  C   UNL     1      -3.035  -1.821  -1.851  0.00  0.00    +0.192 A 
ATOM     13  N   UNL     1      -3.571  -2.139  -3.081  0.00  0.00    -0.336 N 
ATOM     14  C   UNL     1      -4.738  -2.843  -3.120  0.00  0.00    +0.028 A 
ATOM     15  C   UNL     1      -5.338  -3.210  -1.987  0.00  0.00    +0.070 A 
ATOM     16  S   UNL     1      -4.231  -2.558  -0.747  0.00  0.00    -0.057 S 
ATOM     17  H   UNL     1      -3.128  -1.867  -3.900  0.00  0.00    +0.168 HD
BRANCH  14  18
ATOM     18  C   UNL     1      -5.352  -3.207  -4.447  0.00  0.00    +0.036 C 
ATOM     19  C   UNL     1      -4.735  -2.590  -5.704  0.00  0.00    +0.010 C 
ATOM     20  C   UNL     1      -4.522  -4.073  -5.396  0.00  0.00    +0.010 C 
ENDBRANCH  14  18
ENDBRANCH   1  11
TORSDOF 3
