REMARK  Name = ZINC12518065
REMARK  8 active torsions:
REMARK  status: ('A' for Active; 'I' for Inactive)
REMARK    1  A    between atoms: C_1  and  C_2
REMARK    2  A    between atoms: C_2  and  N_3
REMARK    3  A    between atoms: C_9  and  C_15
REMARK    4  A    between atoms: C_10  and  C_14
REMARK    5  A    between atoms: C_11  and  C_13
REMARK    6  A    between atoms: N_16  and  C_29
REMARK    7  A    between atoms: N_19  and  C_22
REMARK    8  A    between atoms: C_22  and  C_23
REMARK                            x       y       z     vdW  Elec       q    Type
REMARK                         _______ _______ _______ _____ _____    ______ ____
ROOT
ATOM      1  N   UNL     1      -0.749   3.044   1.275  0.00  0.00    -0.303 N 
ATOM      2  C   UNL     1       0.206   3.879   1.831  0.00  0.00    +0.153 A 
ATOM      3  C   UNL     1      -0.228   5.179   1.597  0.00  0.00    +0.170 A 
ATOM      4  N   UNL     1      -1.388   5.101   0.942  0.00  0.00    -0.192 NA
ATOM      5  C   UNL     1      -1.706   3.840   0.746  0.00  0.00    +0.235 A 
ATOM      6  N   UNL     1      -2.849   3.394   0.095  0.00  0.00    -0.203 N 
ATOM      7  C   UNL     1      -3.822   4.177  -0.443  0.00  0.00    +0.048 A 
ATOM      8  C   UNL     1      -4.755   3.359  -0.980  0.00  0.00    -0.007 A 
ATOM      9  C   UNL     1      -4.345   2.037  -0.766  0.00  0.00    +0.064 A 
ATOM     10  N   UNL     1      -3.203   2.057  -0.129  0.00  0.00    -0.169 NA
ATOM     11  C   UNL     1      -5.090   0.801  -1.201  0.00  0.00    +0.068 C 
ATOM     12  C   UNL     1      -6.014   3.793  -1.685  0.00  0.00    +0.047 C 
ATOM     13  C   UNL     1      -3.854   5.684  -0.442  0.00  0.00    +0.066 C 
ATOM     14  N   UNL     1       0.548   6.234   2.050  0.00  0.00    -0.279 N 
ATOM     15  C   UNL     1       1.702   5.992   2.699  0.00  0.00    +0.334 A 
ATOM     16  O   UNL     1       2.371   6.930   3.089  0.00  0.00    -0.246 OA
ATOM     17  N   UNL     1       2.135   4.740   2.926  0.00  0.00    -0.255 N 
ATOM     18  C   UNL     1       1.423   3.672   2.510  0.00  0.00    +0.283 A 
ATOM     19  O   UNL     1       1.826   2.542   2.722  0.00  0.00    -0.265 OA
ATOM     20  C   UNL     1       0.111   7.614   1.822  0.00  0.00    +0.155 C 
ENDROOT
BRANCH   1  22
ATOM     21  C   UNL     1      -0.013   1.086   0.008  0.00  0.00    +0.027 C 
ATOM     22  C   UNL     1      -0.729   1.579   1.267  0.00  0.00    +0.122 C 
ENDBRANCH   1  22
BRANCH  17  23
ATOM     23  C   UNL     1       3.399   4.531   3.637  0.00  0.00    +0.165 C 
BRANCH  23  24
ATOM     24  C   UNL     1       3.133   4.443   5.118  0.00  0.00    -0.028 A 
ATOM     25  C   UNL     1       3.159   5.587   5.894  0.00  0.00    +0.005 A 
ATOM     26  C   UNL     1       2.911   5.507   7.252  0.00  0.00    +0.000 A 
ATOM     27  C   UNL     1       2.647   4.282   7.835  0.00  0.00    +0.000 A 
ATOM     28  C   UNL     1       2.627   3.138   7.060  0.00  0.00    +0.000 A 
ATOM     29  C   UNL     1       2.870   3.218   5.702  0.00  0.00    +0.005 A 
ENDBRANCH  23  24
ENDBRANCH  17  23
TORSDOF 3
