REMARK  Name = ZINC01823982
REMARK  10 active torsions:
REMARK  status: ('A' for Active; 'I' for Inactive)
REMARK    1  A    between atoms: C_1  and  C_2
REMARK    2  A    between atoms: C_2  and  O_3
REMARK    3  A    between atoms: O_3  and  C_4
REMARK    4  A    between atoms: C_4  and  C_6
REMARK    5  A    between atoms: C_7  and  C_36
REMARK    6  A    between atoms: C_14  and  C_15
REMARK    7  A    between atoms: C_20  and  O_21
REMARK    8  A    between atoms: O_21  and  C_22
REMARK    9  A    between atoms: C_22  and  C_24
REMARK   10  A    between atoms: C_27  and  C_29
REMARK                            x       y       z     vdW  Elec       q    Type
REMARK                         _______ _______ _______ _____ _____    ______ ____
ROOT
ATOM      1  C   UNL     1      -2.657  -2.730  -0.509  0.00  0.00    +0.085 C 
ATOM      2  C   UNL     1      -2.858  -4.080  -0.584  0.00  0.00    +0.053 C 
ATOM      3  N   UNL     1      -4.079  -4.587  -0.479  0.00  0.00    -0.228 NA
ATOM      4  C   UNL     1      -5.168  -3.883  -0.301  0.00  0.00    +0.178 A 
ATOM      5  N   UNL     1      -5.190  -2.511  -0.198  0.00  0.00    -0.275 N 
ATOM      6  C   UNL     1      -6.367  -1.899  -0.017  0.00  0.00    +0.268 A 
ATOM      7  O   UNL     1      -6.436  -0.688   0.079  0.00  0.00    -0.266 OA
ATOM      8  C   UNL     1      -7.574  -2.734   0.063  0.00  0.00    +0.081 A 
ATOM      9  C   UNL     1      -8.869  -2.365   0.241  0.00  0.00    +0.032 C 
ATOM     10  S   UNL     1      -6.876  -4.366  -0.137  0.00  0.00    -0.046 S 
ATOM     11  C   UNL     1      -3.862  -1.843  -0.298  0.00  0.00    +0.163 C 
ATOM     12  C   UNL     1      -1.682  -5.000  -0.788  0.00  0.00    +0.066 C 
ENDROOT
BRANCH   9  13
ATOM     13  C   UNL     1      -9.905  -3.388   0.427  0.00  0.00    +0.020 A 
ATOM     14  C   UNL     1      -9.550  -4.690   0.801  0.00  0.00    +0.027 A 
ATOM     15  C   UNL     1     -10.529  -5.645   0.975  0.00  0.00    +0.019 A 
ATOM     16  C   UNL     1     -11.863  -5.323   0.780  0.00  0.00    +0.019 A 
ATOM     17  C   UNL     1     -12.227  -4.042   0.410  0.00  0.00    +0.048 A 
ATOM     18  C   UNL     1     -11.259  -3.066   0.237  0.00  0.00    +0.139 A 
ATOM     19 BR   UNL     1     -10.049  -7.403   1.480  0.00  0.00    -0.050 Br
BRANCH  18  20
ATOM     20  O   UNL     1     -11.617  -1.806  -0.119  0.00  0.00    -0.425 OA
BRANCH  20  21
ATOM     21  C   UNL     1     -11.546  -1.475  -1.419  0.00  0.00    +0.309 C 
ATOM     22  O   UNL     1     -11.264  -2.313  -2.242  0.00  0.00    -0.251 OA
ATOM     23  C   UNL     1     -11.818  -0.057  -1.851  0.00  0.00    +0.136 C 
ENDBRANCH  20  21
ENDBRANCH  18  20
ENDBRANCH   9  13
BRANCH  11  24
ATOM     24  C   UNL     1      -3.640  -1.052   0.966  0.00  0.00    -0.002 A 
ATOM     25  C   UNL     1      -4.119  -1.528   2.172  0.00  0.00    +0.007 A 
ATOM     26  C   UNL     1      -3.915  -0.804   3.332  0.00  0.00    +0.000 A 
ATOM     27  C   UNL     1      -3.232   0.398   3.286  0.00  0.00    +0.001 A 
ATOM     28  C   UNL     1      -2.753   0.875   2.080  0.00  0.00    +0.020 A 
ATOM     29  C   UNL     1      -2.952   0.147   0.920  0.00  0.00    +0.046 A 
ATOM     30 CL   UNL     1      -2.345   0.742  -0.593  0.00  0.00    -0.083 Cl
ENDBRANCH  11  24
BRANCH   1  31
ATOM     31  C   UNL     1      -1.368  -2.184  -0.619  0.00  0.00    +0.339 C 
ATOM     32  O   UNL     1      -0.999  -1.702  -1.676  0.00  0.00    -0.245 OA
BRANCH  31  33
ATOM     33  O   UNL     1      -0.538  -2.192   0.446  0.00  0.00    -0.462 OA
BRANCH  33  35
ATOM     34  C   UNL     1       1.550  -1.719   1.568  0.00  0.00    +0.048 C 
ATOM     35  C   UNL     1       0.759  -1.619   0.262  0.00  0.00    +0.229 C 
ENDBRANCH  33  35
ENDBRANCH  31  33
ENDBRANCH   1  31
TORSDOF 7
