REMARK  Name = ZINC00933309
REMARK  9 active torsions:
REMARK  status: ('A' for Active; 'I' for Inactive)
REMARK    1  A    between atoms: C_5  and  C_7
REMARK    2  A    between atoms: C_7  and  N_8
REMARK    3  A    between atoms: N_8  and  C_9
REMARK    4  A    between atoms: N_8  and  S_17
REMARK    5  A    between atoms: C_9  and  C_10
REMARK    6  A    between atoms: S_17  and  C_20
REMARK    7  A    between atoms: C_23  and  S_26
REMARK    8  A    between atoms: S_26  and  N_29
REMARK    9  A    between atoms: N_29  and  C_30
REMARK                            x       y       z     vdW  Elec       q    Type
REMARK                         _______ _______ _______ _____ _____    ______ ____
ROOT
ATOM      1  S   UNL     1       4.134   1.157  -5.548  0.00  0.00    +0.061 S 
ATOM      2  O   UNL     1       4.525  -0.195  -5.745  0.00  0.00    -0.153 OA
ATOM      3  O   UNL     1       3.223   1.820  -6.413  0.00  0.00    -0.153 OA
ENDROOT
BRANCH   1   4
ATOM      4  C   UNL     1       3.450   1.252  -3.927  0.00  0.00    +0.106 A 
ATOM      5  C   UNL     1       2.470   2.184  -3.644  0.00  0.00    +0.030 A 
ATOM      6  C   UNL     1       1.933   2.259  -2.373  0.00  0.00    +0.030 A 
ATOM      7  C   UNL     1       2.376   1.401  -1.384  0.00  0.00    +0.105 A 
ATOM      8  C   UNL     1       3.361   0.472  -1.665  0.00  0.00    +0.030 A 
ATOM      9  C   UNL     1       3.895   0.395  -2.938  0.00  0.00    +0.030 A 
BRANCH   7  10
ATOM     10  S   UNL     1       1.691   1.496   0.237  0.00  0.00    +0.059 S 
ATOM     11  O   UNL     1       1.181   2.813   0.386  0.00  0.00    -0.153 OA
ATOM     12  O   UNL     1       2.662   0.951   1.120  0.00  0.00    -0.153 OA
BRANCH  10  13
ATOM     13  N   UNL     1       0.388   0.475   0.278  0.00  0.00    -0.187 NA
ATOM     14  H   UNL     1      -0.505   0.834   0.401  0.00  0.00    +0.148 HD
BRANCH  13  15
ATOM     15  C   UNL     1       0.582  -0.968   0.124  0.00  0.00    +0.077 C 
ATOM     16  C   UNL     1       0.309  -1.385  -1.336  0.00  0.00    +0.020 C 
ATOM     17  C   UNL     1      -0.383  -2.765  -1.214  0.00  0.00    +0.002 C 
ATOM     18  C   UNL     1      -1.281  -2.588   0.035  0.00  0.00    +0.002 C 
ATOM     19  C   UNL     1      -0.429  -1.733   0.996  0.00  0.00    +0.020 C 
ENDBRANCH  13  15
ENDBRANCH  10  13
ENDBRANCH   7  10
ENDBRANCH   1   4
BRANCH   1  20
ATOM     20  N   UNL     1       5.525   2.056  -5.547  0.00  0.00    -0.168 NA
BRANCH  20  21
ATOM     21  C   UNL     1       6.777   1.468  -5.064  0.00  0.00    +0.147 C 
BRANCH  21  26
ATOM     22  C   UNL     1       8.246  -0.934  -7.579  0.00  0.00    +0.000 A 
ATOM     23  C   UNL     1       8.993  -0.083  -8.372  0.00  0.00    +0.003 A 
ATOM     24  C   UNL     1       9.023   1.271  -8.096  0.00  0.00    +0.038 A 
ATOM     25  C   UNL     1       8.306   1.775  -7.024  0.00  0.00    +0.128 A 
ATOM     26  C   UNL     1       7.558   0.922  -6.230  0.00  0.00    +0.003 A 
ATOM     27  C   UNL     1       7.534  -0.433  -6.505  0.00  0.00    +0.008 A 
ATOM     28  F   UNL     1       8.335   3.098  -6.753  0.00  0.00    -0.205 F 
ENDBRANCH  21  26
ENDBRANCH  20  21
BRANCH  20  29
ATOM     29  C   UNL     1       5.503   3.439  -6.029  0.00  0.00    +0.145 C 
BRANCH  29  30
ATOM     30  C   UNL     1       5.470   4.381  -4.853  0.00  0.00    -0.031 A 
ATOM     31  C   UNL     1       4.258   4.822  -4.355  0.00  0.00    +0.008 A 
ATOM     32  C   UNL     1       4.226   5.681  -3.273  0.00  0.00    +0.038 A 
ATOM     33  C   UNL     1       5.409   6.109  -2.694  0.00  0.00    +0.123 A 
ATOM     34  C   UNL     1       6.622   5.670  -3.197  0.00  0.00    +0.038 A 
ATOM     35  C   UNL     1       6.651   4.807  -4.275  0.00  0.00    +0.008 A 
ATOM     36  F   UNL     1       5.379   6.953  -1.640  0.00  0.00    -0.205 F 
ENDBRANCH  29  30
ENDBRANCH  20  29
ENDBRANCH   1  20
TORSDOF 9
