REMARK  Name = ZINC13987569
REMARK  12 active torsions:
REMARK  status: ('A' for Active; 'I' for Inactive)
REMARK    1  A    between atoms: C_1  and  C_2
REMARK    2  A    between atoms: C_6  and  S_8
REMARK    3  A    between atoms: S_8  and  N_11
REMARK    4  A    between atoms: N_11  and  C_12
REMARK    5  A    between atoms: C_12  and  C_14
REMARK    6  A    between atoms: C_12  and  C_25
REMARK    7  A    between atoms: C_14  and  C_15
REMARK    8  A    between atoms: C_25  and  O_27
REMARK    9  A    between atoms: O_27  and  C_28
REMARK   10  A    between atoms: C_28  and  C_30
REMARK   11  A    between atoms: C_28  and  C_31
REMARK   12  A    between atoms: C_31  and  C_33
REMARK                            x       y       z     vdW  Elec       q    Type
REMARK                         _______ _______ _______ _____ _____    ______ ____
ROOT
ATOM      1  C   UNL     1       1.350   1.456  -0.201  0.00  0.00    +0.189 C 
ENDROOT
BRANCH   1   2
ATOM      2  N   UNL     1      -0.015   0.965   0.006  0.00  0.00    -0.176 NA
ATOM      3  H   UNL     1      -0.343   0.212  -0.511  0.00  0.00    +0.149 HD
BRANCH   2   4
ATOM      4  S   UNL     1      -0.999   1.698   1.117  0.00  0.00    +0.059 S 
ATOM      5  O   UNL     1      -2.244   1.014   1.070  0.00  0.00    -0.153 OA
ATOM      6  O   UNL     1      -0.242   1.819   2.313  0.00  0.00    -0.153 OA
BRANCH   4  12
ATOM      7  C   UNL     1       0.329   6.737   0.715  0.00  0.00    +0.044 C 
ATOM      8  C   UNL     1      -0.646   5.634   0.392  0.00  0.00    -0.049 A 
ATOM      9  C   UNL     1      -1.778   5.907  -0.353  0.00  0.00    +0.003 A 
ATOM     10  C   UNL     1      -2.672   4.896  -0.648  0.00  0.00    +0.002 A 
ATOM     11  C   UNL     1      -2.434   3.610  -0.200  0.00  0.00    +0.028 A 
ATOM     12  C   UNL     1      -1.302   3.336   0.545  0.00  0.00    +0.106 A 
ATOM     13  C   UNL     1      -0.411   4.349   0.845  0.00  0.00    +0.032 A 
ENDBRANCH   4  12
ENDBRANCH   2   4
ENDBRANCH   1   2
BRANCH   1  14
ATOM     14  C   UNL     1       2.306   0.651   0.641  0.00  0.00    +0.327 C 
ATOM     15  O   UNL     1       1.891  -0.241   1.341  0.00  0.00    -0.249 OA
BRANCH  14  16
ATOM     16  O   UNL     1       3.620   0.926   0.612  0.00  0.00    -0.452 OA
BRANCH  16  17
ATOM     17  C   UNL     1       4.482   0.110   1.448  0.00  0.00    +0.244 C 
ATOM     18  C   UNL     1       4.614   0.756   2.829  0.00  0.00    +0.061 C 
BRANCH  17  19
ATOM     19  C   UNL     1       5.844   0.004   0.812  0.00  0.00    +0.203 C 
ATOM     20  O   UNL     1       6.192   0.818  -0.017  0.00  0.00    -0.288 OA
BRANCH  19  21
ATOM     21  C   UNL     1       6.752  -1.087   1.196  0.00  0.00    +0.021 A 
ATOM     22  C   UNL     1       6.356  -2.026   2.156  0.00  0.00    +0.014 A 
ATOM     23  C   UNL     1       7.209  -3.049   2.507  0.00  0.00    +0.039 A 
ATOM     24  C   UNL     1       8.462  -3.144   1.919  0.00  0.00    +0.123 A 
ATOM     25  C   UNL     1       8.862  -2.214   0.971  0.00  0.00    +0.039 A 
ATOM     26  C   UNL     1       8.017  -1.189   0.607  0.00  0.00    +0.014 A 
ATOM     27  F   UNL     1       9.296  -4.147   2.272  0.00  0.00    -0.205 F 
ENDBRANCH  19  21
ENDBRANCH  17  19
ENDBRANCH  16  17
ENDBRANCH  14  16
ENDBRANCH   1  14
BRANCH   1  28
ATOM     28  C   UNL     1       1.725   1.314  -1.677  0.00  0.00    +0.069 C 
BRANCH  28  29
ATOM     29  C   UNL     1       0.822   2.185  -2.511  0.00  0.00    -0.020 A 
ATOM     30  C   UNL     1      -0.256   1.785  -3.205  0.00  0.00    +0.087 A 
ATOM     31  N   UNL     1      -0.827   2.855  -3.838  0.00  0.00    -0.360 N 
ATOM     32  H   UNL     1      -1.618   2.814  -4.398  0.00  0.00    +0.165 HD
ATOM     33  C   UNL     1      -0.107   3.997  -3.568  0.00  0.00    +0.047 A 
ATOM     34  C   UNL     1       0.957   3.628  -2.725  0.00  0.00    +0.003 A 
ATOM     35  C   UNL     1       1.862   4.594  -2.282  0.00  0.00    +0.010 A 
ATOM     36  C   UNL     1       1.710   5.895  -2.670  0.00  0.00    +0.001 A 
ATOM     37  C   UNL     1       0.662   6.265  -3.502  0.00  0.00    +0.002 A 
ATOM     38  C   UNL     1      -0.243   5.328  -3.951  0.00  0.00    +0.026 A 
ENDBRANCH  28  29
ENDBRANCH   1  28
TORSDOF 10
