REMARK  Name = ZINC25436117
REMARK  7 active torsions:
REMARK  status: ('A' for Active; 'I' for Inactive)
REMARK    1  A    between atoms: C_3  and  C_18
REMARK    2  A    between atoms: C_5  and  S_7
REMARK    3  A    between atoms: S_7  and  N_10
REMARK    4  A    between atoms: N_10  and  C_11
REMARK    5  A    between atoms: N_20  and  C_21
REMARK    6  A    between atoms: C_21  and  C_22
REMARK    7  A    between atoms: C_22  and  N_28
REMARK                            x       y       z     vdW  Elec       q    Type
REMARK                         _______ _______ _______ _____ _____    ______ ____
ROOT
ATOM      1  C   UNL     1      -5.008  -2.193  -2.569  0.00  0.00    +0.244 C 
ATOM      2  O   UNL     1      -4.551  -3.130  -3.194  0.00  0.00    -0.270 OA
ATOM      3  N   UNL     1      -6.325  -1.915  -2.638  0.00  0.00    -0.313 N 
ATOM      4  H   UNL     1      -6.739  -1.067  -2.073  0.00  0.00    +0.149 HD
ENDROOT
BRANCH   1   7
ATOM      5  C   UNL     1      -3.806   0.494  -0.236  0.00  0.00    +0.003 A 
ATOM      6  C   UNL     1      -4.641  -0.281  -1.015  0.00  0.00    +0.013 A 
ATOM      7  C   UNL     1      -4.120  -1.357  -1.734  0.00  0.00    +0.039 A 
ATOM      8  C   UNL     1      -2.755  -1.642  -1.660  0.00  0.00    +0.042 A 
ATOM      9  C   UNL     1      -1.931  -0.860  -0.878  0.00  0.00    +0.111 A 
ATOM     10  C   UNL     1      -2.456   0.203  -0.164  0.00  0.00    +0.029 A 
BRANCH   9  11
ATOM     11  S   UNL     1      -0.208  -1.218  -0.784  0.00  0.00    +0.092 S 
ATOM     12  O   UNL     1      -0.047  -2.558  -1.229  0.00  0.00    -0.148 OA
ATOM     13  O   UNL     1       0.227  -0.783   0.497  0.00  0.00    -0.148 OA
BRANCH  11  14
ATOM     14  N   UNL     1       0.554  -0.255  -1.895  0.00  0.00    -0.098 NA
BRANCH  14  15
ATOM     15  C   UNL     1       0.255  -0.385  -3.253  0.00  0.00    +0.076 A 
ATOM     16  C   UNL     1       0.042   0.747  -4.030  0.00  0.00    +0.027 A 
ATOM     17  C   UNL     1      -0.253   0.616  -5.373  0.00  0.00    +0.003 A 
ATOM     18  C   UNL     1      -0.336  -0.640  -5.945  0.00  0.00    +0.020 A 
ATOM     19  C   UNL     1      -0.124  -1.770  -5.174  0.00  0.00    +0.043 A 
ATOM     20  C   UNL     1       0.177  -1.645  -3.831  0.00  0.00    +0.046 A 
ATOM     21 CL   UNL     1      -0.228  -3.345  -5.897  0.00  0.00    -0.083 Cl
ENDBRANCH  14  15
ENDBRANCH  11  14
ENDBRANCH   9  11
ENDBRANCH   1   7
BRANCH   3  22
ATOM     22  C   UNL     1      -7.206  -2.742  -3.466  0.00  0.00    +0.092 C 
BRANCH  22  23
ATOM     23  C   UNL     1      -8.603  -2.120  -3.505  0.00  0.00    -0.050 C 
ATOM     24  C   UNL     1      -9.090  -1.872  -2.075  0.00  0.00    -0.010 C 
ATOM     25  C   UNL     1      -9.144  -3.200  -1.317  0.00  0.00    -0.001 C 
ATOM     26  C   UNL     1     -10.108  -4.153  -2.026  0.00  0.00    -0.000 C 
ATOM     27  C   UNL     1      -9.621  -4.401  -3.455  0.00  0.00    -0.001 C 
ATOM     28  C   UNL     1      -9.567  -3.073  -4.213  0.00  0.00    -0.010 C 
BRANCH  23  29
ATOM     29  N   UNL     1      -8.552  -0.845  -4.232  0.00  0.00    +0.384 N 
ATOM     30  C   UNL     1      -8.050  -1.039  -5.599  0.00  0.00    -0.078 C 
ATOM     31  C   UNL     1      -8.146   0.279  -6.371  0.00  0.00    -0.019 C 
ATOM     32  C   UNL     1      -7.321   1.348  -5.651  0.00  0.00    -0.004 C 
ATOM     33  C   UNL     1      -7.832   1.496  -4.216  0.00  0.00    -0.019 C 
ATOM     34  C   UNL     1      -7.745   0.144  -3.506  0.00  0.00    -0.078 C 
ATOM     35  H   UNL     1      -9.577  -0.453  -4.304  0.00  0.00    -0.081 HD
ENDBRANCH  23  29
ENDBRANCH  22  23
ENDBRANCH   3  22
TORSDOF 7
