REMARK  Name = ZINC65381290
REMARK  5 active torsions:
REMARK  status: ('A' for Active; 'I' for Inactive)
REMARK    1  A    between atoms: C_1  and  C_2
REMARK    2  A    between atoms: C_4  and  C_22
REMARK    3  A    between atoms: C_6  and  N_8
REMARK    4  A    between atoms: N_11  and  C_15
REMARK    5  A    between atoms: C_15  and  C_16
REMARK                            x       y       z     vdW  Elec       q    Type
REMARK                         _______ _______ _______ _____ _____    ______ ____
ROOT
ATOM      1  N   UNL     1       0.030  -2.862   2.356  0.00  0.00    -0.275 N 
ATOM      2  C   UNL     1      -0.006  -2.096   3.599  0.00  0.00    +0.095 C 
ATOM      3  C   UNL     1      -0.410  -3.006   4.760  0.00  0.00    -0.059 C 
ATOM      4  N   UNL     1       0.444  -4.204   4.742  0.00  0.00    +0.387 N 
ATOM      5  C   UNL     1       0.080  -5.031   3.585  0.00  0.00    +0.019 C 
ATOM      6  C   UNL     1       0.077  -4.199   2.334  0.00  0.00    +0.203 C 
ATOM      7  O   UNL     1       0.124  -4.762   1.261  0.00  0.00    -0.277 OA
ATOM      8  H   UNL     1       1.412  -3.928   4.670  0.00  0.00    -0.081 HD
ENDROOT
BRANCH   1  14
ATOM      9  C   UNL     1      -2.319  -1.668  -1.795  0.00  0.00    +0.044 C 
ATOM     10  C   UNL     1      -1.115  -1.575  -0.892  0.00  0.00    -0.048 A 
ATOM     11  C   UNL     1      -0.030  -0.804  -1.266  0.00  0.00    +0.006 A 
ATOM     12  C   UNL     1       1.076  -0.715  -0.441  0.00  0.00    -0.048 A 
ATOM     13  C   UNL     1       1.099  -1.396   0.761  0.00  0.00    +0.027 A 
ATOM     14  C   UNL     1       0.010  -2.171   1.139  0.00  0.00    +0.037 A 
ATOM     15  C   UNL     1      -1.101  -2.254   0.310  0.00  0.00    +0.027 A 
ATOM     16  C   UNL     1       2.257   0.125  -0.852  0.00  0.00    +0.044 C 
ENDBRANCH   1  14
BRANCH   4  17
ATOM     17  C   UNL     1       0.241  -4.971   5.978  0.00  0.00    -0.072 C 
BRANCH  17  18
ATOM     18  C   UNL     1       0.750  -4.161   7.172  0.00  0.00    +0.000 C 
ATOM     19  C   UNL     1       0.603  -4.967   8.491  0.00  0.00    +0.032 C 
ATOM     20  C   UNL     1       1.750  -4.359   9.336  0.00  0.00    +0.160 C 
ATOM     21  O   UNL     1       2.813  -4.109   8.403  0.00  0.00    -0.380 OA
ATOM     22  C   UNL     1       2.277  -3.948   7.080  0.00  0.00    +0.161 C 
ENDBRANCH  17  18
ENDBRANCH   4  17
TORSDOF 3
