REMARK  Name = ZINC39315492
REMARK  6 active torsions:
REMARK  status: ('A' for Active; 'I' for Inactive)
REMARK    1  A    between atoms: C_1  and  C_2
REMARK    2  A    between atoms: N_11  and  C_14
REMARK    3  A    between atoms: C_14  and  C_15
REMARK    4  A    between atoms: C_15  and  C_16
REMARK    5  A    between atoms: C_22  and  C_26
REMARK    6  A    between atoms: C_23  and  N_25
REMARK                            x       y       z     vdW  Elec       q    Type
REMARK                         _______ _______ _______ _____ _____    ______ ____
ROOT
ATOM      1  C   UNL     1      -0.018   1.504   0.010  0.00  0.00    +0.063 C 
ATOM      2  C   UNL     1       0.002  -0.004   0.002  0.00  0.00    +0.051 C 
ATOM      3  N   UNL     1      -0.000  -0.750  -1.062  0.00  0.00    -0.155 NA
ATOM      4  N   UNL     1      -0.066  -2.107  -0.754  0.00  0.00    -0.115 NA
ATOM      5  C   UNL     1      -0.129  -2.309   0.508  0.00  0.00    +0.227 C 
ATOM      6  C   UNL     1       0.026  -0.937   1.175  0.00  0.00    +0.134 C 
ATOM      7  C   UNL     1       1.378  -1.007   1.912  0.00  0.00    +0.023 C 
ATOM      8  C   UNL     1       2.513  -1.104   0.911  0.00  0.00    -0.005 C 
ATOM      9  C   UNL     1       3.228   0.213   0.640  0.00  0.00    -0.078 C 
ATOM     10  N   UNL     1       3.613   0.796   1.934  0.00  0.00    +0.380 N 
ATOM     11  C   UNL     1       2.380   1.282   2.561  0.00  0.00    -0.078 C 
ATOM     12  C   UNL     1       1.438   0.140   2.898  0.00  0.00    -0.005 C 
ATOM     13  C   UNL     1       1.362  -2.329   2.668  0.00  0.00    +0.093 C 
ATOM     14  C   UNL     1       0.571  -3.378   2.364  0.00  0.00    +0.200 C 
ATOM     15  O   UNL     1      -0.259  -3.405   1.285  0.00  0.00    -0.425 OA
ATOM     16  H   UNL     1       4.043   0.100   2.514  0.00  0.00    -0.082 HD
ENDROOT
BRANCH  14  17
ATOM     17  N   UNL     1       0.603  -4.480   3.180  0.00  0.00    -0.328 N 
ATOM     18  H   UNL     1       1.185  -4.492   3.956  0.00  0.00    +0.145 HD
ATOM     19  H   UNL     1       0.043  -5.247   2.982  0.00  0.00    +0.145 HD
ENDBRANCH  14  17
BRANCH  13  20
ATOM     20  C   UNL     1       2.278  -2.514   3.754  0.00  0.00    +0.100 C 
ATOM     21  N   UNL     1       3.005  -2.660   4.615  0.00  0.00    -0.191 NA
ENDBRANCH  13  20
BRANCH  10  22
ATOM     22  C   UNL     1       4.536   1.916   1.716  0.00  0.00    -0.074 C 
BRANCH  22  23
ATOM     23  C   UNL     1       5.030   2.439   3.067  0.00  0.00    +0.016 C 
BRANCH  23  24
ATOM     24  C   UNL     1       5.979   3.589   2.843  0.00  0.00    -0.049 A 
ATOM     25  C   UNL     1       7.332   3.350   2.695  0.00  0.00    +0.003 A 
ATOM     26  C   UNL     1       8.202   4.405   2.490  0.00  0.00    +0.000 A 
ATOM     27  C   UNL     1       7.718   5.699   2.433  0.00  0.00    +0.000 A 
ATOM     28  C   UNL     1       6.364   5.937   2.580  0.00  0.00    +0.000 A 
ATOM     29  C   UNL     1       5.494   4.882   2.781  0.00  0.00    +0.003 A 
ENDBRANCH  23  24
ENDBRANCH  22  23
ENDBRANCH  10  22
TORSDOF 5
