REMARK  Name = ZINC36586653
REMARK  12 active torsions:
REMARK  status: ('A' for Active; 'I' for Inactive)
REMARK    1  A    between atoms: C_1  and  C_2
REMARK    2  A    between atoms: C_2  and  C_3
REMARK    3  A    between atoms: C_2  and  C_4
REMARK    4  A    between atoms: C_2  and  N_5
REMARK    5  A    between atoms: N_5  and  C_6
REMARK    6  A    between atoms: C_6  and  C_8
REMARK    7  A    between atoms: C_6  and  C_18
REMARK    8  A    between atoms: C_11  and  C_14
REMARK    9  A    between atoms: N_20  and  C_21
REMARK   10  A    between atoms: C_27  and  C_29
REMARK   11  A    between atoms: C_30  and  O_36
REMARK   12  A    between atoms: C_34  and  O_35
REMARK                            x       y       z     vdW  Elec       q    Type
REMARK                         _______ _______ _______ _____ _____    ______ ____
ROOT
ATOM      1  C   UNL     1       2.504  -0.976  -2.536  0.00  0.00    +0.193 C 
ENDROOT
BRANCH   1   2
ATOM      2  C   UNL     1       2.999   0.068  -3.504  0.00  0.00    -0.018 A 
ATOM      3  C   UNL     1       3.256   1.353  -3.063  0.00  0.00    +0.006 A 
ATOM      4  C   UNL     1       3.710   2.310  -3.951  0.00  0.00    +0.013 A 
ATOM      5  C   UNL     1       3.908   1.982  -5.279  0.00  0.00    +0.055 A 
ATOM      6  C   UNL     1       3.651   0.697  -5.720  0.00  0.00    +0.013 A 
ATOM      7  C   UNL     1       3.201  -0.261  -4.831  0.00  0.00    +0.006 A 
BRANCH   5   8
ATOM      8  C   UNL     1       4.402   3.026  -6.248  0.00  0.00    +0.417 C 
ATOM      9  F   UNL     1       5.800   3.009  -6.278  0.00  0.00    -0.166 F 
ATOM     10  F   UNL     1       3.904   2.750  -7.526  0.00  0.00    -0.166 F 
ATOM     11  F   UNL     1       3.960   4.289  -5.838  0.00  0.00    -0.166 F 
ENDBRANCH   5   8
ENDBRANCH   1   2
BRANCH   1  12
ATOM     12  C   UNL     1       3.670  -1.540  -1.766  0.00  0.00    +0.238 C 
ATOM     13  O   UNL     1       3.584  -1.702  -0.567  0.00  0.00    -0.273 OA
ATOM     14  N   UNL     1       4.808  -1.866  -2.410  0.00  0.00    -0.311 N 
ATOM     15  H   UNL     1       4.877  -1.737  -3.369  0.00  0.00    +0.149 HD
BRANCH  14  16
ATOM     16  C   UNL     1       5.942  -2.415  -1.662  0.00  0.00    +0.073 C 
ATOM     17  C   UNL     1       6.772  -1.269  -1.080  0.00  0.00    +0.022 C 
ATOM     18  C   UNL     1       7.956  -1.842  -0.299  0.00  0.00    +0.002 C 
ATOM     19  C   UNL     1       8.829  -2.679  -1.236  0.00  0.00    +0.000 C 
ATOM     20  C   UNL     1       7.999  -3.825  -1.818  0.00  0.00    +0.002 C 
ATOM     21  C   UNL     1       6.815  -3.252  -2.600  0.00  0.00    +0.022 C 
ENDBRANCH  14  16
ENDBRANCH   1  12
BRANCH   1  22
ATOM     22  N   UNL     1       1.553  -0.365  -1.603  0.00  0.00    -0.277 N 
ATOM     23  C   UNL     1       2.004   0.340  -0.547  0.00  0.00    +0.255 C 
ATOM     24  O   UNL     1       3.196   0.540  -0.413  0.00  0.00    -0.270 OA
BRANCH  23  25
ATOM     25  C   UNL     1       1.053   0.868   0.445  0.00  0.00    +0.119 A 
ATOM     26  C   UNL     1       0.675   0.087   1.547  0.00  0.00    +0.133 A 
ATOM     27  C   UNL     1      -0.220   0.594   2.475  0.00  0.00    +0.046 A 
ATOM     28  C   UNL     1      -0.741   1.865   2.318  0.00  0.00    +0.007 A 
ATOM     29  C   UNL     1      -0.375   2.644   1.236  0.00  0.00    +0.046 A 
ATOM     30  C   UNL     1       0.523   2.159   0.299  0.00  0.00    +0.133 A 
BRANCH  30  31
ATOM     31  O   UNL     1       0.885   2.927  -0.759  0.00  0.00    -0.506 OA
ATOM     32  H   UNL     1       0.318   2.821  -1.535  0.00  0.00    +0.292 HD
ENDBRANCH  30  31
BRANCH  26  33
ATOM     33  O   UNL     1       1.183  -1.161   1.703  0.00  0.00    -0.506 OA
ATOM     34  H   UNL     1       2.003  -1.190   2.215  0.00  0.00    +0.292 HD
ENDBRANCH  26  33
ENDBRANCH  23  25
BRANCH  22  36
ATOM     35  C   UNL     1      -0.127  -1.331  -3.095  0.00  0.00    +0.031 C 
ATOM     36  C   UNL     1       0.113  -0.521  -1.819  0.00  0.00    +0.030 C 
ATOM     37  C   UNL     1      -0.534   0.859  -1.962  0.00  0.00    +0.031 C 
ATOM     38  C   UNL     1      -0.506  -1.253  -0.627  0.00  0.00    +0.031 C 
ENDBRANCH  22  36
ENDBRANCH   1  22
TORSDOF 9
