REMARK  Name = ZINC39412408
REMARK  3 active torsions:
REMARK  status: ('A' for Active; 'I' for Inactive)
REMARK    1  A    between atoms: N_15  and  N_16
REMARK    2  A    between atoms: C_17  and  C_18
REMARK    3  A    between atoms: C_21  and  O_25
REMARK                            x       y       z     vdW  Elec       q    Type
REMARK                         _______ _______ _______ _____ _____    ______ ____
ROOT
ATOM      1  C   UNL     1      -0.016   1.348   0.009  0.00  0.00    +0.001 A 
ATOM      2  C   UNL     1       1.156   2.116   0.002  0.00  0.00    +0.002 A 
ATOM      3  C   UNL     1       2.382   1.544  -0.006  0.00  0.00    +0.026 A 
ATOM      4  C   UNL     1       2.491   0.080  -0.009  0.00  0.00    +0.046 A 
ATOM      5  N   UNL     1       3.530  -0.719  -0.048  0.00  0.00    -0.358 N 
ATOM      6  C   UNL     1       3.072  -2.091   0.097  0.00  0.00    +0.253 C 
ATOM      7  C   UNL     1       1.560  -2.038  -0.034  0.00  0.00    +0.115 C 
ATOM      8  C   UNL     1       1.230  -0.705  -0.013  0.00  0.00    +0.025 A 
ATOM      9  C   UNL     1       0.002  -0.004   0.002  0.00  0.00    +0.012 A 
ATOM     10  N   UNL     1       0.837  -3.136  -0.265  0.00  0.00    -0.171 NA
ATOM     11  N   UNL     1       1.456  -4.093  -0.888  0.00  0.00    -0.247 N 
ATOM     12  C   UNL     1       2.729  -3.957  -1.333  0.00  0.00    +0.227 C 
ATOM     13  N   UNL     1       3.548  -3.010  -0.936  0.00  0.00    -0.220 NA
ATOM     14  N   UNL     1       3.196  -4.872  -2.255  0.00  0.00    -0.206 N 
ATOM     15  H   UNL     1       2.617  -5.585  -2.567  0.00  0.00    +0.177 HD
ATOM     16  H   UNL     1       0.993  -4.931  -1.041  0.00  0.00    +0.192 HD
ATOM     17  H   UNL     1       4.453  -0.440  -0.157  0.00  0.00    +0.162 HD
ENDROOT
BRANCH  14  18
ATOM     18  N   UNL     1       4.505  -4.769  -2.742  0.00  0.00    -0.188 NA
ATOM     19  C   UNL     1       4.944  -5.630  -3.610  0.00  0.00    +0.138 C 
BRANCH  19  20
ATOM     20  C   UNL     1       6.322  -5.522  -4.122  0.00  0.00    -0.003 A 
ATOM     21  C   UNL     1       7.160  -4.499  -3.671  0.00  0.00    +0.028 A 
ATOM     22  C   UNL     1       8.448  -4.403  -4.152  0.00  0.00    +0.061 A 
ATOM     23  C   UNL     1       8.914  -5.321  -5.085  0.00  0.00    +0.145 A 
ATOM     24  C   UNL     1       8.085  -6.340  -5.537  0.00  0.00    +0.061 A 
ATOM     25  C   UNL     1       6.796  -6.447  -5.057  0.00  0.00    +0.028 A 
ATOM     26 BR   UNL     1       8.725  -7.586  -6.808  0.00  0.00    -0.046 Br
ATOM     27 BR   UNL     1       9.583  -3.018  -3.543  0.00  0.00    -0.046 Br
BRANCH  23  28
ATOM     28  O   UNL     1      10.185  -5.223  -5.557  0.00  0.00    -0.505 OA
ATOM     29  H   UNL     1      10.836  -5.715  -5.039  0.00  0.00    +0.292 HD
ENDBRANCH  23  28
ENDBRANCH  19  20
ENDBRANCH  14  18
TORSDOF 3
