REMARK  Name = ZINC58159048
REMARK  8 active torsions:
REMARK  status: ('A' for Active; 'I' for Inactive)
REMARK    1  A    between atoms: C_1  and  C_2
REMARK    2  A    between atoms: C_2  and  C_4
REMARK    3  A    between atoms: C_2  and  N_17
REMARK    4  A    between atoms: N_6  and  C_7
REMARK    5  A    between atoms: C_10  and  N_14
REMARK    6  A    between atoms: N_20  and  C_23
REMARK    7  A    between atoms: C_26  and  C_29
REMARK    8  A    between atoms: C_29  and  C_31
REMARK                            x       y       z     vdW  Elec       q    Type
REMARK                         _______ _______ _______ _____ _____    ______ ____
ROOT
ATOM      1  C   UNL     1       1.369  -0.060  -0.906  0.00  0.00    +0.034 C 
ATOM      2  C   UNL     1       0.132   0.067  -0.015  0.00  0.00    +0.140 C 
ENDROOT
BRANCH   2   3
ATOM      3  N   UNL     1       0.529  -0.054   1.394  0.00  0.00    -0.289 NA
ATOM      4  C   UNL     1       0.772  -1.457   1.754  0.00  0.00    +0.104 C 
ATOM      5  C   UNL     1       1.006  -1.561   3.265  0.00  0.00    +0.120 C 
ATOM      6  N   UNL     1       2.080  -0.628   3.637  0.00  0.00    -0.327 N 
ATOM      7  C   UNL     1       1.973   0.770   3.192  0.00  0.00    +0.120 C 
ATOM      8  C   UNL     1       1.702   0.782   1.684  0.00  0.00    +0.104 C 
BRANCH   6   9
ATOM      9  C   UNL     1       3.167  -1.056   4.388  0.00  0.00    +0.030 A 
ATOM     10  C   UNL     1       4.106  -0.131   4.840  0.00  0.00    +0.024 A 
ATOM     11  C   UNL     1       5.176  -0.547   5.579  0.00  0.00    +0.013 A 
ATOM     12  C   UNL     1       5.329  -1.907   5.882  0.00  0.00    +0.017 A 
ATOM     13  C   UNL     1       4.382  -2.833   5.426  0.00  0.00    +0.013 A 
ATOM     14  C   UNL     1       3.312  -2.408   4.692  0.00  0.00    +0.024 A 
BRANCH  12  15
ATOM     15  C   UNL     1       6.478  -2.359   6.676  0.00  0.00    +0.160 C 
ATOM     16  O   UNL     1       7.297  -1.555   7.069  0.00  0.00    -0.292 OA
ATOM     17  C   UNL     1       6.641  -3.821   7.001  0.00  0.00    +0.091 C 
ENDBRANCH  12  15
ENDBRANCH   6   9
ENDBRANCH   2   3
BRANCH   2  18
ATOM     18  C   UNL     1      -0.515   1.409  -0.241  0.00  0.00    +0.234 C 
ATOM     19  O   UNL     1      -0.434   2.272   0.608  0.00  0.00    -0.274 OA
ATOM     20  N   UNL     1      -1.183   1.651  -1.386  0.00  0.00    -0.283 N 
ATOM     21  H   UNL     1      -1.312   0.939  -2.032  0.00  0.00    +0.155 HD
BRANCH  20  22
ATOM     22  C   UNL     1      -1.691   2.930  -1.644  0.00  0.00    +0.052 A 
ATOM     23  C   UNL     1      -1.180   4.030  -0.969  0.00  0.00    +0.027 A 
ATOM     24  C   UNL     1      -1.683   5.291  -1.225  0.00  0.00    +0.034 A 
ATOM     25  C   UNL     1      -2.694   5.459  -2.153  0.00  0.00    +0.128 A 
ATOM     26  C   UNL     1      -3.205   4.366  -2.828  0.00  0.00    +0.054 A 
ATOM     27  C   UNL     1      -2.703   3.102  -2.580  0.00  0.00    +0.064 A 
ATOM     28 CL   UNL     1      -3.341   1.730  -3.432  0.00  0.00    -0.082 Cl
BRANCH  25  29
ATOM     29  N   UNL     1      -3.230   6.811  -2.425  0.00  0.00    +0.056 N 
ATOM     30  O   UNL     1      -2.784   7.768  -1.835  0.00  0.00    -0.126 OA
ATOM     31  O   UNL     1      -4.114   6.960  -3.236  0.00  0.00    -0.126 OA
ENDBRANCH  25  29
ENDBRANCH  20  22
ENDBRANCH   2  18
TORSDOF 6
