REMARK  Name = ZINC08996876
REMARK  9 active torsions:
REMARK  status: ('A' for Active; 'I' for Inactive)
REMARK    1  A    between atoms: C_1  and  C_2
REMARK    2  A    between atoms: C_8  and  C_27
REMARK    3  A    between atoms: C_10  and  C_15
REMARK    4  A    between atoms: C_15  and  C_17
REMARK    5  A    between atoms: C_20  and  O_23
REMARK    6  A    between atoms: O_23  and  C_24
REMARK    7  A    between atoms: C_24  and  C_25
REMARK    8  A    between atoms: C_24  and  C_26
REMARK    9  A    between atoms: C_30  and  N_33
REMARK                            x       y       z     vdW  Elec       q    Type
REMARK                         _______ _______ _______ _____ _____    ______ ____
ROOT
ATOM      1  C   UNL     1       2.150  -1.485  -0.397  0.00  0.00    +0.089 C 
ATOM      2  C   UNL     1       1.469  -0.143  -0.310  0.00  0.00    +0.136 A 
ATOM      3  C   UNL     1       0.141   0.083  -0.190  0.00  0.00    +0.091 A 
ATOM      4  C   UNL     1       0.037   1.499  -0.153  0.00  0.00    +0.172 A 
ATOM      5  N   UNL     1       1.258   1.958  -0.251  0.00  0.00    -0.063 NA
ATOM      6  O   UNL     1       2.062   1.059  -0.339  0.00  0.00    -0.358 OA
ATOM      7  N   UNL     1      -1.132   2.250  -0.041  0.00  0.00    -0.235 N 
ATOM      8  C   UNL     1      -1.228   3.713  -0.102  0.00  0.00    +0.151 C 
ATOM      9  C   UNL     1      -2.693   4.046   0.064  0.00  0.00    +0.077 C 
ATOM     10  C   UNL     1      -3.346   2.869   0.214  0.00  0.00    +0.250 C 
ATOM     11  C   UNL     1      -2.371   1.761   0.147  0.00  0.00    +0.293 C 
ATOM     12  O   UNL     1      -2.648   0.582   0.247  0.00  0.00    -0.266 OA
ATOM     13  O   UNL     1      -4.679   2.731   0.395  0.00  0.00    -0.282 OA
ENDROOT
BRANCH   8  14
ATOM     14  C   UNL     1      -0.736   4.210  -1.437  0.00  0.00    -0.022 A 
ATOM     15  C   UNL     1      -1.132   3.575  -2.600  0.00  0.00    +0.008 A 
ATOM     16  C   UNL     1      -0.684   4.034  -3.824  0.00  0.00    +0.033 A 
ATOM     17  C   UNL     1       0.169   5.120  -3.886  0.00  0.00    +0.126 A 
ATOM     18  C   UNL     1       0.570   5.751  -2.723  0.00  0.00    +0.033 A 
ATOM     19  C   UNL     1       0.117   5.296  -1.498  0.00  0.00    +0.008 A 
BRANCH  17  20
ATOM     20  N   UNL     1       0.652   5.609  -5.197  0.00  0.00    +0.056 N 
ATOM     21  O   UNL     1       1.403   6.566  -5.251  0.00  0.00    -0.126 OA
ATOM     22  O   UNL     1       0.299   5.053  -6.221  0.00  0.00    -0.126 OA
ENDBRANCH  17  20
ENDBRANCH   8  14
BRANCH   9  23
ATOM     23  C   UNL     1      -3.290   5.385   0.070  0.00  0.00    +0.195 C 
ATOM     24  O   UNL     1      -4.040   5.720  -0.828  0.00  0.00    -0.287 OA
BRANCH  23  25
ATOM     25  C   UNL     1      -2.981   6.326   1.164  0.00  0.00    +0.022 A 
ATOM     26  C   UNL     1      -2.060   5.972   2.154  0.00  0.00    +0.015 A 
ATOM     27  C   UNL     1      -1.771   6.855   3.171  0.00  0.00    +0.046 A 
ATOM     28  C   UNL     1      -2.402   8.093   3.219  0.00  0.00    +0.121 A 
ATOM     29  C   UNL     1      -3.324   8.446   2.239  0.00  0.00    +0.046 A 
ATOM     30  C   UNL     1      -3.614   7.571   1.217  0.00  0.00    +0.015 A 
BRANCH  28  31
ATOM     31  O   UNL     1      -2.119   8.958   4.225  0.00  0.00    -0.489 OA
BRANCH  31  32
ATOM     32  C   UNL     1      -2.865  10.176   4.263  0.00  0.00    +0.167 C 
ATOM     33  C   UNL     1      -4.207   9.931   4.956  0.00  0.00    +0.051 C 
ATOM     34  C   UNL     1      -2.076  11.233   5.038  0.00  0.00    +0.051 C 
ENDBRANCH  31  32
ENDBRANCH  28  31
ENDBRANCH  23  25
ENDBRANCH   9  23
TORSDOF 6
