REMARK  Name = ZINC20343944
REMARK  7 active torsions:
REMARK  status: ('A' for Active; 'I' for Inactive)
REMARK    1  A    between atoms: C_1  and  C_2
REMARK    2  A    between atoms: N_9  and  C_10
REMARK    3  A    between atoms: N_17  and  C_18
REMARK    4  A    between atoms: C_20  and  C_26
REMARK    5  A    between atoms: C_20  and  C_27
REMARK    6  A    between atoms: C_22  and  C_24
REMARK    7  A    between atoms: C_22  and  C_25
REMARK                            x       y       z     vdW  Elec       q    Type
REMARK                         _______ _______ _______ _____ _____    ______ ____
ROOT
ATOM      1  C   UNL     1      -2.031   0.542   0.135  0.00  0.00    +0.053 C 
ATOM      2  C   UNL     1      -0.926   1.497  -0.236  0.00  0.00    +0.007 A 
ATOM      3  C   UNL     1      -0.454   1.795  -1.468  0.00  0.00    +0.058 A 
ATOM      4  C   UNL     1       0.581   2.724  -1.542  0.00  0.00    +0.140 A 
ATOM      5  N   UNL     1       1.105   3.084  -2.696  0.00  0.00    -0.283 NA
ATOM      6  N   UNL     1       1.029   3.248  -0.350  0.00  0.00    -0.237 N 
ATOM      7  S   UNL     1       0.046   2.473   0.812  0.00  0.00    -0.008 S 
ATOM      8  C   UNL     1       2.028   4.172  -0.145  0.00  0.00    +0.186 C 
ATOM      9  N   UNL     1       3.281   3.784  -0.100  0.00  0.00    -0.286 N 
ATOM     10  N   UNL     1       1.714   5.499   0.013  0.00  0.00    -0.355 N 
ATOM     11  H   UNL     1       0.822   2.647  -3.515  0.00  0.00    +0.188 HD
ATOM     12  H   UNL     1       0.664   5.824  -0.025  0.00  0.00    +0.163 HD
ATOM     13  H   UNL     1       4.076   4.515   0.111  0.00  0.00    +0.155 HD
ENDROOT
BRANCH  10  14
ATOM     14  C   UNL     1       2.780   6.485   0.232  0.00  0.00    +0.079 C 
ATOM     15  C   UNL     1       3.095   6.562   1.726  0.00  0.00    +0.011 C 
ATOM     16  C   UNL     1       4.186   7.598   1.986  0.00  0.00    -0.071 C 
ATOM     17  N   UNL     1       3.925   8.868   1.343  0.00  0.00    +0.386 N 
ATOM     18  C   UNL     1       3.382   8.909   0.001  0.00  0.00    -0.071 C 
ATOM     19  C   UNL     1       2.299   7.859  -0.235  0.00  0.00    +0.011 C 
ATOM     20  C   UNL     1       4.487   8.750  -1.050  0.00  0.00    -0.010 C 
ATOM     21  C   UNL     1       2.739  10.297  -0.217  0.00  0.00    -0.010 C 
ATOM     22  C   UNL     1       5.545   7.029   1.560  0.00  0.00    -0.010 C 
ATOM     23  C   UNL     1       4.248   7.834   3.512  0.00  0.00    -0.010 C 
ATOM     24  H   UNL     1       3.198   9.439   1.939  0.00  0.00    -0.084 HD
ATOM     25  H   UNL     1       4.863   9.438   1.264  0.00  0.00    -0.084 HD
ENDBRANCH  10  14
BRANCH   9  26
ATOM     26  C   UNL     1       3.600   2.469  -0.314  0.00  0.00    +0.034 A 
ATOM     27  C   UNL     1       3.052   1.474   0.497  0.00  0.00    +0.024 A 
ATOM     28  C   UNL     1       3.373   0.151   0.273  0.00  0.00    +0.017 A 
ATOM     29  C   UNL     1       4.244  -0.189  -0.748  0.00  0.00    +0.018 A 
ATOM     30  C   UNL     1       4.795   0.793  -1.553  0.00  0.00    +0.017 A 
ATOM     31  C   UNL     1       4.478   2.119  -1.342  0.00  0.00    +0.024 A 
ATOM     32 BR   UNL     1       4.684  -2.004  -1.045  0.00  0.00    -0.050 Br
ENDBRANCH   9  26
TORSDOF 2
