REMARK  Name = ZINC04964779
REMARK  9 active torsions:
REMARK  status: ('A' for Active; 'I' for Inactive)
REMARK    1  A    between atoms: C_1  and  C_2
REMARK    2  A    between atoms: C_2  and  C_3
REMARK    3  A    between atoms: C_2  and  C_4
REMARK    4  A    between atoms: C_2  and  N_5
REMARK    5  A    between atoms: C_6  and  C_8
REMARK    6  A    between atoms: C_8  and  C_10
REMARK    7  A    between atoms: C_8  and  N_15
REMARK    8  A    between atoms: N_15  and  C_16
REMARK    9  A    between atoms: C_23  and  C_25
REMARK                            x       y       z     vdW  Elec       q    Type
REMARK                         _______ _______ _______ _____ _____    ______ ____
ROOT
ATOM      1  N   UNL     1      -3.335   2.241  -0.859  0.00  0.00    -0.246 N 
ATOM      2  C   UNL     1      -3.431   3.562  -0.612  0.00  0.00    +0.273 C 
ATOM      3  O   UNL     1      -2.852   4.045   0.343  0.00  0.00    -0.268 OA
ENDROOT
BRANCH   1   4
ATOM      4  C   UNL     1      -4.001   1.685  -1.957  0.00  0.00    +0.056 A 
ATOM      5  C   UNL     1      -5.298   1.209  -1.817  0.00  0.00    +0.025 A 
ATOM      6  C   UNL     1      -5.952   0.661  -2.902  0.00  0.00    +0.002 A 
ATOM      7  C   UNL     1      -5.318   0.586  -4.129  0.00  0.00    +0.002 A 
ATOM      8  C   UNL     1      -4.027   1.059  -4.273  0.00  0.00    +0.022 A 
ATOM      9  C   UNL     1      -3.367   1.612  -3.192  0.00  0.00    +0.062 A 
ATOM     10 CL   UNL     1      -1.748   2.211  -3.375  0.00  0.00    -0.082 Cl
ENDBRANCH   1   4
BRANCH   2  11
ATOM     11  C   UNL     1      -4.237   4.422  -1.497  0.00  0.00    +0.157 A 
ATOM     12  C   UNL     1      -4.384   5.788  -1.308  0.00  0.00    +0.101 A 
ATOM     13  S   UNL     1      -5.415   6.197  -2.639  0.00  0.00    +0.029 S 
ATOM     14  N   UNL     1      -5.580   4.768  -3.287  0.00  0.00    -0.110 NA
ATOM     15  N   UNL     1      -4.891   3.967  -2.559  0.00  0.00    -0.136 NA
ENDBRANCH   2  11
BRANCH   1  16
ATOM     16  C   UNL     1      -2.533   1.387   0.021  0.00  0.00    +0.233 C 
BRANCH  16  17
ATOM     17  C   UNL     1      -1.103   1.863   0.017  0.00  0.00    +0.135 A 
ATOM     18  C   UNL     1      -0.013   1.076   0.008  0.00  0.00    +0.047 A 
ATOM     19  C   UNL     1       1.111   1.934   0.002  0.00  0.00    +0.041 A 
ATOM     20  C   UNL     1       0.640   3.193   0.012  0.00  0.00    +0.195 A 
ATOM     21  O   UNL     1      -0.702   3.144   0.024  0.00  0.00    -0.465 OA
ENDBRANCH  16  17
BRANCH  16  23
ATOM     22  N   UNL     1      -2.499   0.745   2.409  0.00  0.00    -0.309 N 
ATOM     23  C   UNL     1      -3.082   1.455   1.423  0.00  0.00    +0.242 C 
ATOM     24  O   UNL     1      -4.047   2.149   1.663  0.00  0.00    -0.273 OA
ATOM     25  H   UNL     1      -1.728   0.190   2.217  0.00  0.00    +0.149 HD
BRANCH  22  27
ATOM     26  C   UNL     1      -4.484   0.329   3.776  0.00  0.00    +0.031 C 
ATOM     27  C   UNL     1      -3.033   0.812   3.772  0.00  0.00    +0.026 C 
ATOM     28  C   UNL     1      -2.196  -0.080   4.691  0.00  0.00    +0.031 C 
ATOM     29  C   UNL     1      -2.974   2.257   4.273  0.00  0.00    +0.031 C 
ENDBRANCH  22  27
ENDBRANCH  16  23
ENDBRANCH   1  16
TORSDOF 6
