REMARK  Name = ZINC38773817
REMARK  10 active torsions:
REMARK  status: ('A' for Active; 'I' for Inactive)
REMARK    1  A    between atoms: C_6  and  C_7
REMARK    2  A    between atoms: C_11  and  C_13
REMARK    3  A    between atoms: C_16  and  O_20
REMARK    4  A    between atoms: C_18  and  O_19
REMARK    5  A    between atoms: O_20  and  C_21
REMARK    6  A    between atoms: C_23  and  O_36
REMARK    7  A    between atoms: C_25  and  O_35
REMARK    8  A    between atoms: C_27  and  O_34
REMARK    9  A    between atoms: C_29  and  C_32
REMARK   10  A    between atoms: C_32  and  O_33
REMARK                            x       y       z     vdW  Elec       q    Type
REMARK                         _______ _______ _______ _____ _____    ______ ____
ROOT
ATOM      1  C   UNL     1      -1.739  -1.383   2.371  0.00  0.00    +0.022 A 
ATOM      2  C   UNL     1      -1.869  -2.731   2.646  0.00  0.00    +0.013 A 
ATOM      3  C   UNL     1      -1.342  -3.255   3.811  0.00  0.00    +0.046 A 
ATOM      4  C   UNL     1      -0.681  -2.428   4.708  0.00  0.00    +0.127 A 
ATOM      5  C   UNL     1      -0.550  -1.075   4.435  0.00  0.00    +0.091 A 
ATOM      6  C   UNL     1      -1.074  -0.553   3.263  0.00  0.00    +0.126 A 
ENDROOT
BRANCH   1  11
ATOM      7  C   UNL     1      -1.260  -0.759   0.009  0.00  0.00    +0.008 C 
ATOM      8  C   UNL     1      -1.753  -1.575  -0.954  0.00  0.00    +0.139 C 
ATOM      9  N   UNL     1      -2.933  -2.084  -0.579  0.00  0.00    -0.185 NA
ATOM     10  N   UNL     1      -3.326  -1.723   0.531  0.00  0.00    -0.297 N 
ATOM     11  C   UNL     1      -2.315  -0.815   1.100  0.00  0.00    +0.164 C 
ATOM     12  H   UNL     1      -4.155  -1.992   0.958  0.00  0.00    +0.183 HD
BRANCH   7  18
ATOM     13  C   UNL     1      -0.017   1.395   0.010  0.00  0.00    +0.012 A 
ATOM     14  C   UNL     1       1.167   2.098   0.002  0.00  0.00    +0.050 A 
ATOM     15  C   UNL     1       2.383   1.425  -0.013  0.00  0.00    +0.162 A 
ATOM     16  C   UNL     1       2.410   0.032  -0.018  0.00  0.00    +0.163 A 
ATOM     17  C   UNL     1       1.226  -0.682  -0.012  0.00  0.00    +0.057 A 
ATOM     18  C   UNL     1       0.002  -0.004   0.002  0.00  0.00    -0.014 A 
ATOM     19  O   UNL     1       3.593  -0.641  -0.025  0.00  0.00    -0.485 OA
ATOM     20  C   UNL     1       4.755   0.103  -0.406  0.00  0.00    +0.270 C 
ATOM     21  C   UNL     1       4.734   1.443   0.342  0.00  0.00    +0.270 C 
ATOM     22  O   UNL     1       3.539   2.142  -0.024  0.00  0.00    -0.485 OA
ENDBRANCH   7  18
ENDBRANCH   1  11
BRANCH   6  23
ATOM     23  O   UNL     1      -0.942   0.772   2.989  0.00  0.00    -0.506 OA
ATOM     24  H   UNL     1      -1.665   1.317   3.327  0.00  0.00    +0.292 HD
ENDBRANCH   6  23
BRANCH   4  25
ATOM     25  O   UNL     1      -0.164  -2.943   5.854  0.00  0.00    -0.461 OA
BRANCH  25  26
ATOM     26  C   UNL     1      -0.337  -4.345   6.071  0.00  0.00    +0.339 C 
ATOM     27  C   UNL     1       0.413  -4.762   7.339  0.00  0.00    +0.214 C 
ATOM     28  C   UNL     1       0.173  -6.253   7.597  0.00  0.00    +0.180 C 
ATOM     29  C   UNL     1      -1.334  -6.505   7.704  0.00  0.00    +0.177 C 
ATOM     30  C   UNL     1      -2.016  -6.021   6.421  0.00  0.00    +0.179 C 
ATOM     31  O   UNL     1      -1.728  -4.636   6.224  0.00  0.00    -0.331 OA
BRANCH  29  32
ATOM     32  O   UNL     1      -1.573  -7.904   7.874  0.00  0.00    -0.386 OA
ATOM     33  H   UNL     1      -1.164  -8.279   8.666  0.00  0.00    +0.210 HD
ENDBRANCH  29  32
BRANCH  28  34
ATOM     34  O   UNL     1       0.811  -6.635   8.818  0.00  0.00    -0.386 OA
ATOM     35  H   UNL     1       1.768  -6.495   8.822  0.00  0.00    +0.210 HD
ENDBRANCH  28  34
BRANCH  27  36
ATOM     36  O   UNL     1       1.812  -4.525   7.166  0.00  0.00    -0.383 OA
ATOM     37  H   UNL     1       2.035  -3.600   6.994  0.00  0.00    +0.210 HD
ENDBRANCH  27  36
BRANCH  30  38
ATOM     38  C   UNL     1      -3.529  -6.215   6.544  0.00  0.00    +0.190 C 
BRANCH  38  39
ATOM     39  O   UNL     1      -4.155  -5.872   5.306  0.00  0.00    -0.392 OA
ATOM     40  H   UNL     1      -5.117  -5.972   5.311  0.00  0.00    +0.210 HD
ENDBRANCH  38  39
ENDBRANCH  30  38
ENDBRANCH  25  26
ENDBRANCH   4  25
TORSDOF 10
