REMARK  Name = ZINC44243861
REMARK  8 active torsions:
REMARK  status: ('A' for Active; 'I' for Inactive)
REMARK    1  A    between atoms: C_1  and  C_2
REMARK    2  A    between atoms: C_2  and  C_3
REMARK    3  A    between atoms: C_3  and  C_4
REMARK    4  A    between atoms: C_4  and  C_6
REMARK    5  A    between atoms: C_4  and  N_10
REMARK    6  A    between atoms: N_7  and  O_8
REMARK    7  A    between atoms: N_10  and  S_11
REMARK    8  A    between atoms: S_11  and  C_14
REMARK                            x       y       z     vdW  Elec       q    Type
REMARK                         _______ _______ _______ _____ _____    ______ ____
ROOT
ATOM      1  N   UNL     1      -0.810  -2.550   1.248  0.00  0.00    -0.180 NA
ATOM      2  H   UNL     1      -0.956  -2.070   2.078  0.00  0.00    +0.149 HD
ENDROOT
BRANCH   1   3
ATOM      3  S   UNL     1       0.118  -3.922   1.237  0.00  0.00    +0.060 S 
ATOM      4  O   UNL     1       0.574  -4.115   2.569  0.00  0.00    -0.153 OA
ATOM      5  O   UNL     1      -0.624  -4.909   0.535  0.00  0.00    -0.153 OA
BRANCH   3   6
ATOM      6  C   UNL     1       1.545  -3.576   0.262  0.00  0.00    +0.124 A 
ATOM      7  C   UNL     1       1.536  -3.815  -1.104  0.00  0.00    +0.046 A 
ATOM      8  C   UNL     1       2.682  -3.528  -1.831  0.00  0.00    +0.038 A 
ATOM      9  C   UNL     1       3.787  -3.018  -1.174  0.00  0.00    +0.126 A 
ATOM     10  N   UNL     1       3.758  -2.804   0.127  0.00  0.00    -0.260 NA
ATOM     11  C   UNL     1       2.684  -3.059   0.848  0.00  0.00    +0.139 A 
ATOM     12 BR   UNL     1       2.734  -3.832  -3.697  0.00  0.00    -0.049 Br
ENDBRANCH   3   6
ENDBRANCH   1   3
BRANCH   1  13
ATOM     13  C   UNL     1      -1.413  -2.063   0.004  0.00  0.00    +0.143 C 
BRANCH  13  14
ATOM     14  C   UNL     1      -2.822  -2.584  -0.109  0.00  0.00    +0.150 C 
ATOM     15  N   UNL     1      -3.546  -2.723   0.952  0.00  0.00    -0.075 NA
ATOM     16  N   UNL     1      -3.338  -2.912  -1.343  0.00  0.00    -0.343 N 
ATOM     17  H   UNL     1      -2.794  -2.808  -2.139  0.00  0.00    +0.144 HD
ATOM     18  H   UNL     1      -4.245  -3.247  -1.416  0.00  0.00    +0.144 HD
BRANCH  15  19
ATOM     19  O   UNL     1      -4.871  -3.213   0.846  0.00  0.00    -0.408 OA
ATOM     20  H   UNL     1      -5.334  -3.282   1.692  0.00  0.00    +0.328 HD
ENDBRANCH  15  19
ENDBRANCH  13  14
BRANCH  13  21
ATOM     21  C   UNL     1      -1.433  -0.534   0.013  0.00  0.00    +0.028 C 
BRANCH  21  23
ATOM     22  C   UNL     1      -0.019   1.526   0.010  0.00  0.00    +0.004 C 
ATOM     23  C   UNL     1       0.002  -0.004   0.002  0.00  0.00    -0.001 C 
ENDBRANCH  21  23
ENDBRANCH  13  21
ENDBRANCH   1  13
TORSDOF 7
