REMARK  Name = ZINC38925996
REMARK  5 active torsions:
REMARK  status: ('A' for Active; 'I' for Inactive)
REMARK    1  A    between atoms: C_3  and  O_28
REMARK    2  A    between atoms: C_4  and  C_8
REMARK    3  A    between atoms: N_9  and  N_10
REMARK    4  A    between atoms: C_11  and  C_13
REMARK    5  A    between atoms: C_16  and  C_18
REMARK                            x       y       z     vdW  Elec       q    Type
REMARK                         _______ _______ _______ _____ _____    ______ ____
ROOT
ATOM      1  N   UNL     1       6.030  -0.708  -0.062  0.00  0.00    -0.202 N 
ATOM      2  C   UNL     1       7.187  -0.017  -0.071  0.00  0.00    +0.280 C 
ATOM      3  O   UNL     1       7.170   1.200  -0.064  0.00  0.00    -0.267 OA
ATOM      4  H   UNL     1       6.044  -1.677  -0.068  0.00  0.00    +0.178 HD
ENDROOT
BRANCH   2   5
ATOM      5  C   UNL     1       8.470  -0.734  -0.088  0.00  0.00    +0.132 C 
ATOM      6  N   UNL     1       8.662  -2.024  -0.102  0.00  0.00    -0.149 NA
ATOM      7  N   UNL     1       9.888  -2.373  -0.116  0.00  0.00    -0.157 NA
ATOM      8  C   UNL     1      10.731  -1.386  -0.113  0.00  0.00    +0.053 C 
ATOM      9  C   UNL     1       9.868  -0.135  -0.099  0.00  0.00    +0.116 C 
BRANCH   8  10
ATOM     10  C   UNL     1      12.236  -1.464  -0.126  0.00  0.00    +0.012 C 
ATOM     11  C   UNL     1      12.793  -0.782   1.126  0.00  0.00    +0.016 C 
ATOM     12  C   UNL     1      14.321  -0.861   1.113  0.00  0.00    -0.010 C 
ATOM     13  C   UNL     1      14.756  -2.328   1.094  0.00  0.00    +0.007 C 
ATOM     14  C   UNL     1      14.199  -3.009  -0.158  0.00  0.00    -0.010 C 
ATOM     15  C   UNL     1      12.671  -2.930  -0.145  0.00  0.00    +0.016 C 
ATOM     16  C   UNL     1      14.736  -2.301  -1.404  0.00  0.00    +0.007 C 
ATOM     17  C   UNL     1      14.300  -0.835  -1.385  0.00  0.00    -0.010 C 
ATOM     18  C   UNL     1      14.857  -0.154  -0.134  0.00  0.00    +0.007 C 
ATOM     19  C   UNL     1      12.772  -0.756  -1.372  0.00  0.00    +0.016 C 
ENDBRANCH   8  10
ENDBRANCH   2   5
BRANCH   1  21
ATOM     20  C   UNL     1       3.691  -0.690  -0.038  0.00  0.00    +0.142 C 
ATOM     21  N   UNL     1       4.807  -0.024  -0.046  0.00  0.00    -0.187 NA
BRANCH  20  25
ATOM     22  C   UNL     1      -0.017   1.381   0.010  0.00  0.00    +0.019 A 
ATOM     23  C   UNL     1       1.166   2.096   0.002  0.00  0.00    +0.047 A 
ATOM     24  C   UNL     1       2.381   1.430  -0.013  0.00  0.00    +0.126 A 
ATOM     25  C   UNL     1       2.405   0.028  -0.021  0.00  0.00    +0.037 A 
ATOM     26  C   UNL     1       1.203  -0.683  -0.013  0.00  0.00    +0.028 A 
ATOM     27  C   UNL     1       0.002  -0.004   0.002  0.00  0.00    +0.019 A 
ATOM     28 BR   UNL     1      -1.625  -0.968   0.012  0.00  0.00    -0.050 Br
BRANCH  24  29
ATOM     29  O   UNL     1       3.543   2.133  -0.022  0.00  0.00    -0.506 OA
ATOM     30  H   UNL     1       3.889   2.332   0.859  0.00  0.00    +0.292 HD
ENDBRANCH  24  29
ENDBRANCH  20  25
ENDBRANCH   1  21
TORSDOF 5
