REMARK  Name = ZINC36855957
REMARK  5 active torsions:
REMARK  status: ('A' for Active; 'I' for Inactive)
REMARK    1  A    between atoms: C_6  and  N_7
REMARK    2  A    between atoms: C_8  and  C_10
REMARK    3  A    between atoms: C_10  and  S_11
REMARK    4  A    between atoms: S_11  and  C_12
REMARK    5  A    between atoms: C_18  and  C_22
REMARK                            x       y       z     vdW  Elec       q    Type
REMARK                         _______ _______ _______ _____ _____    ______ ____
ROOT
ATOM      1  N   UNL     1      -1.202  -0.721   0.009  0.00  0.00    -0.285 N 
ATOM      2  C   UNL     1      -2.374  -0.067   0.125  0.00  0.00    +0.227 C 
ATOM      3  O   UNL     1      -2.395   1.146   0.132  0.00  0.00    -0.275 OA
ATOM      4  H   UNL     1      -1.192  -1.687  -0.073  0.00  0.00    +0.155 HD
ENDROOT
BRANCH   1  10
ATOM      5  C   UNL     1       0.121   1.154   0.763  0.00  0.00    +0.027 A 
ATOM      6  C   UNL     1       1.309   1.862   0.763  0.00  0.00    +0.051 A 
ATOM      7  C   UNL     1       2.381   1.418   0.010  0.00  0.00    +0.167 A 
ATOM      8  C   UNL     1       2.264   0.254  -0.750  0.00  0.00    +0.169 A 
ATOM      9  C   UNL     1       1.076  -0.454  -0.750  0.00  0.00    +0.072 A 
ATOM     10  C   UNL     1       0.002  -0.004   0.008  0.00  0.00    +0.037 A 
ATOM     11  O   UNL     1       3.455   0.038  -1.393  0.00  0.00    -0.447 OA
ATOM     12  C   UNL     1       4.081   1.329  -1.397  0.00  0.00    +0.254 C 
ATOM     13  O   UNL     1       3.645   1.920  -0.165  0.00  0.00    -0.448 OA
ATOM     14  C   UNL     1       3.630   2.162  -2.603  0.00  0.00    +0.093 C 
ATOM     15  C   UNL     1       4.891   2.983  -2.982  0.00  0.00    +0.008 C 
ATOM     16  C   UNL     1       6.046   1.983  -2.722  0.00  0.00    +0.008 C 
ATOM     17  C   UNL     1       5.604   1.214  -1.456  0.00  0.00    +0.093 C 
ENDBRANCH   1  10
BRANCH   2  18
ATOM     18  C   UNL     1      -3.661  -0.842   0.247  0.00  0.00    +0.173 C 
BRANCH  18  19
ATOM     19  S   UNL     1      -5.053   0.313   0.386  0.00  0.00    -0.076 S 
BRANCH  19  20
ATOM     20  C   UNL     1      -6.464  -0.734   0.518  0.00  0.00    +0.196 A 
ATOM     21  N   UNL     1      -6.461  -2.048   0.518  0.00  0.00    -0.122 NA
ATOM     22  N   UNL     1      -7.662  -2.496   0.631  0.00  0.00    -0.127 NA
ATOM     23  C   UNL     1      -8.508  -1.486   0.710  0.00  0.00    +0.180 A 
ATOM     24  N   UNL     1      -7.760  -0.330   0.645  0.00  0.00    -0.276 N 
ATOM     25  C   UNL     1      -8.369   0.893   0.709  0.00  0.00    +0.107 A 
ATOM     26  C   UNL     1      -9.707   0.985   0.839  0.00  0.00    +0.073 A 
ATOM     27  C   UNL     1     -10.498  -0.177   0.912  0.00  0.00    +0.037 A 
ATOM     28  C   UNL     1      -9.910  -1.402   0.841  0.00  0.00    +0.086 A 
ATOM     29 CL   UNL     1     -10.872  -2.844   0.931  0.00  0.00    -0.080 Cl
BRANCH  26  30
ATOM     30  C   UNL     1     -10.361   2.341   0.908  0.00  0.00    +0.419 C 
ATOM     31  F   UNL     1     -10.793   2.715  -0.369  0.00  0.00    -0.166 F 
ATOM     32  F   UNL     1     -11.458   2.286   1.774  0.00  0.00    -0.166 F 
ATOM     33  F   UNL     1      -9.439   3.280   1.382  0.00  0.00    -0.166 F 
ENDBRANCH  26  30
ENDBRANCH  19  20
ENDBRANCH  18  19
ENDBRANCH   2  18
TORSDOF 5
