REMARK  Name = ZINC19941550
REMARK  10 active torsions:
REMARK  status: ('A' for Active; 'I' for Inactive)
REMARK    1  A    between atoms: C_1  and  C_2
REMARK    2  A    between atoms: C_12  and  C_14
REMARK    3  A    between atoms: C_14  and  C_16
REMARK    4  A    between atoms: C_14  and  N_26
REMARK    5  A    between atoms: N_20  and  C_21
REMARK    6  A    between atoms: N_26  and  C_27
REMARK    7  A    between atoms: N_26  and  C_35
REMARK    8  A    between atoms: C_27  and  C_28
REMARK    9  A    between atoms: C_28  and  C_29
REMARK   10  A    between atoms: C_35  and  C_36
REMARK                            x       y       z     vdW  Elec       q    Type
REMARK                         _______ _______ _______ _____ _____    ______ ____
ROOT
ATOM      1  C   UNL     1       0.132  -2.950   4.420  0.00  0.00    +0.163 C 
ENDROOT
BRANCH   1  13
ATOM      2  C   UNL     1      -2.070   0.809  -0.502  0.00  0.00    +0.046 C 
ATOM      3  C   UNL     1      -1.946  -0.687  -0.371  0.00  0.00    -0.026 A 
ATOM      4  C   UNL     1      -2.341  -1.507  -1.406  0.00  0.00    +0.005 A 
ATOM      5  C   UNL     1      -2.226  -2.886  -1.300  0.00  0.00    +0.001 A 
ATOM      6  C   UNL     1      -1.732  -3.458  -0.162  0.00  0.00    +0.010 A 
ATOM      7  C   UNL     1      -1.331  -2.645   0.903  0.00  0.00    -0.001 A 
ATOM      8  C   UNL     1      -1.439  -1.246   0.797  0.00  0.00    +0.052 A 
ATOM      9  N   UNL     1      -1.042  -0.450   1.851  0.00  0.00    -0.322 N 
ATOM     10  H   UNL     1      -1.124   0.645   1.774  0.00  0.00    +0.169 HD
ATOM     11  C   UNL     1      -0.552  -0.991   2.980  0.00  0.00    +0.254 A 
ATOM     12  O   UNL     1      -0.211  -0.256   3.891  0.00  0.00    -0.268 OA
ATOM     13  C   UNL     1      -0.423  -2.387   3.137  0.00  0.00    +0.042 A 
ATOM     14  C   UNL     1      -0.795  -3.224   2.137  0.00  0.00    +0.021 A 
ENDBRANCH   1  13
BRANCH   1  15
ATOM     15  C   UNL     1      -0.825  -2.664   5.549  0.00  0.00    +0.173 A 
ATOM     16  N   UNL     1      -0.853  -1.589   6.297  0.00  0.00    -0.111 NA
ATOM     17  N   UNL     1      -1.813  -1.720   7.146  0.00  0.00    -0.023 NA
ATOM     18  N   UNL     1      -2.393  -2.854   6.964  0.00  0.00    -0.044 NA
ATOM     19  N   UNL     1      -1.813  -3.466   5.988  0.00  0.00    -0.224 N 
BRANCH  19  20
ATOM     20  C   UNL     1      -2.163  -4.786   5.457  0.00  0.00    +0.111 C 
ATOM     21  C   UNL     1      -3.622  -4.784   4.955  0.00  0.00    +0.027 C 
ATOM     22  C   UNL     1      -4.155  -6.188   5.335  0.00  0.00    +0.002 C 
ATOM     23  C   UNL     1      -3.495  -6.444   6.713  0.00  0.00    +0.002 C 
ATOM     24  C   UNL     1      -2.082  -5.841   6.573  0.00  0.00    +0.027 C 
ENDBRANCH  19  20
ENDBRANCH   1  15
BRANCH   1  25
ATOM     25  N   UNL     1       1.430  -2.326   4.708  0.00  0.00    -0.284 NA
BRANCH  25  26
ATOM     26  C   UNL     1       2.356  -2.493   3.580  0.00  0.00    +0.090 C 
BRANCH  26  27
ATOM     27  C   UNL     1       3.571  -1.584   3.779  0.00  0.00    +0.050 C 
BRANCH  27  28
ATOM     28  C   UNL     1       4.471  -1.678   2.574  0.00  0.00    -0.046 A 
ATOM     29  C   UNL     1       5.481  -2.622   2.538  0.00  0.00    +0.003 A 
ATOM     30  C   UNL     1       6.303  -2.712   1.431  0.00  0.00    +0.000 A 
ATOM     31  C   UNL     1       6.123  -1.852   0.364  0.00  0.00    +0.000 A 
ATOM     32  C   UNL     1       5.118  -0.904   0.402  0.00  0.00    +0.000 A 
ATOM     33  C   UNL     1       4.291  -0.818   1.507  0.00  0.00    +0.003 A 
ENDBRANCH  27  28
ENDBRANCH  26  27
ENDBRANCH  25  26
BRANCH  25  34
ATOM     34  C   UNL     1       2.008  -2.861   5.948  0.00  0.00    +0.120 C 
BRANCH  34  35
ATOM     35  C   UNL     1       2.273  -4.336   5.783  0.00  0.00    -0.033 A 
ATOM     36  C   UNL     1       1.315  -5.257   6.163  0.00  0.00    +0.005 A 
ATOM     37  C   UNL     1       1.555  -6.609   6.007  0.00  0.00    +0.000 A 
ATOM     38  C   UNL     1       2.758  -7.041   5.480  0.00  0.00    +0.000 A 
ATOM     39  C   UNL     1       3.719  -6.120   5.105  0.00  0.00    +0.000 A 
ATOM     40  C   UNL     1       3.475  -4.768   5.256  0.00  0.00    +0.005 A 
ENDBRANCH  34  35
ENDBRANCH  25  34
ENDBRANCH   1  25
TORSDOF 9
