REMARK  Name = ZINC14595845
REMARK  4 active torsions:
REMARK  status: ('A' for Active; 'I' for Inactive)
REMARK    1  A    between atoms: C_5  and  C_14
REMARK    2  A    between atoms: N_16  and  N_17
REMARK    3  A    between atoms: C_18  and  C_20
REMARK    4  A    between atoms: C_20  and  C_21
REMARK                            x       y       z     vdW  Elec       q    Type
REMARK                         _______ _______ _______ _____ _____    ______ ____
ROOT
ATOM      1  C   UNL     1       2.859  -0.454  -2.507  0.00  0.00    +0.235 C 
ATOM      2  O   UNL     1       3.301   0.345  -3.306  0.00  0.00    -0.274 OA
ATOM      3  N   UNL     1       2.998  -1.776  -2.729  0.00  0.00    -0.234 N 
ATOM      4  H   UNL     1       2.644  -2.415  -2.091  0.00  0.00    +0.173 HD
ENDROOT
BRANCH   1   8
ATOM      5  C   UNL     1      -0.019   1.526   0.010  0.00  0.00    +0.007 C 
ATOM      6  C   UNL     1       1.417   2.055  -0.000  0.00  0.00    -0.008 C 
ATOM      7  C   UNL     1       2.133   1.562  -1.259  0.00  0.00    +0.020 C 
ATOM      8  C   UNL     1       2.154   0.032  -1.268  0.00  0.00    +0.050 C 
ATOM      9  C   UNL     1       0.718  -0.497  -1.257  0.00  0.00    +0.020 C 
ATOM     10  C   UNL     1       0.002  -0.004   0.002  0.00  0.00    -0.008 C 
ATOM     11  C   UNL     1       0.742  -0.511   1.242  0.00  0.00    +0.026 C 
ATOM     12  C   UNL     1       2.178   0.019   1.231  0.00  0.00    +0.047 C 
ATOM     13  C   UNL     1       2.157   1.548   1.239  0.00  0.00    +0.026 C 
ATOM     14  C   UNL     1       2.894  -0.475  -0.028  0.00  0.00    +0.039 C 
ATOM     15 CL   UNL     1       3.050  -0.579   2.691  0.00  0.00    -0.118 Cl
ENDBRANCH   1   8
BRANCH   3  16
ATOM     16  N   UNL     1       3.654  -2.228  -3.882  0.00  0.00    -0.234 N 
ATOM     17  C   UNL     1       3.793  -3.550  -4.104  0.00  0.00    +0.230 C 
ATOM     18  O   UNL     1       3.350  -4.348  -3.305  0.00  0.00    -0.274 OA
ATOM     19  H   UNL     1       4.008  -1.589  -4.520  0.00  0.00    +0.173 HD
BRANCH  17  20
ATOM     20  C   UNL     1       4.498  -4.036  -5.343  0.00  0.00    +0.104 C 
BRANCH  20  21
ATOM     21  C   UNL     1       4.519  -5.566  -5.352  0.00  0.00    -0.020 C 
ATOM     22  C   UNL     1       3.084  -6.095  -5.341  0.00  0.00    +0.011 C 
ATOM     23  C   UNL     1       3.104  -7.625  -5.349  0.00  0.00    -0.010 C 
ATOM     24  C   UNL     1       3.821  -8.119  -6.608  0.00  0.00    +0.007 C 
ATOM     25  C   UNL     1       5.256  -7.589  -6.619  0.00  0.00    -0.010 C 
ATOM     26  C   UNL     1       5.235  -6.059  -6.611  0.00  0.00    +0.011 C 
ATOM     27  C   UNL     1       5.996  -8.096  -5.380  0.00  0.00    +0.007 C 
ATOM     28  C   UNL     1       5.280  -7.602  -4.121  0.00  0.00    -0.010 C 
ATOM     29  C   UNL     1       3.844  -8.132  -4.110  0.00  0.00    +0.007 C 
ATOM     30  C   UNL     1       5.259  -6.073  -4.112  0.00  0.00    +0.011 C 
ENDBRANCH  20  21
ENDBRANCH  17  20
ENDBRANCH   3  16
TORSDOF 4
