REMARK  Name = ZINC04221956
REMARK  12 active torsions:
REMARK  status: ('A' for Active; 'I' for Inactive)
REMARK    1  A    between atoms: C_1  and  C_2
REMARK    2  A    between atoms: C_7  and  C_9
REMARK    3  A    between atoms: C_9  and  S_10
REMARK    4  A    between atoms: S_10  and  C_11
REMARK    5  A    between atoms: C_18  and  C_41
REMARK    6  A    between atoms: C_21  and  O_40
REMARK    7  A    between atoms: C_23  and  C_27
REMARK    8  A    between atoms: C_27  and  C_29
REMARK    9  A    between atoms: C_27  and  C_30
REMARK   10  A    between atoms: N_32  and  C_33
REMARK   11  A    between atoms: C_33  and  C_34
REMARK   12  A    between atoms: C_34  and  N_78
REMARK                            x       y       z     vdW  Elec       q    Type
REMARK                         _______ _______ _______ _____ _____    ______ ____
ROOT
ATOM      1  C   UNL     1      -5.036   1.464  -1.225  0.00  0.00    +0.014 C 
ATOM      2  C   UNL     1      -4.317   0.701  -0.111  0.00  0.00    +0.042 C 
ATOM      3  C   UNL     1      -5.284   0.449   1.036  0.00  0.00    +0.055 A 
ATOM      4  C   UNL     1      -4.867   0.591   2.322  0.00  0.00    +0.014 A 
ATOM      5  S   UNL     1      -6.326   0.192   3.247  0.00  0.00    -0.076 S 
ATOM      6  C   UNL     1      -7.358  -0.125   1.885  0.00  0.00    +0.089 A 
ATOM      7  N   UNL     1      -6.552   0.086   0.873  0.00  0.00    -0.248 NA
ATOM      8  C   UNL     1      -3.516   0.987   2.802  0.00  0.00    +0.051 C 
ATOM      9  C   UNL     1      -2.513   0.885   1.636  0.00  0.00    -0.022 C 
ATOM     10  C   UNL     1      -3.128   1.530   0.392  0.00  0.00    +0.033 C 
ATOM     11  C   UNL     1      -2.096   1.585  -0.739  0.00  0.00    +0.123 C 
ATOM     12  C   UNL     1      -0.857   2.357  -0.290  0.00  0.00    +0.029 C 
ATOM     13  C   UNL     1      -0.234   1.636   0.909  0.00  0.00    +0.007 C 
ATOM     14  C   UNL     1      -1.243   1.623   2.056  0.00  0.00    +0.008 C 
ATOM     15  C   UNL     1      -2.193  -0.586   1.359  0.00  0.00    +0.012 C 
ENDROOT
BRANCH  12  16
ATOM     16  C   UNL     1       0.156   2.417  -1.435  0.00  0.00    +0.077 C 
ATOM     17  C   UNL     1       0.684   1.010  -1.723  0.00  0.00    +0.017 C 
BRANCH  16  18
ATOM     18  C   UNL     1       1.303   3.313  -1.045  0.00  0.00    +0.216 C 
ATOM     19  O   UNL     1       1.313   3.845   0.045  0.00  0.00    -0.276 OA
ATOM     20  N   UNL     1       2.316   3.525  -1.908  0.00  0.00    -0.317 N 
ATOM     21  H   UNL     1       2.308   3.100  -2.780  0.00  0.00    +0.149 HD
BRANCH  20  22
ATOM     22  C   UNL     1       3.431   4.397  -1.529  0.00  0.00    +0.085 C 
BRANCH  22  23
ATOM     23  C   UNL     1       4.438   4.467  -2.679  0.00  0.00    -0.060 C 
BRANCH  23  29
ATOM     24  C   UNL     1       5.108   6.734  -2.150  0.00  0.00    -0.050 C 
ATOM     25  C   UNL     1       6.288   7.597  -1.696  0.00  0.00    +0.141 C 
ATOM     26  O   UNL     1       7.356   7.470  -2.639  0.00  0.00    -0.383 OA
ATOM     27  C   UNL     1       7.817   6.127  -2.808  0.00  0.00    +0.141 C 
ATOM     28  C   UNL     1       6.652   5.248  -3.273  0.00  0.00    -0.050 C 
ATOM     29  N   UNL     1       5.566   5.334  -2.275  0.00  0.00    +0.384 N 
ATOM     30  H   UNL     1       5.922   5.016  -1.366  0.00  0.00    -0.082 HD
ENDBRANCH  23  29
ENDBRANCH  22  23
ENDBRANCH  20  22
ENDBRANCH  16  18
ENDBRANCH  12  16
BRANCH  11  31
ATOM     31  O   UNL     1      -2.672   2.234  -1.874  0.00  0.00    -0.391 OA
ATOM     32  H   UNL     1      -2.124   2.195  -2.669  0.00  0.00    +0.210 HD
ENDBRANCH  11  31
BRANCH   6  33
ATOM     33  C   UNL     1      -8.808  -0.537   1.871  0.00  0.00    +0.137 C 
BRANCH  33  34
ATOM     34  S   UNL     1      -8.922  -2.348   1.894  0.00  0.00    -0.118 S 
BRANCH  34  35
ATOM     35  C   UNL     1     -10.655  -2.666   1.875  0.00  0.00    +0.008 A 
ATOM     36  C   UNL     1     -11.557  -1.609   1.854  0.00  0.00    +0.015 A 
ATOM     37  C   UNL     1     -12.914  -1.863   1.833  0.00  0.00    +0.001 A 
ATOM     38  C   UNL     1     -13.376  -3.166   1.844  0.00  0.00    +0.000 A 
ATOM     39  C   UNL     1     -12.481  -4.220   1.871  0.00  0.00    +0.001 A 
ATOM     40  C   UNL     1     -11.123  -3.975   1.886  0.00  0.00    +0.015 A 
ENDBRANCH  34  35
ENDBRANCH  33  34
ENDBRANCH   6  33
TORSDOF 9
