REMARK  Name = ZINC35565791
REMARK  12 active torsions:
REMARK  status: ('A' for Active; 'I' for Inactive)
REMARK    1  A    between atoms: C_1  and  C_2
REMARK    2  A    between atoms: C_3  and  C_8
REMARK    3  A    between atoms: C_5  and  C_7
REMARK    4  A    between atoms: C_8  and  C_10
REMARK    5  A    between atoms: C_15  and  C_17
REMARK    6  A    between atoms: C_20  and  N_23
REMARK    7  A    between atoms: N_23  and  C_24
REMARK    8  A    between atoms: N_23  and  C_25
REMARK    9  A    between atoms: C_28  and  C_35
REMARK   10  A    between atoms: C_29  and  C_31
REMARK   11  A    between atoms: C_31  and  O_33
REMARK   12  A    between atoms: O_33  and  C_34
REMARK                            x       y       z     vdW  Elec       q    Type
REMARK                         _______ _______ _______ _____ _____    ______ ____
ROOT
ATOM      1  C   UNL     1      -0.009  -1.164  -3.865  0.00  0.00    +0.077 C 
ATOM      2  C   UNL     1       0.092  -0.902  -5.188  0.00  0.00    +0.250 C 
ATOM      3  C   UNL     1       0.216  -2.173  -5.928  0.00  0.00    +0.293 C 
ATOM      4  O   UNL     1       0.325  -2.271  -7.134  0.00  0.00    -0.266 OA
ATOM      5  N   UNL     1       0.193  -3.209  -5.069  0.00  0.00    -0.232 N 
ATOM      6  C   UNL     1       0.056  -2.666  -3.712  0.00  0.00    +0.152 C 
ATOM      7  C   UNL     1       0.286  -4.546  -5.404  0.00  0.00    +0.169 A 
ATOM      8  N   UNL     1       0.421  -5.080  -6.605  0.00  0.00    -0.229 NA
ATOM      9  C   UNL     1       0.497  -6.375  -6.774  0.00  0.00    +0.062 A 
ATOM     10  C   UNL     1       0.429  -7.151  -5.623  0.00  0.00    +0.120 A 
ATOM     11  S   UNL     1       0.263  -5.881  -4.380  0.00  0.00    -0.045 S 
ATOM     12  C   UNL     1       0.651  -6.992  -8.140  0.00  0.00    +0.067 C 
ATOM     13  O   UNL     1       0.079   0.331  -5.747  0.00  0.00    -0.282 OA
ENDROOT
BRANCH   6  14
ATOM     14  C   UNL     1      -1.212  -3.178  -3.077  0.00  0.00    -0.022 A 
ATOM     15  C   UNL     1      -2.360  -3.308  -3.837  0.00  0.00    +0.007 A 
ATOM     16  C   UNL     1      -3.523  -3.777  -3.259  0.00  0.00    +0.023 A 
ATOM     17  C   UNL     1      -3.538  -4.118  -1.912  0.00  0.00    +0.029 A 
ATOM     18  C   UNL     1      -2.383  -3.986  -1.152  0.00  0.00    +0.023 A 
ATOM     19  C   UNL     1      -1.222  -3.522  -1.738  0.00  0.00    +0.007 A 
BRANCH  17  20
ATOM     20  N   UNL     1      -4.713  -4.592  -1.324  0.00  0.00    -0.336 N 
ATOM     21  C   UNL     1      -5.931  -4.730  -2.127  0.00  0.00    +0.129 C 
ATOM     22  C   UNL     1      -4.728  -4.951   0.097  0.00  0.00    +0.129 C 
ENDBRANCH  17  20
ENDBRANCH   6  14
BRANCH   1  23
ATOM     23  C   UNL     1      -0.149  -0.180  -2.785  0.00  0.00    +0.203 C 
ATOM     24  O   UNL     1      -1.162   0.490  -2.700  0.00  0.00    -0.286 OA
BRANCH  23  27
ATOM     25  C   UNL     1      -0.016   1.938  -0.488  0.00  0.00    +0.067 C 
ATOM     26  C   UNL     1       1.051   0.913  -0.771  0.00  0.00    +0.057 A 
ATOM     27  C   UNL     1       0.932  -0.003  -1.810  0.00  0.00    +0.082 A 
ATOM     28  S   UNL     1       2.463  -0.904  -1.626  0.00  0.00    -0.069 S 
ATOM     29  C   UNL     1       3.071  -0.061  -0.302  0.00  0.00    +0.076 A 
ATOM     30  N   UNL     1       2.145   0.837  -0.056  0.00  0.00    -0.249 NA
ATOM     31  C   UNL     1       4.373  -0.281   0.424  0.00  0.00    +0.073 C 
ENDBRANCH  23  27
ENDBRANCH   1  23
BRANCH  10  32
ATOM     32  C   UNL     1       0.483  -8.604  -5.473  0.00  0.00    +0.347 C 
ATOM     33  O   UNL     1       0.606  -9.313  -6.454  0.00  0.00    -0.244 OA
BRANCH  32  34
ATOM     34  O   UNL     1       0.398  -9.159  -4.246  0.00  0.00    -0.464 OA
ATOM     35  C   UNL     1       0.458 -10.585  -4.173  0.00  0.00    +0.280 C 
ENDBRANCH  32  34
ENDBRANCH  10  32
TORSDOF 6
