REMARK  Name = ZINC14705918
REMARK  6 active torsions:
REMARK  status: ('A' for Active; 'I' for Inactive)
REMARK    1  A    between atoms: C_5  and  C_7
REMARK    2  A    between atoms: C_7  and  C_8
REMARK    3  A    between atoms: C_11  and  S_14
REMARK    4  A    between atoms: N_12  and  N_13
REMARK    5  A    between atoms: S_14  and  C_15
REMARK    6  A    between atoms: C_24  and  C_26
REMARK                            x       y       z     vdW  Elec       q    Type
REMARK                         _______ _______ _______ _____ _____    ______ ____
ROOT
ATOM      1  S   UNL     1       2.439   0.336  -3.196  0.00  0.00    -0.072 S 
ENDROOT
BRANCH   1   2
ATOM      2  C   UNL     1       3.477   0.200  -4.673  0.00  0.00    +0.141 C 
ATOM      3  C   UNL     1       3.427  -1.234  -5.206  0.00  0.00    +0.024 C 
ATOM      4  C   UNL     1       2.051  -1.839  -4.992  0.00  0.00    +0.003 C 
ATOM      5  C   UNL     1       0.958  -1.180  -5.814  0.00  0.00    +0.019 C 
ATOM      6  C   UNL     1       0.719   0.258  -5.351  0.00  0.00    +0.117 C 
ATOM      7  N   UNL     1       1.660   1.143  -6.056  0.00  0.00    -0.237 N 
ATOM      8  C   UNL     1       2.958   1.131  -5.748  0.00  0.00    +0.235 C 
ATOM      9  O   UNL     1       3.724   1.868  -6.331  0.00  0.00    -0.274 OA
ATOM     10  C   UNL     1       1.208   1.971  -7.018  0.00  0.00    +0.253 C 
ATOM     11  O   UNL     1       1.960   2.778  -7.528  0.00  0.00    -0.270 OA
BRANCH  10  12
ATOM     12  C   UNL     1      -0.201   1.897  -7.453  0.00  0.00    +0.037 A 
ATOM     13  C   UNL     1      -0.893   0.686  -7.386  0.00  0.00    +0.016 A 
ATOM     14  C   UNL     1      -2.209   0.624  -7.789  0.00  0.00    +0.039 A 
ATOM     15  C   UNL     1      -2.844   1.759  -8.270  0.00  0.00    +0.123 A 
ATOM     16  C   UNL     1      -2.160   2.963  -8.344  0.00  0.00    +0.039 A 
ATOM     17  C   UNL     1      -0.845   3.038  -7.939  0.00  0.00    +0.016 A 
ATOM     18  F   UNL     1      -4.133   1.692  -8.668  0.00  0.00    -0.205 F 
ENDBRANCH  10  12
ENDBRANCH   1   2
BRANCH   1  22
ATOM     19  C   UNL     1       2.842   3.910  -1.684  0.00  0.00    +0.155 A 
ATOM     20  N   UNL     1       3.630   3.952  -2.721  0.00  0.00    -0.132 NA
ATOM     21  N   UNL     1       3.607   2.825  -3.339  0.00  0.00    -0.121 NA
ATOM     22  C   UNL     1       2.797   1.996  -2.724  0.00  0.00    +0.209 A 
ATOM     23  N   UNL     1       2.287   2.660  -1.645  0.00  0.00    -0.228 N 
BRANCH  23  24
ATOM     24  N   UNL     1       1.404   2.179  -0.721  0.00  0.00    -0.295 N 
ATOM     25  H   UNL     1       0.452   2.354  -1.005  0.00  0.00    +0.163 HD
ATOM     26  H   UNL     1       1.556   1.195  -0.554  0.00  0.00    +0.163 HD
ENDBRANCH  23  24
BRANCH  19  27
ATOM     27  C   UNL     1       2.594   5.028  -0.705  0.00  0.00    +0.116 C 
BRANCH  27  32
ATOM     28  C   UNL     1       0.592   7.771  -2.355  0.00  0.00    +0.000 A 
ATOM     29  C   UNL     1      -0.702   7.393  -2.047  0.00  0.00    +0.003 A 
ATOM     30  C   UNL     1      -0.931   6.247  -1.311  0.00  0.00    +0.038 A 
ATOM     31  C   UNL     1       0.136   5.483  -0.871  0.00  0.00    +0.127 A 
ATOM     32  C   UNL     1       1.431   5.862  -1.179  0.00  0.00    -0.005 A 
ATOM     33  C   UNL     1       1.658   7.006  -1.921  0.00  0.00    +0.007 A 
ATOM     34  F   UNL     1      -0.087   4.365  -0.146  0.00  0.00    -0.205 F 
ENDBRANCH  27  32
ENDBRANCH  19  27
ENDBRANCH   1  22
TORSDOF 6
