REMARK  Name = ZINC23107199
REMARK  4 active torsions:
REMARK  status: ('A' for Active; 'I' for Inactive)
REMARK    1  A    between atoms: C_1  and  S_2
REMARK    2  A    between atoms: S_2  and  C_5
REMARK    3  A    between atoms: N_13  and  C_14
REMARK    4  A    between atoms: C_14  and  C_15
REMARK                            x       y       z     vdW  Elec       q    Type
REMARK                         _______ _______ _______ _____ _____    ______ ____
ROOT
ATOM      1  C   UNL     1       3.892   3.885  -1.510  0.00  0.00    +0.152 A 
ATOM      2  N   UNL     1       3.936   2.714  -2.120  0.00  0.00    -0.215 NA
ATOM      3  C   UNL     1       4.508   2.557  -3.303  0.00  0.00    +0.128 A 
ATOM      4  C   UNL     1       5.107   3.682  -3.937  0.00  0.00    +0.051 A 
ATOM      5  C   UNL     1       5.794   3.748  -5.228  0.00  0.00    -0.025 A 
ATOM      6  C   UNL     1       6.276   4.949  -5.604  0.00  0.00    -0.004 A 
ATOM      7  S   UNL     1       5.853   6.052  -4.281  0.00  0.00    -0.073 S 
ATOM      8  C   UNL     1       5.025   4.894  -3.223  0.00  0.00    +0.114 A 
ATOM      9  N   UNL     1       4.430   4.963  -2.048  0.00  0.00    -0.223 NA
ATOM     10  C   UNL     1       7.012   5.277  -6.867  0.00  0.00    +0.043 C 
ATOM     11  C   UNL     1       7.467   3.964  -7.519  0.00  0.00    +0.005 C 
ATOM     12  C   UNL     1       6.283   2.992  -7.544  0.00  0.00    +0.005 C 
ATOM     13  C   UNL     1       5.966   2.523  -6.123  0.00  0.00    +0.037 C 
ATOM     14  N   UNL     1       4.529   1.316  -3.912  0.00  0.00    -0.343 N 
ATOM     15  H   UNL     1       5.007   1.194  -4.896  0.00  0.00    +0.144 HD
ATOM     16  H   UNL     1       4.069   0.450  -3.413  0.00  0.00    +0.144 HD
ENDROOT
BRANCH   1  17
ATOM     17  C   UNL     1       3.217   3.991  -0.167  0.00  0.00    +0.201 C 
BRANCH  17  26
ATOM     18  C   UNL     1       1.258   5.557  -0.424  0.00  0.00    +0.252 A 
ATOM     19  N   UNL     1      -0.029   5.475  -0.596  0.00  0.00    -0.212 NA
ATOM     20  C   UNL     1      -0.400   4.170  -0.650  0.00  0.00    +0.091 A 
ATOM     21  C   UNL     1      -1.628   3.523  -0.816  0.00  0.00    +0.030 A 
ATOM     22  C   UNL     1      -1.681   2.159  -0.834  0.00  0.00    +0.002 A 
ATOM     23  C   UNL     1      -0.528   1.403  -0.677  0.00  0.00    +0.002 A 
ATOM     24  C   UNL     1       0.694   2.019  -0.511  0.00  0.00    +0.028 A 
ATOM     25  C   UNL     1       0.768   3.405  -0.496  0.00  0.00    +0.071 A 
ATOM     26  N   UNL     1       1.801   4.311  -0.355  0.00  0.00    -0.302 N 
BRANCH  18  28
ATOM     27  C   UNL     1       2.175   7.455   1.472  0.00  0.00    +0.204 C 
ATOM     28  S   UNL     1       2.166   7.062  -0.299  0.00  0.00    +0.027 S 
ATOM     29  O   UNL     1       3.478   6.731  -0.733  0.00  0.00    -0.167 OA
ATOM     30  O   UNL     1       1.387   8.015  -1.008  0.00  0.00    -0.167 OA
ENDBRANCH  18  28
ENDBRANCH  17  26
ENDBRANCH   1  17
TORSDOF 3
