REMARK  Name = ZINC62777725
REMARK  3 active torsions:
REMARK  status: ('A' for Active; 'I' for Inactive)
REMARK    1  A    between atoms: C_6  and  C_7
REMARK    2  A    between atoms: C_8  and  C_14
REMARK    3  A    between atoms: C_12  and  N_13
REMARK                            x       y       z     vdW  Elec       q    Type
REMARK                         _______ _______ _______ _____ _____    ______ ____
ROOT
ATOM      1  C   UNL     1      -1.271  -0.764   0.011  0.00  0.00    +0.049 A 
ATOM      2  C   UNL     1      -2.232  -0.782   1.052  0.00  0.00    +0.105 A 
ATOM      3  N   UNL     1      -3.217  -1.570   0.685  0.00  0.00    -0.172 NA
ATOM      4  N   UNL     1      -2.936  -2.084  -0.587  0.00  0.00    -0.263 N 
ATOM      5  H   UNL     1      -3.500  -2.692  -1.090  0.00  0.00    +0.190 HD
ATOM      6  C   UNL     1      -1.744  -1.583  -0.998  0.00  0.00    +0.120 A 
ENDROOT
BRANCH   1  12
ATOM      7  C   UNL     1      -0.017   1.389   0.010  0.00  0.00    +0.012 A 
ATOM      8  C   UNL     1       1.169   2.096   0.002  0.00  0.00    +0.050 A 
ATOM      9  C   UNL     1       2.381   1.424  -0.013  0.00  0.00    +0.166 A 
ATOM     10  C   UNL     1       2.406   0.030  -0.021  0.00  0.00    +0.167 A 
ATOM     11  C   UNL     1       1.220  -0.682  -0.013  0.00  0.00    +0.058 A 
ATOM     12  C   UNL     1       0.002  -0.004   0.002  0.00  0.00    -0.009 A 
ATOM     13  O   UNL     1       3.708  -0.382  -0.036  0.00  0.00    -0.453 OA
ATOM     14  C   UNL     1       4.470   0.766  -0.450  0.00  0.00    +0.466 C 
ATOM     15  O   UNL     1       3.668   1.883  -0.023  0.00  0.00    -0.453 OA
ENDBRANCH   1  12
BRANCH   2  16
ATOM     16  C   UNL     1      -2.141  -0.040   2.334  0.00  0.00    +0.040 A 
ATOM     17  C   UNL     1      -3.183   0.509   3.023  0.00  0.00    +0.115 A 
ATOM     18  N   UNL     1      -2.678   1.090   4.130  0.00  0.00    -0.284 N 
ATOM     19  H   UNL     1      -3.188   1.560   4.809  0.00  0.00    +0.188 HD
ATOM     20  N   UNL     1      -1.291   0.899   4.131  0.00  0.00    -0.182 NA
ATOM     21  C   UNL     1      -0.965   0.220   3.064  0.00  0.00    +0.144 A 
ENDBRANCH   2  16
BRANCH   6  22
ATOM     22  N   UNL     1      -1.114  -1.845  -2.208  0.00  0.00    -0.343 N 
ATOM     23  H   UNL     1      -0.258  -1.436  -2.407  0.00  0.00    +0.144 HD
ATOM     24  H   UNL     1      -1.531  -2.437  -2.853  0.00  0.00    +0.144 HD
ENDBRANCH   6  22
TORSDOF 3
