REMARK  Name = ZINC12402104
REMARK  9 active torsions:
REMARK  status: ('A' for Active; 'I' for Inactive)
REMARK    1  A    between atoms: C_1  and  C_2
REMARK    2  A    between atoms: C_2  and  C_35
REMARK    3  A    between atoms: C_5  and  C_9
REMARK    4  A    between atoms: C_9  and  C_11
REMARK    5  A    between atoms: C_11  and  C_12
REMARK    6  A    between atoms: C_12  and  C_13
REMARK    7  A    between atoms: C_13  and  N_14
REMARK    8  A    between atoms: N_25  and  C_26
REMARK    9  A    between atoms: C_29  and  N_32
REMARK                            x       y       z     vdW  Elec       q    Type
REMARK                         _______ _______ _______ _____ _____    ______ ____
ROOT
ATOM      1  C   UNL     1       3.510  -6.449  -0.309  0.00  0.00    +0.011 C 
ATOM      2  C   UNL     1       3.594  -4.928  -0.452  0.00  0.00    -0.023 C 
ATOM      3  C   UNL     1       2.277  -4.300   0.001  0.00  0.00    +0.056 C 
ATOM      4  C   UNL     1       2.373  -2.802   0.025  0.00  0.00    +0.011 C 
ATOM      5  C   UNL     1       3.585  -2.138   0.110  0.00  0.00    +0.163 C 
ATOM      6  C   UNL     1       4.835  -2.901   0.179  0.00  0.00    +0.149 C 
ATOM      7  O   UNL     1       5.911  -2.356   0.045  0.00  0.00    -0.296 OA
ATOM      8  C   UNL     1       4.737  -4.393   0.420  0.00  0.00    +0.082 C 
ATOM      9  N   UNL     1       1.240  -2.079  -0.043  0.00  0.00    -0.361 N 
ATOM     10  C   UNL     1       3.855  -4.566  -1.916  0.00  0.00    +0.011 C 
ATOM     11  H   UNL     1       0.974  -1.396   0.777  0.00  0.00    +0.165 HD
ENDROOT
BRANCH   9  12
ATOM     12  C   UNL     1       0.403  -2.195  -1.155  0.00  0.00    +0.039 A 
ATOM     13  C   UNL     1      -0.855  -1.604  -1.145  0.00  0.00    +0.028 A 
ATOM     14  C   UNL     1      -1.680  -1.722  -2.246  0.00  0.00    +0.035 A 
ATOM     15  C   UNL     1      -1.256  -2.426  -3.358  0.00  0.00    +0.126 A 
ATOM     16  C   UNL     1      -0.005  -3.016  -3.372  0.00  0.00    +0.035 A 
ATOM     17  C   UNL     1       0.825  -2.902  -2.274  0.00  0.00    +0.028 A 
BRANCH  15  18
ATOM     18  N   UNL     1      -2.144  -2.551  -4.536  0.00  0.00    +0.056 N 
ATOM     19  O   UNL     1      -3.246  -2.032  -4.526  0.00  0.00    -0.126 OA
ATOM     20  O   UNL     1      -1.772  -3.171  -5.516  0.00  0.00    -0.126 OA
ENDBRANCH  15  18
ENDBRANCH   9  12
BRANCH   5  21
ATOM     21  C   UNL     1       3.618  -0.677   0.134  0.00  0.00    +0.149 C 
ATOM     22  O   UNL     1       2.581  -0.048   0.187  0.00  0.00    -0.296 OA
BRANCH  21  23
ATOM     23  C   UNL     1       4.938   0.048   0.095  0.00  0.00    +0.077 C 
BRANCH  23  24
ATOM     24  C   UNL     1       4.690   1.555   0.017  0.00  0.00    +0.027 C 
BRANCH  24  25
ATOM     25  C   UNL     1       6.025   2.284  -0.145  0.00  0.00    +0.117 C 
BRANCH  25  26
ATOM     26  N   UNL     1       5.788   3.728  -0.220  0.00  0.00    -0.234 N 
ATOM     27  C   UNL     1       5.576   4.407  -1.362  0.00  0.00    +0.254 C 
ATOM     28  O   UNL     1       5.550   3.927  -2.477  0.00  0.00    -0.270 OA
ATOM     29  C   UNL     1       5.375   5.833  -1.032  0.00  0.00    +0.049 A 
ATOM     30  C   UNL     1       5.122   6.973  -1.778  0.00  0.00    +0.014 A 
ATOM     31  C   UNL     1       4.989   8.197  -1.140  0.00  0.00    +0.001 A 
ATOM     32  C   UNL     1       5.106   8.287   0.234  0.00  0.00    +0.001 A 
ATOM     33  C   UNL     1       5.359   7.155   0.994  0.00  0.00    +0.014 A 
ATOM     34  C   UNL     1       5.495   5.925   0.370  0.00  0.00    +0.049 A 
ATOM     35  C   UNL     1       5.759   4.551   0.844  0.00  0.00    +0.254 C 
ATOM     36  O   UNL     1       5.923   4.219   2.001  0.00  0.00    -0.270 OA
ENDBRANCH  25  26
ENDBRANCH  24  25
ENDBRANCH  23  24
ENDBRANCH  21  23
ENDBRANCH   5  21
TORSDOF 7
