REMARK  Name = ZINC39663728
REMARK  13 active torsions:
REMARK  status: ('A' for Active; 'I' for Inactive)
REMARK    1  A    between atoms: C_1  and  C_2
REMARK    2  A    between atoms: C_2  and  O_3
REMARK    3  A    between atoms: O_3  and  C_4
REMARK    4  A    between atoms: C_7  and  C_10
REMARK    5  A    between atoms: C_14  and  C_23
REMARK    6  A    between atoms: N_25  and  C_26
REMARK    7  A    between atoms: C_26  and  C_27
REMARK    8  A    between atoms: C_27  and  C_29
REMARK    9  A    between atoms: C_27  and  N_37
REMARK   10  A    between atoms: C_32  and  O_35
REMARK   11  A    between atoms: O_35  and  C_36
REMARK   12  A    between atoms: N_37  and  C_38
REMARK   13  A    between atoms: N_37  and  C_39
REMARK                            x       y       z     vdW  Elec       q    Type
REMARK                         _______ _______ _______ _____ _____    ______ ____
ROOT
ATOM      1  C   UNL     1      -2.155  -6.249   0.143  0.00  0.00    +0.247 C 
ATOM      2  O   UNL     1      -1.248  -7.057   0.093  0.00  0.00    -0.270 OA
ATOM      3  N   UNL     1      -3.430  -6.673   0.245  0.00  0.00    -0.296 N 
ATOM      4  C   UNL     1      -4.666  -5.856   0.192  0.00  0.00    +0.121 C 
ATOM      5  C   UNL     1      -5.665  -6.713  -0.618  0.00  0.00    +0.100 C 
ATOM      6  C   UNL     1      -5.167  -8.158  -0.452  0.00  0.00    -0.004 C 
ATOM      7  C   UNL     1      -3.914  -8.062   0.430  0.00  0.00    +0.115 C 
ATOM      8  C   UNL     1      -4.805  -8.752  -1.810  0.00  0.00    -0.010 C 
ATOM      9  C   UNL     1      -4.367 -10.207  -1.625  0.00  0.00    -0.082 C 
ATOM     10  N   UNL     1      -5.457 -10.974  -1.009  0.00  0.00    +0.379 N 
ATOM     11  C   UNL     1      -5.737 -10.455   0.335  0.00  0.00    -0.082 C 
ATOM     12  C   UNL     1      -6.232  -9.009   0.233  0.00  0.00    -0.010 C 
ATOM     13  H   UNL     1      -6.286 -10.893  -1.579  0.00  0.00    -0.086 HD
ATOM     14  H   UNL     1      -5.189 -11.944  -0.945  0.00  0.00    -0.086 HD
ENDROOT
BRANCH   1  18
ATOM     15  C   UNL     1      -1.305  -2.091  -0.007  0.00  0.00    +0.121 A 
ATOM     16  C   UNL     1      -2.511  -2.533   0.522  0.00  0.00    +0.046 A 
ATOM     17  C   UNL     1      -2.791  -3.880   0.573  0.00  0.00    +0.016 A 
ATOM     18  C   UNL     1      -1.860  -4.804   0.090  0.00  0.00    +0.037 A 
ATOM     19  C   UNL     1      -0.648  -4.355  -0.442  0.00  0.00    +0.016 A 
ATOM     20  C   UNL     1      -0.378  -3.006  -0.493  0.00  0.00    +0.046 A 
BRANCH  15  21
ATOM     21  O   UNL     1      -1.033  -0.762  -0.055  0.00  0.00    -0.492 OA
BRANCH  21  23
ATOM     22  C   UNL     1      -1.548   1.569   0.323  0.00  0.00    +0.048 C 
ATOM     23  C   UNL     1      -2.029   0.123   0.462  0.00  0.00    +0.225 C 
ENDBRANCH  21  23
ENDBRANCH  15  21
ENDBRANCH   1  18
BRANCH   5  24
ATOM     24  C   UNL     1      -5.644  -6.311  -2.070  0.00  0.00    +0.218 C 
ATOM     25  O   UNL     1      -4.609  -5.938  -2.581  0.00  0.00    -0.275 OA
ATOM     26  N   UNL     1      -6.774  -6.368  -2.802  0.00  0.00    -0.316 N 
ATOM     27  H   UNL     1      -7.601  -6.667  -2.394  0.00  0.00    +0.149 HD
BRANCH  26  28
ATOM     28  C   UNL     1      -6.753  -5.978  -4.214  0.00  0.00    +0.093 C 
BRANCH  28  29
ATOM     29  C   UNL     1      -8.124  -6.246  -4.837  0.00  0.00    -0.021 C 
BRANCH  29  30
ATOM     30  C   UNL     1      -9.152  -5.350  -4.196  0.00  0.00    -0.059 A 
ATOM     31  C   UNL     1      -9.269  -4.034  -4.601  0.00  0.00    +0.005 A 
ATOM     32  C   UNL     1     -10.210  -3.210  -4.014  0.00  0.00    +0.046 A 
ATOM     33  C   UNL     1     -11.039  -3.705  -3.017  0.00  0.00    +0.120 A 
ATOM     34  C   UNL     1     -10.919  -5.027  -2.612  0.00  0.00    +0.046 A 
ATOM     35  C   UNL     1      -9.980  -5.848  -3.206  0.00  0.00    +0.005 A 
BRANCH  33  36
ATOM     36  O   UNL     1     -11.965  -2.897  -2.438  0.00  0.00    -0.495 OA
ATOM     37  C   UNL     1     -12.783  -3.475  -1.418  0.00  0.00    +0.277 C 
ENDBRANCH  33  36
ENDBRANCH  29  30
BRANCH  29  38
ATOM     38  N   UNL     1      -8.068  -5.973  -6.280  0.00  0.00    +0.382 N 
ATOM     39  C   UNL     1      -7.137  -6.910  -6.920  0.00  0.00    -0.096 C 
ATOM     40  C   UNL     1      -9.407  -6.138  -6.862  0.00  0.00    -0.096 C 
ATOM     41  H   UNL     1      -7.750  -5.027  -6.430  0.00  0.00    -0.082 HD
ENDBRANCH  29  38
ENDBRANCH  28  29
ENDBRANCH  26  28
ENDBRANCH   5  24
TORSDOF 9
