REMARK  Name = ZINC57054060
REMARK  10 active torsions:
REMARK  status: ('A' for Active; 'I' for Inactive)
REMARK    1  A    between atoms: C_1  and  C_2
REMARK    2  A    between atoms: N_5  and  C_17
REMARK    3  A    between atoms: N_8  and  C_9
REMARK    4  A    between atoms: C_12  and  O_15
REMARK    5  A    between atoms: O_15  and  C_16
REMARK    6  A    between atoms: C_17  and  C_18
REMARK    7  A    between atoms: N_20  and  C_21
REMARK    8  A    between atoms: C_30  and  C_31
REMARK    9  A    between atoms: C_31  and  O_33
REMARK   10  A    between atoms: O_33  and  C_34
REMARK                            x       y       z     vdW  Elec       q    Type
REMARK                         _______ _______ _______ _____ _____    ______ ____
ROOT
ATOM      1  C   UNL     1       1.373  -4.333  -2.225  0.00  0.00    +0.231 C 
ATOM      2  O   UNL     1       1.073  -4.774  -1.136  0.00  0.00    -0.274 OA
ATOM      3  N   UNL     1       1.450  -5.158  -3.288  0.00  0.00    -0.282 N 
ATOM      4  H   UNL     1       1.745  -4.817  -4.147  0.00  0.00    +0.155 HD
ENDROOT
BRANCH   3   5
ATOM      5  C   UNL     1       1.105  -6.499  -3.155  0.00  0.00    +0.073 A 
ATOM      6  C   UNL     1       0.172  -7.070  -2.180  0.00  0.00    +0.023 A 
ATOM      7  C   UNL     1      -0.609  -6.519  -1.158  0.00  0.00    +0.027 A 
ATOM      8  C   UNL     1      -1.400  -7.331  -0.397  0.00  0.00    +0.019 A 
ATOM      9  C   UNL     1      -1.436  -8.701  -0.629  0.00  0.00    +0.017 A 
ATOM     10  C   UNL     1      -0.676  -9.264  -1.629  0.00  0.00    +0.027 A 
ATOM     11  C   UNL     1       0.139  -8.456  -2.419  0.00  0.00    +0.049 A 
ATOM     12  N   UNL     1       0.989  -8.726  -3.466  0.00  0.00    -0.348 N 
ATOM     13  H   UNL     1       1.155  -9.607  -3.836  0.00  0.00    +0.166 HD
ATOM     14  C   UNL     1       1.570  -7.550  -3.917  0.00  0.00    +0.147 A 
ATOM     15 BR   UNL     1      -2.455  -6.586   0.985  0.00  0.00    -0.050 Br
BRANCH  14  16
ATOM     16  C   UNL     1       2.495  -7.446  -4.987  0.00  0.00    +0.357 C 
ATOM     17  O   UNL     1       3.034  -6.381  -5.224  0.00  0.00    -0.243 OA
BRANCH  16  18
ATOM     18  O   UNL     1       2.777  -8.527  -5.744  0.00  0.00    -0.463 OA
ATOM     19  C   UNL     1       3.717  -8.350  -6.805  0.00  0.00    +0.280 C 
ENDBRANCH  16  18
ENDBRANCH  14  16
ENDBRANCH   3   5
BRANCH   1  20
ATOM     20  C   UNL     1       1.662  -2.864  -2.390  0.00  0.00    +0.181 C 
BRANCH  20  24
ATOM     21  C   UNL     1       1.407   1.453  -0.034  0.00  0.00    +0.029 C 
ATOM     22  C   UNL     1       1.212  -0.060   0.082  0.00  0.00    +0.084 C 
ATOM     23  C   UNL     1       1.551  -0.727  -1.255  0.00  0.00    +0.107 C 
ATOM     24  N   UNL     1       1.512  -2.187  -1.094  0.00  0.00    -0.291 NA
ATOM     25  C   UNL     1       2.531  -2.646  -0.140  0.00  0.00    +0.104 C 
ATOM     26  C   UNL     1       2.232  -2.057   1.243  0.00  0.00    +0.121 C 
ATOM     27  N   UNL     1       2.110  -0.596   1.117  0.00  0.00    -0.325 N 
BRANCH  27  28
ATOM     28  C   UNL     1       2.832   0.261   1.955  0.00  0.00    +0.030 A 
ATOM     29  C   UNL     1       4.182   0.486   1.721  0.00  0.00    +0.027 A 
ATOM     30  C   UNL     1       4.894   1.332   2.548  0.00  0.00    +0.047 A 
ATOM     31  C   UNL     1       4.261   1.957   3.613  0.00  0.00    +0.120 A 
ATOM     32  C   UNL     1       2.913   1.731   3.848  0.00  0.00    +0.047 A 
ATOM     33  C   UNL     1       2.198   0.890   3.018  0.00  0.00    +0.027 A 
BRANCH  31  34
ATOM     34  O   UNL     1       4.963   2.790   4.427  0.00  0.00    -0.495 OA
ATOM     35  C   UNL     1       4.248   3.399   5.504  0.00  0.00    +0.277 C 
ENDBRANCH  31  34
ENDBRANCH  27  28
ENDBRANCH  20  24
ENDBRANCH   1  20
TORSDOF 7
