REMARK  Name = ZINC06300912
REMARK  10 active torsions:
REMARK  status: ('A' for Active; 'I' for Inactive)
REMARK    1  A    between atoms: C_1  and  C_2
REMARK    2  A    between atoms: C_4  and  C_37
REMARK    3  A    between atoms: C_9  and  C_14
REMARK    4  A    between atoms: C_14  and  C_16
REMARK    5  A    between atoms: C_14  and  N_67
REMARK    6  A    between atoms: N_20  and  C_21
REMARK    7  A    between atoms: C_21  and  C_22
REMARK    8  A    between atoms: C_21  and  C_23
REMARK    9  A    between atoms: C_21  and  C_24
REMARK   10  A    between atoms: C_27  and  C_30
REMARK                            x       y       z     vdW  Elec       q    Type
REMARK                         _______ _______ _______ _____ _____    ______ ____
ROOT
ATOM      1  C   UNL     1       1.564   3.165  -0.294  0.00  0.00    +0.039 C 
ENDROOT
BRANCH   1  10
ATOM      2  C   UNL     1       3.005   4.925  -7.396  0.00  0.00    +0.044 C 
ATOM      3  C   UNL     1       2.048   4.482  -6.321  0.00  0.00    -0.050 A 
ATOM      4  C   UNL     1       0.721   4.228  -6.642  0.00  0.00    +0.008 A 
ATOM      5  C   UNL     1      -0.172   3.821  -5.675  0.00  0.00    -0.026 A 
ATOM      6  C   UNL     1       0.258   3.662  -4.361  0.00  0.00    +0.052 A 
ATOM      7  C   UNL     1       1.604   3.921  -4.039  0.00  0.00    -0.001 A 
ATOM      8  C   UNL     1       2.492   4.333  -5.037  0.00  0.00    +0.013 A 
ATOM      9  C   UNL     1       2.047   3.751  -2.654  0.00  0.00    +0.017 A 
ATOM     10  C   UNL     1       1.141   3.350  -1.728  0.00  0.00    +0.011 A 
ATOM     11  C   UNL     1      -0.196   3.099  -2.105  0.00  0.00    +0.251 A 
ATOM     12  O   UNL     1      -0.993   2.733  -1.258  0.00  0.00    -0.268 OA
ATOM     13  N   UNL     1      -0.614   3.257  -3.373  0.00  0.00    -0.322 N 
ATOM     14  H   UNL     1      -1.540   3.079  -3.597  0.00  0.00    +0.169 HD
ATOM     15  C   UNL     1      -1.609   3.548  -6.038  0.00  0.00    +0.046 C 
ENDBRANCH   1  10
BRANCH   1  21
ATOM     16  C   UNL     1       0.839   5.403   0.291  0.00  0.00    -0.072 C 
ATOM     17  C   UNL     1      -0.298   6.154   0.989  0.00  0.00    +0.017 C 
ATOM     18  C   UNL     1      -0.388   5.718   2.424  0.00  0.00    -0.048 C 
ATOM     19  C   UNL     1       0.184   4.621   2.870  0.00  0.00    -0.041 C 
ATOM     20  C   UNL     1       0.985   3.701   1.995  0.00  0.00    -0.049 C 
ATOM     21  N   UNL     1       0.672   3.963   0.578  0.00  0.00    +0.392 N 
ATOM     22  H   UNL     1      -0.302   3.695   0.394  0.00  0.00    -0.080 HD
BRANCH  18  23
ATOM     23  C   UNL     1      -1.148   6.557   3.374  0.00  0.00    -0.022 A 
ATOM     24  C   UNL     1      -2.525   6.721   3.216  0.00  0.00    +0.011 A 
ATOM     25  C   UNL     1      -3.231   7.500   4.109  0.00  0.00    +0.039 A 
ATOM     26  C   UNL     1      -2.574   8.129   5.154  0.00  0.00    +0.123 A 
ATOM     27  C   UNL     1      -1.206   7.975   5.311  0.00  0.00    +0.039 A 
ATOM     28  C   UNL     1      -0.491   7.193   4.428  0.00  0.00    +0.011 A 
ATOM     29  F   UNL     1      -3.269   8.896   6.022  0.00  0.00    -0.205 F 
ENDBRANCH  18  23
ENDBRANCH   1  21
BRANCH   1  30
ATOM     30  C   UNL     1       1.448   1.710   0.081  0.00  0.00    +0.143 A 
ATOM     31  N   UNL     1       0.340   1.024   0.224  0.00  0.00    -0.115 NA
ATOM     32  N   UNL     1       0.658  -0.182   0.546  0.00  0.00    -0.023 NA
ATOM     33  N   UNL     1       1.939  -0.284   0.613  0.00  0.00    -0.043 NA
ATOM     34  N   UNL     1       2.463   0.862   0.333  0.00  0.00    -0.225 N 
BRANCH  34  35
ATOM     35  C   UNL     1       3.892   1.179   0.294  0.00  0.00    +0.059 C 
ATOM     36  C   UNL     1       4.704  -0.086   0.580  0.00  0.00    +0.036 C 
ATOM     37  C   UNL     1       4.258   1.719  -1.090  0.00  0.00    +0.036 C 
ATOM     38  C   UNL     1       4.208   2.237   1.354  0.00  0.00    +0.036 C 
ENDBRANCH  34  35
ENDBRANCH   1  30
TORSDOF 5
