REMARK  Name = ZINC65479475
REMARK  8 active torsions:
REMARK  status: ('A' for Active; 'I' for Inactive)
REMARK    1  A    between atoms: C_1  and  C_2
REMARK    2  A    between atoms: C_4  and  C_22
REMARK    3  A    between atoms: C_7  and  N_8
REMARK    4  A    between atoms: N_11  and  C_12
REMARK    5  A    between atoms: C_12  and  C_13
REMARK    6  A    between atoms: C_12  and  C_14
REMARK    7  A    between atoms: C_17  and  C_20
REMARK    8  A    between atoms: N_24  and  C_25
REMARK                            x       y       z     vdW  Elec       q    Type
REMARK                         _______ _______ _______ _____ _____    ______ ____
ROOT
ATOM      1  C   UNL     1      -0.013   1.493   0.004  0.00  0.00    +0.045 C 
ATOM      2  C   UNL     1       0.013  -0.014   0.002  0.00  0.00    -0.028 A 
ATOM      3  C   UNL     1       0.025  -0.699  -1.192  0.00  0.00    +0.018 A 
ATOM      4  C   UNL     1       0.049  -2.096  -1.193  0.00  0.00    +0.037 A 
ATOM      5  C   UNL     1       0.061  -2.793   0.019  0.00  0.00    +0.015 A 
ATOM      6  C   UNL     1       0.049  -2.101   1.208  0.00  0.00    +0.024 A 
ATOM      7  C   UNL     1       0.031  -0.710   1.206  0.00  0.00    +0.038 A 
ENDROOT
BRANCH   7   8
ATOM      8  N   UNL     1       0.025  -0.012   2.413  0.00  0.00    -0.269 N 
ATOM      9  C   UNL     1      -0.632  -0.513   3.478  0.00  0.00    +0.304 C 
ATOM     10  O   UNL     1      -1.150  -1.611   3.411  0.00  0.00    -0.252 OA
ATOM     11  N   UNL     1      -0.716   0.203   4.617  0.00  0.00    -0.293 N 
ATOM     12  H   UNL     1       0.494   0.834   2.487  0.00  0.00    +0.156 HD
ATOM     13  H   UNL     1      -0.302   1.079   4.670  0.00  0.00    +0.151 HD
BRANCH  11  14
ATOM     14  C   UNL     1      -1.430  -0.342   5.774  0.00  0.00    +0.102 C 
ATOM     15  C   UNL     1      -0.487  -1.238   6.580  0.00  0.00    +0.033 C 
BRANCH  14  16
ATOM     16  C   UNL     1      -1.913   0.790   6.644  0.00  0.00    -0.027 A 
ATOM     17  C   UNL     1      -1.104   1.893   6.852  0.00  0.00    +0.007 A 
ATOM     18  C   UNL     1      -1.540   2.932   7.647  0.00  0.00    +0.019 A 
ATOM     19  C   UNL     1      -2.801   2.869   8.243  0.00  0.00    +0.052 A 
ATOM     20  C   UNL     1      -3.613   1.753   8.029  0.00  0.00    +0.019 A 
ATOM     21  C   UNL     1      -3.166   0.723   7.227  0.00  0.00    +0.007 A 
BRANCH  19  22
ATOM     22  C   UNL     1      -3.260   3.944   9.070  0.00  0.00    +0.099 C 
ATOM     23  N   UNL     1      -3.624   4.797   9.726  0.00  0.00    -0.191 NA
ENDBRANCH  19  22
ENDBRANCH  14  16
ENDBRANCH  11  14
ENDBRANCH   7   8
BRANCH   4  24
ATOM     24  C   UNL     1       0.060  -2.835  -2.471  0.00  0.00    +0.244 C 
ATOM     25  O   UNL     1       0.049  -2.227  -3.524  0.00  0.00    -0.270 OA
ATOM     26  N   UNL     1       0.084  -4.182  -2.470  0.00  0.00    -0.308 N 
ATOM     27  H   UNL     1       0.092  -4.667  -1.630  0.00  0.00    +0.149 HD
BRANCH  26  28
ATOM     28  C   UNL     1       0.096  -4.915  -3.739  0.00  0.00    +0.073 C 
ATOM     29  C   UNL     1      -1.349  -5.157  -4.223  0.00  0.00    +0.022 C 
ATOM     30  C   UNL     1      -1.306  -6.570  -4.856  0.00  0.00    +0.002 C 
ATOM     31  C   UNL     1      -0.350  -7.339  -3.910  0.00  0.00    +0.002 C 
ATOM     32  C   UNL     1       0.731  -6.303  -3.540  0.00  0.00    +0.022 C 
ENDBRANCH  26  28
ENDBRANCH   4  24
TORSDOF 6
