REMARK  Name = ZINC48246912
REMARK  6 active torsions:
REMARK  status: ('A' for Active; 'I' for Inactive)
REMARK    1  A    between atoms: C_1  and  C_2
REMARK    2  A    between atoms: C_2  and  C_4
REMARK    3  A    between atoms: C_2  and  N_7
REMARK    4  A    between atoms: C_4  and  C_5
REMARK    5  A    between atoms: N_7  and  C_8
REMARK    6  A    between atoms: N_7  and  C_9
REMARK                            x       y       z     vdW  Elec       q    Type
REMARK                         _______ _______ _______ _____ _____    ______ ____
ROOT
ATOM      1  N   UNL     1       0.830  -0.485  -1.117  0.00  0.00    +0.382 N 
ATOM      2  C   UNL     1       0.603   0.087  -2.450  0.00  0.00    -0.095 C 
ATOM      3  H   UNL     1       1.745  -0.217  -0.787  0.00  0.00    -0.081 HD
ENDROOT
BRANCH   1   4
ATOM      4  C   UNL     1       0.746  -1.950  -1.192  0.00  0.00    -0.069 C 
ATOM      5  C   UNL     1       1.069  -2.541   0.196  0.00  0.00    -0.015 C 
ATOM      6  C   UNL     1       0.504  -3.933   0.266  0.00  0.00    -0.002 C 
ATOM      7  C   UNL     1       1.537  -5.010  -0.117  0.00  0.00    -0.000 C 
ATOM      8  C   UNL     1       2.396  -4.609  -1.331  0.00  0.00    -0.000 C 
ATOM      9  C   UNL     1       1.587  -3.951  -2.416  0.00  0.00    -0.002 C 
ATOM     10  C   UNL     1       1.659  -2.422  -2.223  0.00  0.00    -0.015 C 
ENDBRANCH   1   4
BRANCH   1  12
ATOM     11  C   UNL     1      -1.582  -0.342  -0.717  0.00  0.00    -0.012 C 
ATOM     12  C   UNL     1      -0.192   0.016  -0.188  0.00  0.00    -0.058 C 
BRANCH  12  13
ATOM     13  C   UNL     1      -0.069   1.536  -0.067  0.00  0.00    +0.103 C 
BRANCH  13  14
ATOM     14  C   UNL     1       1.242   1.878   0.511  0.00  0.00    +0.061 C 
ATOM     15  N   UNL     1       2.252   2.141   0.958  0.00  0.00    -0.197 NA
ENDBRANCH  13  14
ENDBRANCH  12  13
ENDBRANCH   1  12
TORSDOF 4
