REMARK  Name = ZINC39945319
REMARK  8 active torsions:
REMARK  status: ('A' for Active; 'I' for Inactive)
REMARK    1  A    between atoms: C_1  and  C_2
REMARK    2  A    between atoms: C_4  and  C_12
REMARK    3  A    between atoms: C_12  and  C_14
REMARK    4  A    between atoms: C_14  and  C_16
REMARK    5  A    between atoms: C_14  and  O_17
REMARK    6  A    between atoms: O_17  and  C_18
REMARK    7  A    between atoms: C_18  and  C_20
REMARK    8  A    between atoms: C_34  and  C_35
REMARK                            x       y       z     vdW  Elec       q    Type
REMARK                         _______ _______ _______ _____ _____    ______ ____
ROOT
ATOM      1  C   UNL     1       3.663   1.260  -7.738  0.00  0.00    +0.073 A 
ATOM      2  C   UNL     1       3.644   2.724  -7.729  0.00  0.00    +0.015 A 
ATOM      3  C   UNL     1       4.318   3.457  -6.748  0.00  0.00    +0.011 A 
ATOM      4  C   UNL     1       4.276   4.820  -6.777  0.00  0.00    +0.001 A 
ATOM      5  C   UNL     1       3.570   5.491  -7.772  0.00  0.00    +0.002 A 
ATOM      6  C   UNL     1       2.902   4.808  -8.742  0.00  0.00    +0.028 A 
ATOM      7  C   UNL     1       2.923   3.400  -8.744  0.00  0.00    +0.072 A 
ATOM      8  N   UNL     1       2.278   2.704  -9.679  0.00  0.00    -0.247 NA
ATOM      9  C   UNL     1       2.278   1.380  -9.710  0.00  0.00    +0.072 A 
ATOM     10  C   UNL     1       2.973   0.614  -8.755  0.00  0.00    -0.007 A 
ATOM     11  C   UNL     1       2.991  -0.889  -8.803  0.00  0.00    +0.038 C 
ATOM     12  C   UNL     1       1.802  -1.432  -9.590  0.00  0.00    +0.009 C 
ATOM     13  C   UNL     1       1.777  -0.786 -10.981  0.00  0.00    +0.037 C 
ATOM     14  C   UNL     1       1.528   0.696 -10.783  0.00  0.00    -0.021 C 
ATOM     15  C   UNL     1       0.665   1.372 -11.570  0.00  0.00    +0.020 C 
ENDROOT
BRANCH  15  16
ATOM     16  C   UNL     1       0.136   0.746 -12.783  0.00  0.00    +0.013 A 
ATOM     17  C   UNL     1      -0.844   1.207 -13.649  0.00  0.00    +0.015 A 
ATOM     18  C   UNL     1      -1.174   0.430 -14.733  0.00  0.00    +0.008 A 
ATOM     19  C   UNL     1      -0.535  -0.755 -14.922  0.00  0.00    +0.046 A 
ATOM     20  S   UNL     1       0.589  -0.808 -13.537  0.00  0.00    -0.097 S 
ENDBRANCH  15  16
BRANCH   1  21
ATOM     21  C   UNL     1       4.395   0.497  -6.706  0.00  0.00    +0.341 C 
ATOM     22  O   UNL     1       5.560   0.203  -6.880  0.00  0.00    -0.245 OA
BRANCH  21  23
ATOM     23  O   UNL     1       3.769   0.128  -5.571  0.00  0.00    -0.450 OA
BRANCH  23  24
ATOM     24  C   UNL     1       4.538  -0.607  -4.617  0.00  0.00    +0.244 C 
ATOM     25  C   UNL     1       4.407  -2.105  -4.901  0.00  0.00    +0.061 C 
BRANCH  24  26
ATOM     26  C   UNL     1       4.029  -0.313  -3.229  0.00  0.00    +0.202 C 
ATOM     27  O   UNL     1       2.943   0.209  -3.078  0.00  0.00    -0.288 OA
BRANCH  26  30
ATOM     28  C   UNL     1       4.378   1.146  -0.423  0.00  0.00    +0.035 C 
ATOM     29  C   UNL     1       4.500  -0.361  -0.652  0.00  0.00    +0.111 C 
ATOM     30  C   UNL     1       4.816  -0.644  -2.104  0.00  0.00    +0.030 C 
ATOM     31  C   UNL     1       6.036  -1.294  -2.099  0.00  0.00    +0.007 A 
ATOM     32  C   UNL     1       6.855  -1.813  -3.130  0.00  0.00    +0.010 A 
ATOM     33  C   UNL     1       8.027  -2.416  -2.832  0.00  0.00    +0.001 A 
ATOM     34  C   UNL     1       8.487  -2.558  -1.512  0.00  0.00    +0.002 A 
ATOM     35  C   UNL     1       7.782  -2.098  -0.456  0.00  0.00    +0.026 A 
ATOM     36  C   UNL     1       6.492  -1.428  -0.694  0.00  0.00    +0.043 A 
ATOM     37  N   UNL     1       5.622  -0.901   0.122  0.00  0.00    -0.377 N 
ATOM     38  H   UNL     1       5.704  -0.870   1.088  0.00  0.00    +0.160 HD
ENDBRANCH  26  30
ENDBRANCH  24  26
ENDBRANCH  23  24
ENDBRANCH  21  23
ENDBRANCH   1  21
TORSDOF 6
