REMARK  Name = ZINC11775717
REMARK  7 active torsions:
REMARK  status: ('A' for Active; 'I' for Inactive)
REMARK    1  A    between atoms: C_4  and  C_7
REMARK    2  A    between atoms: C_7  and  N_65
REMARK    3  A    between atoms: C_10  and  C_13
REMARK    4  A    between atoms: C_13  and  N_14
REMARK    5  A    between atoms: C_15  and  C_17
REMARK    6  A    between atoms: C_17  and  C_18
REMARK    7  A    between atoms: C_25  and  N_67
REMARK                            x       y       z     vdW  Elec       q    Type
REMARK                         _______ _______ _______ _____ _____    ______ ____
ROOT
ATOM      1  N   UNL     1       4.711  -3.245  -5.886  0.00  0.00    -0.315 N 
ATOM      2  C   UNL     1       4.855  -3.550  -7.191  0.00  0.00    +0.212 C 
ATOM      3  O   UNL     1       5.695  -2.983  -7.857  0.00  0.00    -0.276 OA
ATOM      4  H   UNL     1       4.040  -3.699  -5.353  0.00  0.00    +0.149 HD
ENDROOT
BRANCH   1   5
ATOM      5  C   UNL     1       5.569  -2.229  -5.272  0.00  0.00    +0.107 C 
BRANCH   5   8
ATOM      6  C   UNL     1       3.442  -1.314  -2.198  0.00  0.00    -0.078 C 
ATOM      7  C   UNL     1       3.780  -1.521  -3.675  0.00  0.00    -0.014 C 
ATOM      8  C   UNL     1       5.202  -2.076  -3.795  0.00  0.00    +0.003 C 
ATOM      9  C   UNL     1       6.178  -1.106  -3.123  0.00  0.00    -0.014 C 
ATOM     10  C   UNL     1       5.770  -0.911  -1.661  0.00  0.00    -0.078 C 
ATOM     11  N   UNL     1       4.402  -0.352  -1.616  0.00  0.00    +0.382 N 
ATOM     12  H   UNL     1       4.378   0.516  -2.164  0.00  0.00    -0.081 HD
BRANCH  11  13
ATOM     13  C   UNL     1       4.027  -0.047  -0.219  0.00  0.00    -0.043 C 
BRANCH  13  17
ATOM     14  C   UNL     1       0.346   2.119  -0.225  0.00  0.00    +0.000 A 
ATOM     15  C   UNL     1       1.548   2.798  -0.305  0.00  0.00    +0.000 A 
ATOM     16  C   UNL     1       2.739   2.097  -0.304  0.00  0.00    +0.002 A 
ATOM     17  C   UNL     1       2.729   0.717  -0.221  0.00  0.00    -0.064 A 
ATOM     18  C   UNL     1       1.527   0.038  -0.140  0.00  0.00    +0.002 A 
ATOM     19  C   UNL     1       0.336   0.740  -0.142  0.00  0.00    +0.000 A 
ENDBRANCH  13  17
ENDBRANCH  11  13
ENDBRANCH   5   8
ENDBRANCH   1   5
BRANCH   2  20
ATOM     20  C   UNL     1       3.973  -4.596  -7.822  0.00  0.00    +0.089 C 
BRANCH  20  21
ATOM     21  C   UNL     1       4.258  -4.665  -9.324  0.00  0.00    +0.028 C 
ATOM     22  C   UNL     1       5.677  -5.108  -9.543  0.00  0.00    +0.200 C 
ATOM     23  O   UNL     1       6.115  -6.011  -8.862  0.00  0.00    -0.278 OA
ATOM     24  N   UNL     1       6.477  -4.548 -10.456  0.00  0.00    -0.318 N 
ATOM     25  C   UNL     1       6.059  -3.433 -11.300  0.00  0.00    +0.085 C 
ATOM     26  C   UNL     1       4.532  -3.326 -11.311  0.00  0.00    -0.058 C 
ATOM     27  H   UNL     1       7.375  -4.899 -10.563  0.00  0.00    +0.149 HD
ATOM     28  N   UNL     1       4.064  -3.326  -9.911  0.00  0.00    +0.390 N 
ATOM     29  H   UNL     1       4.612  -2.642  -9.374  0.00  0.00    -0.080 HD
BRANCH  28  30
ATOM     30  C   UNL     1       2.634  -2.949  -9.853  0.00  0.00    -0.067 C 
ATOM     31  C   UNL     1       1.788  -3.864 -10.763  0.00  0.00    -0.015 C 
ATOM     32  C   UNL     1       0.717  -2.919 -11.362  0.00  0.00    -0.002 C 
ATOM     33  C   UNL     1       1.509  -1.609 -11.598  0.00  0.00    -0.002 C 
ATOM     34  C   UNL     1       2.456  -1.516 -10.384  0.00  0.00    -0.015 C 
ENDBRANCH  28  30
ENDBRANCH  20  21
ENDBRANCH   2  20
TORSDOF 7
