REMARK  Name = ZINC57309267
REMARK  6 active torsions:
REMARK  status: ('A' for Active; 'I' for Inactive)
REMARK    1  A    between atoms: C_1  and  C_2
REMARK    2  A    between atoms: C_7  and  N_8
REMARK    3  A    between atoms: C_9  and  C_11
REMARK    4  A    between atoms: C_13  and  C_29
REMARK    5  A    between atoms: C_17  and  C_28
REMARK    6  A    between atoms: N_19  and  C_20
REMARK                            x       y       z     vdW  Elec       q    Type
REMARK                         _______ _______ _______ _____ _____    ______ ____
ROOT
ATOM      1  C   UNL     1      -0.112  -0.053   4.911  0.00  0.00    +0.051 A 
ATOM      2  C   UNL     1      -0.228   1.330   4.990  0.00  0.00    +0.042 A 
ATOM      3  C   UNL     1      -0.323   1.938   6.245  0.00  0.00    +0.074 A 
ATOM      4  N   UNL     1      -0.305   1.225   7.359  0.00  0.00    -0.228 NA
ATOM      5  C   UNL     1      -0.197  -0.094   7.344  0.00  0.00    +0.160 A 
ATOM      6  C   UNL     1      -0.102  -0.787   6.120  0.00  0.00    +0.054 A 
ATOM      7  C   UNL     1      -0.006  -2.161   6.426  0.00  0.00    +0.070 A 
ATOM      8  N   UNL     1      -0.045  -2.302   7.721  0.00  0.00    -0.174 NA
ATOM      9  N   UNL     1      -0.155  -1.046   8.331  0.00  0.00    -0.241 N 
ATOM     10  C   UNL     1       0.118  -3.279   5.424  0.00  0.00    +0.068 C 
ENDROOT
BRANCH   9  11
ATOM     11  C   UNL     1      -0.227  -0.794   9.772  0.00  0.00    +0.132 C 
ATOM     12  C   UNL     1       1.034  -1.344  10.459  0.00  0.00    +0.051 C 
ATOM     13  C   UNL     1       0.828  -1.374  11.993  0.00  0.00    +0.168 C 
ATOM     14  S   UNL     1      -0.993  -1.575  12.152  0.00  0.00    -0.029 S 
ATOM     15  O   UNL     1      -1.529  -0.432  12.805  0.00  0.00    -0.174 OA
ATOM     16  O   UNL     1      -1.272  -2.870  12.668  0.00  0.00    -0.174 OA
ATOM     17  C   UNL     1      -1.462  -1.525  10.371  0.00  0.00    +0.192 C 
ENDBRANCH   9  11
BRANCH   3  18
ATOM     18  C   UNL     1      -0.446   3.413   6.330  0.00  0.00    +0.000 A 
ATOM     19  C   UNL     1      -0.473   4.181   5.166  0.00  0.00    +0.010 A 
ATOM     20  C   UNL     1      -0.588   5.553   5.251  0.00  0.00    +0.001 A 
ATOM     21  C   UNL     1      -0.677   6.168   6.487  0.00  0.00    +0.000 A 
ATOM     22  C   UNL     1      -0.651   5.411   7.645  0.00  0.00    +0.001 A 
ATOM     23  C   UNL     1      -0.542   4.037   7.572  0.00  0.00    +0.010 A 
ENDBRANCH   3  18
BRANCH   1  25
ATOM     24  N   UNL     1      -0.733  -0.296   2.555  0.00  0.00    -0.281 N 
ATOM     25  C   UNL     1      -0.010  -0.736   3.604  0.00  0.00    +0.249 C 
ATOM     26  O   UNL     1       0.726  -1.695   3.475  0.00  0.00    -0.270 OA
ATOM     27  H   UNL     1      -1.269   0.508   2.639  0.00  0.00    +0.155 HD
BRANCH  24  34
ATOM     28  C   UNL     1      -3.090  -0.308   0.963  0.00  0.00    +0.045 C 
ATOM     29  C   UNL     1      -1.838  -1.029   0.538  0.00  0.00    -0.029 A 
ATOM     30  C   UNL     1      -1.810  -1.718  -0.659  0.00  0.00    +0.006 A 
ATOM     31  C   UNL     1      -0.662  -2.381  -1.051  0.00  0.00    +0.020 A 
ATOM     32  C   UNL     1       0.464  -2.357  -0.245  0.00  0.00    +0.043 A 
ATOM     33  C   UNL     1       0.442  -1.669   0.954  0.00  0.00    +0.043 A 
ATOM     34  C   UNL     1      -0.709  -0.997   1.346  0.00  0.00    +0.038 A 
ATOM     35 CL   UNL     1       1.903  -3.191  -0.740  0.00  0.00    -0.083 Cl
ENDBRANCH  24  34
ENDBRANCH   1  25
TORSDOF 4
