REMARK  Name = ZINC12155693
REMARK  11 active torsions:
REMARK  status: ('A' for Active; 'I' for Inactive)
REMARK    1  A    between atoms: C_1  and  C_2
REMARK    2  A    between atoms: C_3  and  C_4
REMARK    3  A    between atoms: C_4  and  N_5
REMARK    4  A    between atoms: C_8  and  C_12
REMARK    5  A    between atoms: C_8  and  C_20
REMARK    6  A    between atoms: C_12  and  C_13
REMARK    7  A    between atoms: C_13  and  C_14
REMARK    8  A    between atoms: C_25  and  C_26
REMARK    9  A    between atoms: C_25  and  N_64
REMARK   10  A    between atoms: C_29  and  C_31
REMARK   11  A    between atoms: C_31  and  O_32
REMARK                            x       y       z     vdW  Elec       q    Type
REMARK                         _______ _______ _______ _____ _____    ______ ____
ROOT
ATOM      1  N   UNL     1      -1.960   3.879   3.404  0.00  0.00    -0.212 N 
ATOM      2  C   UNL     1      -2.941   4.625   2.860  0.00  0.00    +0.248 C 
ATOM      3  O   UNL     1      -3.936   4.227   2.293  0.00  0.00    -0.273 OA
ATOM      4  C   UNL     1      -2.542   6.067   3.105  0.00  0.00    +0.115 C 
ATOM      5  N   UNL     1      -1.263   5.955   3.827  0.00  0.00    -0.285 N 
ATOM      6  C   UNL     1      -1.009   4.640   3.958  0.00  0.00    +0.310 C 
ATOM      7  O   UNL     1      -0.025   4.194   4.514  0.00  0.00    -0.252 OA
ATOM      8  H   UNL     1      -0.713   6.686   4.148  0.00  0.00    +0.151 HD
ENDROOT
BRANCH   4   9
ATOM      9  C   UNL     1      -2.349   6.805   1.779  0.00  0.00    +0.018 C 
ATOM     10  C   UNL     1      -3.691   6.903   1.048  0.00  0.00    -0.013 C 
ATOM     11  C   UNL     1      -3.481   7.586  -0.305  0.00  0.00    -0.078 C 
ATOM     12  C   UNL     1      -1.212   6.747  -0.443  0.00  0.00    -0.078 C 
ATOM     13  C   UNL     1      -1.354   6.037   0.906  0.00  0.00    -0.013 C 
ATOM     14  N   UNL     1      -2.532   6.784  -1.107  0.00  0.00    +0.384 N 
ATOM     15  H   UNL     1      -2.891   5.826  -1.188  0.00  0.00    -0.081 HD
BRANCH  14  16
ATOM     16  C   UNL     1      -2.399   7.363  -2.460  0.00  0.00    -0.003 C 
BRANCH  16  17
ATOM     17  C   UNL     1      -3.705   7.189  -3.192  0.00  0.00    +0.089 A 
ATOM     18  C   UNL     1      -4.721   8.072  -3.209  0.00  0.00    +0.043 A 
ATOM     19  C   UNL     1      -5.739   7.508  -4.012  0.00  0.00    +0.047 A 
ATOM     20  C   UNL     1      -5.285   6.316  -4.437  0.00  0.00    +0.130 A 
ATOM     21  O   UNL     1      -4.050   6.131  -3.942  0.00  0.00    -0.464 OA
BRANCH  20  22
ATOM     22  C   UNL     1      -6.032   5.354  -5.325  0.00  0.00    +0.230 C 
BRANCH  22  23
ATOM     23  O   UNL     1      -5.736   5.641  -6.693  0.00  0.00    -0.387 OA
ATOM     24  H   UNL     1      -6.184   5.059  -7.323  0.00  0.00    +0.210 HD
ENDBRANCH  22  23
ENDBRANCH  20  22
ENDBRANCH  16  17
ENDBRANCH  14  16
ENDBRANCH   4   9
BRANCH   1  25
ATOM     25  C   UNL     1      -1.940   2.414   3.396  0.00  0.00    +0.206 C 
BRANCH  25  28
ATOM     26  C   UNL     1      -0.013   1.086   0.008  0.00  0.00    +0.106 C 
ATOM     27  C   UNL     1      -0.702   1.560   1.219  0.00  0.00    -0.104 C 
ATOM     28  C   UNL     1      -1.251   1.939   2.185  0.00  0.00    -0.083 C 
ENDBRANCH  25  28
ENDBRANCH   1  25
BRANCH   4  29
ATOM     29  C   UNL     1      -3.587   6.775   3.970  0.00  0.00    +0.040 C 
BRANCH  29  30
ATOM     30  C   UNL     1      -3.630   6.125   5.354  0.00  0.00    +0.038 C 
BRANCH  30  31
ATOM     31  C   UNL     1      -4.659   6.822   6.205  0.00  0.00    -0.047 A 
ATOM     32  C   UNL     1      -4.294   7.903   6.985  0.00  0.00    +0.003 A 
ATOM     33  C   UNL     1      -5.239   8.546   7.763  0.00  0.00    +0.000 A 
ATOM     34  C   UNL     1      -6.548   8.101   7.768  0.00  0.00    +0.000 A 
ATOM     35  C   UNL     1      -6.912   7.016   6.992  0.00  0.00    +0.000 A 
ATOM     36  C   UNL     1      -5.968   6.377   6.211  0.00  0.00    +0.003 A 
ENDBRANCH  30  31
ENDBRANCH  29  30
ENDBRANCH   4  29
TORSDOF 10
