REMARK  Name = ZINC49894308
REMARK  4 active torsions:
REMARK  status: ('A' for Active; 'I' for Inactive)
REMARK    1  A    between atoms: C_1  and  C_2
REMARK    2  A    between atoms: C_4  and  C_21
REMARK    3  A    between atoms: C_7  and  C_8
REMARK    4  A    between atoms: N_17  and  C_18
REMARK                            x       y       z     vdW  Elec       q    Type
REMARK                         _______ _______ _______ _____ _____    ______ ____
ROOT
ATOM      1  C   UNL     1      -0.018   1.503   0.010  0.00  0.00    +0.046 C 
ATOM      2  C   UNL     1       0.002  -0.004   0.002  0.00  0.00    -0.023 A 
ATOM      3  C   UNL     1       0.006  -0.694  -1.194  0.00  0.00    +0.027 A 
ATOM      4  C   UNL     1       0.025  -2.094  -1.157  0.00  0.00    +0.092 A 
ATOM      5  C   UNL     1       0.040  -2.743   0.091  0.00  0.00    +0.137 A 
ATOM      6  N   UNL     1       0.035  -2.042   1.212  0.00  0.00    -0.231 NA
ATOM      7  C   UNL     1       0.023  -0.714   1.203  0.00  0.00    +0.076 A 
ATOM      8  N   UNL     1       0.059  -4.126   0.146  0.00  0.00    -0.325 N 
ATOM      9  H   UNL     1       0.062  -4.644  -0.674  0.00  0.00    +0.148 HD
ENDROOT
BRANCH   7  10
ATOM     10  C   UNL     1       0.026   0.024   2.487  0.00  0.00    +0.004 A 
ATOM     11  C   UNL     1       0.699   1.242   2.592  0.00  0.00    +0.014 A 
ATOM     12  C   UNL     1       0.700   1.928   3.788  0.00  0.00    +0.050 A 
ATOM     13  C   UNL     1       0.034   1.412   4.890  0.00  0.00    +0.166 A 
ATOM     14  C   UNL     1      -0.640   0.195   4.791  0.00  0.00    +0.167 A 
ATOM     15  C   UNL     1      -0.649  -0.494   3.592  0.00  0.00    +0.059 A 
ATOM     16  O   UNL     1      -1.207  -0.089   6.000  0.00  0.00    -0.453 OA
ATOM     17  C   UNL     1      -0.533   0.759   6.949  0.00  0.00    +0.466 C 
ATOM     18  O   UNL     1      -0.112   1.888   6.160  0.00  0.00    -0.453 OA
ENDBRANCH   7  10
BRANCH   8  19
ATOM     19  C   UNL     1       0.074  -4.807   1.443  0.00  0.00    +0.072 C 
ATOM     20  C   UNL     1       1.027  -5.993   1.607  0.00  0.00    +0.024 C 
ATOM     21  C   UNL     1      -0.480  -6.232   1.499  0.00  0.00    +0.024 C 
ENDBRANCH   8  19
BRANCH   4  22
ATOM     22  C   UNL     1       0.029  -2.854  -2.371  0.00  0.00    +0.103 C 
ATOM     23  N   UNL     1       0.033  -3.456  -3.334  0.00  0.00    -0.191 NA
ENDBRANCH   4  22
TORSDOF 3
