REMARK  Name = ZINC11830326
REMARK  6 active torsions:
REMARK  status: ('A' for Active; 'I' for Inactive)
REMARK    1  A    between atoms: C_4  and  S_11
REMARK    2  A    between atoms: C_5  and  C_7
REMARK    3  A    between atoms: S_11  and  N_14
REMARK    4  A    between atoms: C_19  and  C_20
REMARK    5  A    between atoms: C_19  and  N_50
REMARK    6  A    between atoms: N_24  and  C_25
REMARK                            x       y       z     vdW  Elec       q    Type
REMARK                         _______ _______ _______ _____ _____    ______ ____
ROOT
ATOM      1  N   UNL     1       4.793  -1.138  -4.334  0.00  0.00    -0.180 NA
ATOM      2  C   UNL     1       5.015   0.067  -3.520  0.00  0.00    +0.091 C 
ATOM      3  C   UNL     1       4.351  -0.139  -2.155  0.00  0.00    -0.061 C 
ATOM      4  C   UNL     1       2.818  -1.786  -3.060  0.00  0.00    -0.061 C 
ATOM      5  C   UNL     1       3.419  -1.648  -4.463  0.00  0.00    +0.091 C 
ATOM      6  N   UNL     1       2.929  -0.485  -2.365  0.00  0.00    +0.386 N 
ATOM      7  H   UNL     1       2.493   0.241  -2.947  0.00  0.00    -0.081 HD
ENDROOT
BRANCH   1   8
ATOM      8  S   UNL     1       6.056  -1.901  -5.085  0.00  0.00    +0.061 S 
ATOM      9  O   UNL     1       5.490  -2.731  -6.090  0.00  0.00    -0.153 OA
ATOM     10  O   UNL     1       7.019  -0.898  -5.380  0.00  0.00    -0.153 OA
BRANCH   8  14
ATOM     11  C   UNL     1       7.954  -4.662  -2.041  0.00  0.00    +0.001 A 
ATOM     12  C   UNL     1       6.707  -4.116  -1.797  0.00  0.00    +0.002 A 
ATOM     13  C   UNL     1       6.130  -3.269  -2.724  0.00  0.00    +0.029 A 
ATOM     14  C   UNL     1       6.795  -2.976  -3.901  0.00  0.00    +0.117 A 
ATOM     15  C   UNL     1       8.041  -3.521  -4.145  0.00  0.00    +0.081 A 
ATOM     16  C   UNL     1       8.621  -4.365  -3.215  0.00  0.00    +0.014 A 
BRANCH  15  17
ATOM     17  C   UNL     1       8.768  -3.197  -5.424  0.00  0.00    +0.419 C 
ATOM     18  F   UNL     1       9.935  -3.965  -5.505  0.00  0.00    -0.166 F 
ATOM     19  F   UNL     1       7.943  -3.486  -6.516  0.00  0.00    -0.166 F 
ATOM     20  F   UNL     1       9.103  -1.838  -5.439  0.00  0.00    -0.166 F 
ENDBRANCH  15  17
ENDBRANCH   8  14
ENDBRANCH   1   8
BRANCH   6  21
ATOM     21  C   UNL     1       2.227  -0.545  -1.067  0.00  0.00    +0.001 C 
BRANCH  21  22
ATOM     22  C   UNL     1       0.748  -0.681  -1.321  0.00  0.00    +0.140 A 
ATOM     23  N   UNL     1       0.092  -1.796  -1.508  0.00  0.00    -0.115 NA
ATOM     24  N   UNL     1      -1.156  -1.562  -1.699  0.00  0.00    -0.023 NA
ATOM     25  N   UNL     1      -1.384  -0.294  -1.647  0.00  0.00    -0.039 NA
ATOM     26  N   UNL     1      -0.147   0.328  -1.398  0.00  0.00    -0.199 N 
BRANCH  26  27
ATOM     27  C   UNL     1       0.103   1.701  -1.260  0.00  0.00    +0.069 A 
ATOM     28  C   UNL     1      -0.768   2.497  -0.529  0.00  0.00    +0.029 A 
ATOM     29  C   UNL     1      -0.517   3.848  -0.391  0.00  0.00    +0.022 A 
ATOM     30  C   UNL     1       0.596   4.410  -0.989  0.00  0.00    +0.041 A 
ATOM     31  C   UNL     1       1.463   3.620  -1.723  0.00  0.00    +0.022 A 
ATOM     32  C   UNL     1       1.219   2.268  -1.860  0.00  0.00    +0.029 A 
ATOM     33 CL   UNL     1       0.906   6.110  -0.819  0.00  0.00    -0.084 Cl
ENDBRANCH  26  27
ENDBRANCH  21  22
ENDBRANCH   6  21
TORSDOF 6
