REMARK  Name = ZINC15956038
REMARK  10 active torsions:
REMARK  status: ('A' for Active; 'I' for Inactive)
REMARK    1  A    between atoms: C_1  and  C_2
REMARK    2  A    between atoms: C_2  and  O_3
REMARK    3  A    between atoms: O_3  and  C_4
REMARK    4  A    between atoms: C_7  and  C_12
REMARK    5  A    between atoms: C_9  and  O_10
REMARK    6  A    between atoms: O_10  and  C_11
REMARK    7  A    between atoms: N_31  and  C_34
REMARK    8  A    between atoms: C_34  and  C_35
REMARK    9  A    between atoms: C_40  and  O_41
REMARK   10  A    between atoms: O_41  and  C_42
REMARK                            x       y       z     vdW  Elec       q    Type
REMARK                         _______ _______ _______ _____ _____    ______ ____
ROOT
ATOM      1  C   UNL     1       3.848  -0.555  -5.268  0.00  0.00    +0.154 C 
ATOM      2  C   UNL     1       2.548  -1.206  -5.684  0.00  0.00    +0.046 A 
ATOM      3  C   UNL     1       1.479  -1.323  -4.867  0.00  0.00    -0.015 A 
ATOM      4  C   UNL     1       0.443  -2.000  -5.621  0.00  0.00    +0.003 A 
ATOM      5  C   UNL     1      -0.861  -2.391  -5.301  0.00  0.00    +0.010 A 
ATOM      6  C   UNL     1      -1.578  -3.025  -6.285  0.00  0.00    +0.001 A 
ATOM      7  C   UNL     1      -1.046  -3.273  -7.540  0.00  0.00    +0.002 A 
ATOM      8  C   UNL     1       0.241  -2.898  -7.884  0.00  0.00    +0.026 A 
ATOM      9  C   UNL     1       0.993  -2.251  -6.904  0.00  0.00    +0.047 A 
ATOM     10  N   UNL     1       2.265  -1.757  -6.905  0.00  0.00    -0.356 N 
ATOM     11  H   UNL     1       2.877  -1.792  -7.657  0.00  0.00    +0.166 HD
ATOM     12  C   UNL     1       1.424  -0.821  -3.447  0.00  0.00    +0.069 C 
ATOM     13  C   UNL     1       2.856  -0.574  -2.953  0.00  0.00    +0.167 C 
ATOM     14  N   UNL     1       3.604   0.141  -3.986  0.00  0.00    -0.276 N 
ATOM     15  C   UNL     1       4.069   1.381  -3.824  0.00  0.00    +0.234 C 
ATOM     16  O   UNL     1       4.616   1.908  -4.770  0.00  0.00    -0.274 OA
ATOM     17  C   UNL     1       3.961   2.164  -2.557  0.00  0.00    +0.204 C 
ATOM     18  N   UNL     1       3.314   1.406  -1.499  0.00  0.00    -0.287 N 
ATOM     19  C   UNL     1       2.823   0.179  -1.662  0.00  0.00    +0.237 C 
ATOM     20  O   UNL     1       2.313  -0.361  -0.703  0.00  0.00    -0.274 OA
ENDROOT
BRANCH   1  24
ATOM     21  C   UNL     1       6.868  -3.538  -4.749  0.00  0.00    +0.162 A 
ATOM     22  C   UNL     1       5.649  -3.662  -4.101  0.00  0.00    +0.050 A 
ATOM     23  C   UNL     1       4.677  -2.693  -4.266  0.00  0.00    +0.009 A 
ATOM     24  C   UNL     1       4.913  -1.605  -5.086  0.00  0.00    -0.018 A 
ATOM     25  C   UNL     1       6.127  -1.476  -5.736  0.00  0.00    +0.055 A 
ATOM     26  C   UNL     1       7.108  -2.440  -5.570  0.00  0.00    +0.162 A 
BRANCH  26  27
ATOM     27  O   UNL     1       8.302  -2.314  -6.208  0.00  0.00    -0.491 OA
ATOM     28  C   UNL     1       8.478  -1.162  -7.034  0.00  0.00    +0.277 C 
ENDBRANCH  26  27
BRANCH  21  29
ATOM     29  O   UNL     1       7.828  -4.487  -4.583  0.00  0.00    -0.489 OA
BRANCH  29  31
ATOM     30  C   UNL     1       8.704  -6.543  -3.663  0.00  0.00    +0.048 C 
ATOM     31  C   UNL     1       7.512  -5.586  -3.725  0.00  0.00    +0.226 C 
ENDBRANCH  29  31
ENDBRANCH  21  29
ENDBRANCH   1  24
BRANCH  18  32
ATOM     32  C   UNL     1       3.201   2.024  -0.176  0.00  0.00    +0.147 C 
BRANCH  32  33
ATOM     33  C   UNL     1       1.908   2.794  -0.090  0.00  0.00    +0.011 A 
ATOM     34  C   UNL     1       1.906   4.165  -0.260  0.00  0.00    +0.009 A 
ATOM     35  C   UNL     1       0.720   4.871  -0.181  0.00  0.00    +0.001 A 
ATOM     36  C   UNL     1      -0.467   4.207   0.067  0.00  0.00    +0.004 A 
ATOM     37  C   UNL     1      -0.472   2.836   0.231  0.00  0.00    +0.046 A 
ATOM     38  C   UNL     1       0.718   2.126   0.159  0.00  0.00    +0.125 A 
BRANCH  38  39
ATOM     39  O   UNL     1       0.716   0.777   0.326  0.00  0.00    -0.495 OA
ATOM     40  C   UNL     1      -0.545   0.156   0.579  0.00  0.00    +0.277 C 
ENDBRANCH  38  39
ENDBRANCH  32  33
ENDBRANCH  18  32
TORSDOF 7
