REMARK  Name = ZINC45772306
REMARK  12 active torsions:
REMARK  status: ('A' for Active; 'I' for Inactive)
REMARK    1  A    between atoms: C_1  and  C_2
REMARK    2  A    between atoms: C_3  and  C_36
REMARK    3  A    between atoms: C_11  and  C_13
REMARK    4  A    between atoms: C_13  and  S_14
REMARK    5  A    between atoms: S_14  and  C_15
REMARK    6  A    between atoms: C_15  and  C_17
REMARK    7  A    between atoms: C_15  and  C_18
REMARK    8  A    between atoms: N_20  and  C_21
REMARK    9  A    between atoms: C_26  and  C_27
REMARK   10  A    between atoms: C_27  and  N_28
REMARK   11  A    between atoms: N_28  and  C_29
REMARK   12  A    between atoms: N_28  and  C_30
REMARK                            x       y       z     vdW  Elec       q    Type
REMARK                         _______ _______ _______ _____ _____    ______ ____
ROOT
ATOM      1  C   UNL     1       0.877  -7.536   5.047  0.00  0.00    +0.230 C 
ATOM      2  O   UNL     1       1.144  -7.848   3.906  0.00  0.00    -0.274 OA
ATOM      3  N   UNL     1       0.716  -8.489   5.987  0.00  0.00    -0.284 N 
ATOM      4  H   UNL     1       0.583  -8.238   6.914  0.00  0.00    +0.155 HD
ENDROOT
BRANCH   3   5
ATOM      5  C   UNL     1       0.743  -9.840   5.625  0.00  0.00    +0.035 A 
ATOM      6  C   UNL     1       0.419 -10.219   4.328  0.00  0.00    +0.023 A 
ATOM      7  C   UNL     1       0.446 -11.554   3.974  0.00  0.00    +0.002 A 
ATOM      8  C   UNL     1       0.794 -12.512   4.908  0.00  0.00    +0.000 A 
ATOM      9  C   UNL     1       1.117 -12.137   6.200  0.00  0.00    +0.003 A 
ATOM     10  C   UNL     1       1.098 -10.804   6.559  0.00  0.00    -0.043 A 
BRANCH  10  11
ATOM     11  C   UNL     1       1.457 -10.396   7.964  0.00  0.00    -0.041 C 
BRANCH  11  12
ATOM     12  N   UNL     1       0.228 -10.157   8.733  0.00  0.00    +0.382 N 
ATOM     13  C   UNL     1      -0.516 -11.416   8.872  0.00  0.00    -0.095 C 
ATOM     14  H   UNL     1      -0.344  -9.479   8.251  0.00  0.00    -0.081 HD
BRANCH  12  15
ATOM     15  C   UNL     1       0.576  -9.645  10.065  0.00  0.00    -0.069 C 
ATOM     16  C   UNL     1      -0.703  -9.396  10.866  0.00  0.00    -0.015 C 
ATOM     17  C   UNL     1      -0.341  -8.862  12.254  0.00  0.00    -0.002 C 
ATOM     18  C   UNL     1       0.434  -7.551  12.110  0.00  0.00    -0.000 C 
ATOM     19  C   UNL     1       1.713  -7.800  11.309  0.00  0.00    -0.002 C 
ATOM     20  C   UNL     1       1.351  -8.333   9.921  0.00  0.00    -0.015 C 
ENDBRANCH  12  15
ENDBRANCH  11  12
ENDBRANCH  10  11
ENDBRANCH   3   5
BRANCH   1  21
ATOM     21  C   UNL     1       0.725  -6.082   5.414  0.00  0.00    +0.130 C 
ATOM     22  C   UNL     1      -0.761  -5.723   5.470  0.00  0.00    +0.029 C 
BRANCH  21  23
ATOM     23  S   UNL     1       1.549  -5.054   4.168  0.00  0.00    -0.141 S 
BRANCH  23  24
ATOM     24  C   UNL     1       1.410  -3.369   4.826  0.00  0.00    +0.144 C 
BRANCH  24  35
ATOM     25  C   UNL     1       4.064   1.615   1.213  0.00  0.00    +0.045 C 
ATOM     26  C   UNL     1       3.929   0.119   1.097  0.00  0.00    -0.026 A 
ATOM     27  C   UNL     1       4.434  -0.529   0.035  0.00  0.00    -0.008 A 
ATOM     28  S   UNL     1       4.027  -2.234   0.360  0.00  0.00    -0.073 S 
ATOM     29  C   UNL     1       3.191  -2.027   1.911  0.00  0.00    +0.116 A 
ATOM     30  C   UNL     1       3.256  -0.640   2.135  0.00  0.00    +0.075 A 
ATOM     31  C   UNL     1       2.648  -0.180   3.349  0.00  0.00    +0.260 A 
ATOM     32  O   UNL     1       2.649   1.006   3.630  0.00  0.00    -0.267 OA
ATOM     33  N   UNL     1       2.075  -1.077   4.171  0.00  0.00    -0.310 N 
ATOM     34  H   UNL     1       1.662  -0.772   4.994  0.00  0.00    +0.170 HD
ATOM     35  C   UNL     1       2.064  -2.402   3.873  0.00  0.00    +0.121 A 
ATOM     36  N   UNL     1       2.602  -2.852   2.771  0.00  0.00    -0.226 NA
ATOM     37  C   UNL     1       5.169   0.048  -1.147  0.00  0.00    +0.052 C 
ENDBRANCH  24  35
ENDBRANCH  23  24
ENDBRANCH  21  23
ENDBRANCH   1  21
TORSDOF 8
