REMARK  Name = ZINC38902598
REMARK  13 active torsions:
REMARK  status: ('A' for Active; 'I' for Inactive)
REMARK    1  A    between atoms: C_1  and  C_2
REMARK    2  A    between atoms: C_2  and  C_3
REMARK    3  A    between atoms: C_2  and  N_4
REMARK    4  A    between atoms: C_5  and  C_7
REMARK    5  A    between atoms: C_12  and  N_13
REMARK    6  A    between atoms: C_14  and  C_16
REMARK    7  A    between atoms: N_21  and  C_23
REMARK    8  A    between atoms: C_23  and  C_24
REMARK    9  A    between atoms: C_26  and  C_29
REMARK   10  A    between atoms: C_32  and  C_35
REMARK   11  A    between atoms: C_35  and  C_36
REMARK   12  A    between atoms: C_35  and  C_37
REMARK   13  A    between atoms: C_35  and  C_38
REMARK                            x       y       z     vdW  Elec       q    Type
REMARK                         _______ _______ _______ _____ _____    ______ ____
ROOT
ATOM      1  C   UNL     1      -1.694  -6.330  -2.927  0.00  0.00    +0.059 C 
ATOM      2  C   UNL     1      -0.789  -6.834  -1.799  0.00  0.00    +0.009 C 
ATOM      3  C   UNL     1       0.233  -7.817  -2.378  0.00  0.00    -0.018 C 
ATOM      4  C   UNL     1      -0.506  -8.957  -3.082  0.00  0.00    -0.078 C 
ATOM      5  N   UNL     1      -1.333  -8.414  -4.165  0.00  0.00    +0.386 N 
ATOM      6  C   UNL     1      -2.362  -7.525  -3.611  0.00  0.00    -0.065 C 
ATOM      7  H   UNL     1      -0.750  -7.894  -4.804  0.00  0.00    -0.081 HD
ENDROOT
BRANCH   1   9
ATOM      8  N   UNL     1      -2.394  -4.299  -1.702  0.00  0.00    -0.285 N 
ATOM      9  C   UNL     1      -2.752  -5.422  -2.355  0.00  0.00    +0.219 C 
ATOM     10  O   UNL     1      -3.925  -5.701  -2.484  0.00  0.00    -0.275 OA
ATOM     11  H   UNL     1      -1.461  -4.035  -1.665  0.00  0.00    +0.155 HD
BRANCH   8  17
ATOM     12  C   UNL     1      -3.228  -2.121  -1.043  0.00  0.00    +0.058 A 
ATOM     13  C   UNL     1      -4.210  -1.348  -0.420  0.00  0.00    +0.015 A 
ATOM     14  C   UNL     1      -5.301  -1.959   0.159  0.00  0.00    +0.001 A 
ATOM     15  C   UNL     1      -5.430  -3.338   0.127  0.00  0.00    +0.002 A 
ATOM     16  C   UNL     1      -4.467  -4.115  -0.485  0.00  0.00    +0.024 A 
ATOM     17  C   UNL     1      -3.364  -3.517  -1.079  0.00  0.00    +0.046 A 
BRANCH  12  19
ATOM     18  N   UNL     1      -1.979  -0.129  -1.717  0.00  0.00    -0.309 N 
ATOM     19  C   UNL     1      -2.057  -1.474  -1.665  0.00  0.00    +0.246 C 
ATOM     20  O   UNL     1      -1.163  -2.153  -2.131  0.00  0.00    -0.270 OA
ATOM     21  H   UNL     1      -2.693   0.413  -1.346  0.00  0.00    +0.149 HD
BRANCH  18  23
ATOM     22  C   UNL     1      -1.208   1.908  -2.830  0.00  0.00    +0.027 C 
ATOM     23  C   UNL     1      -0.817   0.514  -2.335  0.00  0.00    +0.067 C 
ATOM     24  C   UNL     1       0.307   0.635  -1.304  0.00  0.00    +0.027 C 
ENDBRANCH  18  23
ENDBRANCH  12  19
ENDBRANCH   8  17
ENDBRANCH   1   9
BRANCH   5  25
ATOM     25  C   UNL     1      -1.980  -9.518  -4.887  0.00  0.00    +0.022 C 
BRANCH  25  26
ATOM     26  C   UNL     1      -0.929 -10.356  -5.568  0.00  0.00    +0.211 A 
ATOM     27  N   UNL     1      -0.327 -11.390  -5.052  0.00  0.00    -0.193 NA
ATOM     28  C   UNL     1       0.551 -11.900  -5.934  0.00  0.00    +0.202 A 
ATOM     29  N   UNL     1       0.509 -11.182  -7.029  0.00  0.00    -0.056 NA
ATOM     30  O   UNL     1      -0.461 -10.168  -6.809  0.00  0.00    -0.340 OA
BRANCH  28  31
ATOM     31  C   UNL     1       1.422 -13.079  -5.705  0.00  0.00    +0.022 A 
ATOM     32  C   UNL     1       1.369 -13.763  -4.493  0.00  0.00    +0.012 A 
ATOM     33  C   UNL     1       2.182 -14.859  -4.285  0.00  0.00    +0.005 A 
ATOM     34  C   UNL     1       3.049 -15.278  -5.278  0.00  0.00    -0.042 A 
ATOM     35  C   UNL     1       3.106 -14.603  -6.484  0.00  0.00    +0.005 A 
ATOM     36  C   UNL     1       2.293 -13.509  -6.704  0.00  0.00    +0.012 A 
BRANCH  34  37
ATOM     37  C   UNL     1       3.934 -16.475  -5.045  0.00  0.00    -0.013 C 
ATOM     38  C   UNL     1       3.067 -17.705  -4.766  0.00  0.00    +0.015 C 
ATOM     39  C   UNL     1       4.790 -16.726  -6.289  0.00  0.00    +0.015 C 
ATOM     40  C   UNL     1       4.845 -16.210  -3.845  0.00  0.00    +0.015 C 
ENDBRANCH  34  37
ENDBRANCH  28  31
ENDBRANCH  25  26
ENDBRANCH   5  25
TORSDOF 8
