REMARK  Name = ZINC33668735
REMARK  14 active torsions:
REMARK  status: ('A' for Active; 'I' for Inactive)
REMARK    1  A    between atoms: C_1  and  C_2
REMARK    2  A    between atoms: C_2  and  O_3
REMARK    3  A    between atoms: O_3  and  C_4
REMARK    4  A    between atoms: C_4  and  C_6
REMARK    5  A    between atoms: C_7  and  C_36
REMARK    6  A    between atoms: C_9  and  C_35
REMARK    7  A    between atoms: C_11  and  C_12
REMARK    8  A    between atoms: N_17  and  S_22
REMARK    9  A    between atoms: C_18  and  C_21
REMARK   10  A    between atoms: S_22  and  C_25
REMARK   11  A    between atoms: C_28  and  C_31
REMARK   12  A    between atoms: C_31  and  C_32
REMARK   13  A    between atoms: C_31  and  C_33
REMARK   14  A    between atoms: C_31  and  C_34
REMARK                            x       y       z     vdW  Elec       q    Type
REMARK                         _______ _______ _______ _____ _____    ______ ____
ROOT
ATOM      1  C   UNL     1      -1.266  -0.778   0.009  0.00  0.00    +0.266 C 
ATOM      2  O   UNL     1      -1.242  -1.978  -0.180  0.00  0.00    -0.268 OA
ATOM      3  N   UNL     1      -2.446  -0.138   0.126  0.00  0.00    -0.293 N 
ATOM      4  C   UNL     1      -2.502   1.331   0.135  0.00  0.00    +0.125 C 
ATOM      5  C   UNL     1      -3.459   1.792  -0.970  0.00  0.00    +0.129 C 
ATOM      6  N   UNL     1      -4.713   1.035  -0.852  0.00  0.00    -0.171 NA
ATOM      7  C   UNL     1      -4.657  -0.433  -0.862  0.00  0.00    +0.094 C 
ATOM      8  C   UNL     1      -3.701  -0.895   0.238  0.00  0.00    +0.128 C 
ATOM      9  C   UNL     1      -4.150  -0.919  -2.221  0.00  0.00    +0.027 C 
ENDROOT
BRANCH   1  15
ATOM     10  C   UNL     1       1.238  -0.640  -0.158  0.00  0.00    +0.110 A 
ATOM     11  C   UNL     1       2.403   0.128  -0.043  0.00  0.00    +0.056 A 
ATOM     12  N   UNL     1       2.300   1.396   0.313  0.00  0.00    -0.237 NA
ATOM     13  C   UNL     1       1.125   1.943   0.559  0.00  0.00    +0.127 A 
ATOM     14  N   UNL     1       0.001   1.264   0.465  0.00  0.00    -0.227 NA
ATOM     15  C   UNL     1       0.006  -0.017   0.114  0.00  0.00    +0.143 A 
ATOM     16  C   UNL     1       1.068   3.394   0.961  0.00  0.00    +0.088 C 
ATOM     17  C   UNL     1       3.753  -0.482  -0.321  0.00  0.00    +0.066 C 
BRANCH  10  18
ATOM     18  C   UNL     1       1.301  -2.064  -0.552  0.00  0.00    +0.343 C 
ATOM     19  O   UNL     1       1.244  -2.372  -1.726  0.00  0.00    -0.245 OA
BRANCH  18  20
ATOM     20  O   UNL     1       1.422  -3.019   0.390  0.00  0.00    -0.461 OA
BRANCH  20  22
ATOM     21  C   UNL     1       1.614  -5.330   1.133  0.00  0.00    +0.048 C 
ATOM     22  C   UNL     1       1.478  -4.395  -0.070  0.00  0.00    +0.229 C 
ENDBRANCH  20  22
ENDBRANCH  18  20
ENDBRANCH  10  18
ENDBRANCH   1  15
BRANCH   6  23
ATOM     23  S   UNL     1      -6.163   1.822  -0.710  0.00  0.00    +0.061 S 
ATOM     24  O   UNL     1      -7.056   0.918  -0.073  0.00  0.00    -0.153 OA
ATOM     25  O   UNL     1      -5.876   3.109  -0.179  0.00  0.00    -0.153 OA
BRANCH  23  26
ATOM     26  C   UNL     1      -6.781   2.076  -2.340  0.00  0.00    +0.106 A 
ATOM     27  C   UNL     1      -6.461   3.231  -3.029  0.00  0.00    +0.029 A 
ATOM     28  C   UNL     1      -6.942   3.428  -4.310  0.00  0.00    +0.006 A 
ATOM     29  C   UNL     1      -7.751   2.474  -4.898  0.00  0.00    -0.042 A 
ATOM     30  C   UNL     1      -8.075   1.321  -4.208  0.00  0.00    +0.006 A 
ATOM     31  C   UNL     1      -7.590   1.122  -2.929  0.00  0.00    +0.029 A 
BRANCH  29  32
ATOM     32  C   UNL     1      -8.279   2.691  -6.293  0.00  0.00    -0.013 C 
ATOM     33  C   UNL     1      -9.809   2.695  -6.264  0.00  0.00    +0.015 C 
ATOM     34  C   UNL     1      -7.776   4.034  -6.826  0.00  0.00    +0.015 C 
ATOM     35  C   UNL     1      -7.789   1.564  -7.205  0.00  0.00    +0.015 C 
ENDBRANCH  29  32
ENDBRANCH  23  26
ENDBRANCH   6  23
TORSDOF 7
