REMARK  Name = ZINC36566977
REMARK  14 active torsions:
REMARK  status: ('A' for Active; 'I' for Inactive)
REMARK    1  A    between atoms: C_1  and  C_2
REMARK    2  A    between atoms: C_2  and  C_3
REMARK    3  A    between atoms: C_3  and  N_4
REMARK    4  A    between atoms: N_4  and  C_5
REMARK    5  A    between atoms: C_5  and  C_7
REMARK    6  A    between atoms: C_5  and  C_10
REMARK    7  A    between atoms: C_8  and  C_9
REMARK    8  A    between atoms: N_12  and  C_13
REMARK    9  A    between atoms: C_13  and  S_14
REMARK   10  A    between atoms: S_14  and  C_17
REMARK   11  A    between atoms: C_20  and  C_23
REMARK   12  A    between atoms: C_24  and  C_26
REMARK   13  A    between atoms: C_28  and  N_35
REMARK   14  A    between atoms: C_30  and  N_32
REMARK                            x       y       z     vdW  Elec       q    Type
REMARK                         _______ _______ _______ _____ _____    ______ ____
ROOT
ATOM      1  C   UNL     1      -1.024  -2.856   0.963  0.00  0.00    +0.185 C 
ENDROOT
BRANCH   1   2
ATOM      2  C   UNL     1       0.267  -2.507   1.657  0.00  0.00    +0.239 C 
ATOM      3  O   UNL     1       0.916  -1.551   1.287  0.00  0.00    -0.273 OA
ATOM      4  N   UNL     1       0.702  -3.257   2.689  0.00  0.00    -0.294 N 
ATOM      5  H   UNL     1       0.183  -4.021   2.985  0.00  0.00    +0.150 HD
BRANCH   4   6
ATOM      6  C   UNL     1       1.957  -2.918   3.364  0.00  0.00    +0.278 C 
BRANCH   6   7
ATOM      7  S   UNL     1       1.604  -1.895   4.819  0.00  0.00    +0.013 S 
ATOM      8  O   UNL     1       2.807  -1.610   5.521  0.00  0.00    -0.168 OA
ATOM      9  O   UNL     1       0.701  -0.852   4.477  0.00  0.00    -0.168 OA
BRANCH   7  10
ATOM     10  C   UNL     1       0.691  -2.944   5.900  0.00  0.00    +0.090 A 
ATOM     11  C   UNL     1      -0.688  -2.993   5.815  0.00  0.00    +0.027 A 
ATOM     12  C   UNL     1      -1.404  -3.817   6.663  0.00  0.00    +0.005 A 
ATOM     13  C   UNL     1      -0.742  -4.592   7.596  0.00  0.00    -0.050 A 
ATOM     14  C   UNL     1       0.637  -4.544   7.681  0.00  0.00    +0.005 A 
ATOM     15  C   UNL     1       1.354  -3.724   6.830  0.00  0.00    +0.027 A 
ATOM     16  C   UNL     1      -1.523  -5.489   8.521  0.00  0.00    +0.044 C 
ENDBRANCH   7  10
ENDBRANCH   6   7
ENDBRANCH   4   6
ENDBRANCH   1   2
BRANCH   1  17
ATOM     17  N   UNL     1      -1.191  -2.002  -0.216  0.00  0.00    -0.283 N 
ATOM     18  C   UNL     1      -1.359  -2.558  -1.432  0.00  0.00    +0.248 C 
ATOM     19  O   UNL     1      -1.583  -1.854  -2.397  0.00  0.00    -0.270 OA
BRANCH  18  20
ATOM     20  C   UNL     1      -1.270  -4.026  -1.593  0.00  0.00    +0.041 A 
ATOM     21  C   UNL     1      -1.979  -4.868  -0.735  0.00  0.00    +0.046 A 
ATOM     22  C   UNL     1      -1.893  -6.236  -0.891  0.00  0.00    +0.129 A 
ATOM     23  C   UNL     1      -1.105  -6.773  -1.894  0.00  0.00    +0.065 A 
ATOM     24  C   UNL     1      -0.400  -5.944  -2.747  0.00  0.00    +0.129 A 
ATOM     25  C   UNL     1      -0.482  -4.574  -2.606  0.00  0.00    +0.046 A 
BRANCH  24  26
ATOM     26  N   UNL     1       0.440  -6.527  -3.817  0.00  0.00    +0.057 N 
ATOM     27  O   UNL     1       0.509  -7.727  -3.945  0.00  0.00    -0.126 OA
ATOM     28  O   UNL     1       1.057  -5.803  -4.564  0.00  0.00    -0.126 OA
ENDBRANCH  24  26
BRANCH  22  29
ATOM     29  N   UNL     1      -2.644  -7.132   0.018  0.00  0.00    +0.057 N 
ATOM     30  O   UNL     1      -3.332  -6.664   0.895  0.00  0.00    -0.126 OA
ATOM     31  O   UNL     1      -2.569  -8.331  -0.117  0.00  0.00    -0.126 OA
ENDBRANCH  22  29
ENDBRANCH  18  20
BRANCH  17  32
ATOM     32  C   UNL     1      -1.175  -0.544  -0.073  0.00  0.00    +0.109 C 
BRANCH  32  34
ATOM     33  C   UNL     1       0.086   1.542  -0.624  0.00  0.00    +0.005 C 
ATOM     34  C   UNL     1       0.119   0.013  -0.672  0.00  0.00    +0.016 C 
ENDBRANCH  32  34
ENDBRANCH  17  32
ENDBRANCH   1  17
BRANCH   1  35
ATOM     35  C   UNL     1      -2.177  -2.637   1.908  0.00  0.00    +0.000 C 
ATOM     36  C   UNL     1      -3.171  -1.858   1.560  0.00  0.00    -0.032 C 
ATOM     37  C   UNL     1      -4.324  -1.639   2.505  0.00  0.00    +0.035 C 
ENDBRANCH   1  35
TORSDOF 11
