REMARK  Name = ZINC35592556
REMARK  11 active torsions:
REMARK  status: ('A' for Active; 'I' for Inactive)
REMARK    1  A    between atoms: C_1  and  C_2
REMARK    2  A    between atoms: C_2  and  C_42
REMARK    3  A    between atoms: C_7  and  C_24
REMARK    4  A    between atoms: C_7  and  O_34
REMARK    5  A    between atoms: C_9  and  O_14
REMARK    6  A    between atoms: O_14  and  C_15
REMARK    7  A    between atoms: C_15  and  C_16
REMARK    8  A    between atoms: N_26  and  C_27
REMARK    9  A    between atoms: C_27  and  C_28
REMARK   10  A    between atoms: O_34  and  C_35
REMARK   11  A    between atoms: C_35  and  C_36
REMARK                            x       y       z     vdW  Elec       q    Type
REMARK                         _______ _______ _______ _____ _____    ______ ____
ROOT
ATOM      1  C   UNL     1      -0.408   1.698  -0.180  0.00  0.00    +0.074 C 
ATOM      2  C   UNL     1      -0.368   0.171  -0.270  0.00  0.00    +0.165 C 
ATOM      3  O   UNL     1      -1.700  -0.360  -0.105  0.00  0.00    -0.343 OA
ATOM      4  C   UNL     1      -1.486  -1.585   0.619  0.00  0.00    +0.156 C 
ATOM      5  C   UNL     1      -2.723  -2.104   1.297  0.00  0.00    +0.079 C 
ATOM      6  C   UNL     1      -3.244  -1.201   2.395  0.00  0.00    +0.150 C 
ATOM      7  C   UNL     1      -2.160  -0.779   3.363  0.00  0.00    +0.079 C 
ATOM      8  C   UNL     1      -0.932  -0.234   2.672  0.00  0.00    +0.153 C 
ATOM      9  C   UNL     1      -0.390  -1.170   1.621  0.00  0.00    +0.179 C 
ATOM     10  O   UNL     1       0.467  -0.354   0.775  0.00  0.00    -0.341 OA
ATOM     11  C   UNL     1       0.185  -0.250  -1.633  0.00  0.00    +0.074 C 
ENDROOT
BRANCH   6  12
ATOM     12  C   UNL     1      -4.321  -1.929   3.156  0.00  0.00    +0.245 C 
ATOM     13  O   UNL     1      -4.350  -3.142   3.155  0.00  0.00    -0.273 OA
ATOM     14  N   UNL     1      -5.253  -1.233   3.837  0.00  0.00    -0.310 N 
ATOM     15  H   UNL     1      -5.271  -0.265   3.783  0.00  0.00    +0.149 HD
BRANCH  14  16
ATOM     16  C   UNL     1      -6.238  -1.940   4.660  0.00  0.00    +0.135 C 
BRANCH  16  17
ATOM     17  C   UNL     1      -7.173  -0.924   5.320  0.00  0.00    +0.135 C 
ATOM     18  C   UNL     1      -8.138  -1.649   6.283  0.00  0.00    +0.035 C 
ATOM     19  C   UNL     1      -9.470  -0.886   6.050  0.00  0.00    +0.031 C 
ATOM     20  C   UNL     1      -9.358  -0.552   4.541  0.00  0.00    +0.160 C 
ATOM     21  O   UNL     1      -7.964  -0.270   4.322  0.00  0.00    -0.375 OA
ENDBRANCH  16  17
ENDBRANCH  14  16
ENDBRANCH   6  12
BRANCH   8  22
ATOM     22  O   UNL     1       0.082  -0.002   3.652  0.00  0.00    -0.369 OA
BRANCH  22  23
ATOM     23  C   UNL     1       0.051   1.308   4.223  0.00  0.00    +0.198 C 
BRANCH  23  24
ATOM     24  C   UNL     1       1.157   1.441   5.237  0.00  0.00    +0.016 A 
ATOM     25  C   UNL     1       2.006   0.377   5.477  0.00  0.00    +0.009 A 
ATOM     26  C   UNL     1       3.022   0.497   6.407  0.00  0.00    +0.003 A 
ATOM     27  C   UNL     1       3.190   1.681   7.100  0.00  0.00    +0.041 A 
ATOM     28  C   UNL     1       2.341   2.748   6.863  0.00  0.00    +0.159 A 
ATOM     29  C   UNL     1       1.326   2.629   5.925  0.00  0.00    +0.164 A 
ATOM     30  F   UNL     1       0.500   3.671   5.688  0.00  0.00    -0.202 F 
ATOM     31  F   UNL     1       2.504   3.906   7.540  0.00  0.00    -0.202 F 
ENDBRANCH  23  24
ENDBRANCH  22  23
ENDBRANCH   8  22
BRANCH   6  32
ATOM     32  O   UNL     1      -3.812  -0.032   1.800  0.00  0.00    -0.359 OA
BRANCH  32  33
ATOM     33  C   UNL     1      -4.936  -0.296   0.959  0.00  0.00    +0.196 C 
BRANCH  33  34
ATOM     34  C   UNL     1      -5.531   1.008   0.493  0.00  0.00    -0.022 A 
ATOM     35  C   UNL     1      -6.519   1.623   1.239  0.00  0.00    +0.006 A 
ATOM     36  C   UNL     1      -7.066   2.818   0.811  0.00  0.00    +0.000 A 
ATOM     37  C   UNL     1      -6.623   3.399  -0.363  0.00  0.00    +0.000 A 
ATOM     38  C   UNL     1      -5.634   2.785  -1.108  0.00  0.00    +0.000 A 
ATOM     39  C   UNL     1      -5.085   1.591  -0.678  0.00  0.00    +0.006 A 
ENDBRANCH  33  34
ENDBRANCH  32  33
ENDBRANCH   6  32
TORSDOF 9
