REMARK  Name = ZINC39464561
REMARK  10 active torsions:
REMARK  status: ('A' for Active; 'I' for Inactive)
REMARK    1  A    between atoms: C_1  and  C_2
REMARK    2  A    between atoms: C_2  and  C_3
REMARK    3  A    between atoms: C_2  and  S_4
REMARK    4  A    between atoms: S_4  and  C_7
REMARK    5  A    between atoms: C_12  and  S_13
REMARK    6  A    between atoms: S_13  and  C_16
REMARK    7  A    between atoms: C_16  and  C_17
REMARK    8  A    between atoms: C_16  and  C_18
REMARK    9  A    between atoms: P_23  and  C_29
REMARK   10  A    between atoms: C_34  and  O_35
REMARK                            x       y       z     vdW  Elec       q    Type
REMARK                         _______ _______ _______ _____ _____    ______ ____
ROOT
ATOM      1  C   UNL     1      -1.063  -1.835   0.225  0.00  0.00    +0.113 A 
ATOM      2  C   UNL     1      -1.502  -2.357   1.426  0.00  0.00    +0.033 A 
ATOM      3  C   UNL     1      -1.569  -3.729   1.610  0.00  0.00    -0.039 A 
ATOM      4  C   UNL     1      -1.197  -4.580   0.591  0.00  0.00    -0.022 A 
ATOM      5  C   UNL     1      -0.757  -4.053  -0.615  0.00  0.00    +0.034 A 
ATOM      6  C   UNL     1      -0.696  -2.687  -0.800  0.00  0.00    +0.113 A 
ATOM      7  C   UNL     1      -1.249  -6.077   0.740  0.00  0.00    +0.129 C 
ATOM      8  C   UNL     1      -1.820  -6.687  -0.544  0.00  0.00    +0.194 C 
ATOM      9  O   UNL     1      -1.757  -8.123  -0.441  0.00  0.00    -0.311 OA
ATOM     10  P   UNL     1      -2.349  -8.826   0.902  0.00  0.00    +0.318 P 
ATOM     11  O   UNL     1      -3.820  -8.953   0.806  0.00  0.00    -0.266 OA
ATOM     12  N   UNL     1      -1.942  -7.818   2.148  0.00  0.00    -0.175 NA
ATOM     13  N   UNL     1      -2.061  -6.466   1.893  0.00  0.00    -0.225 NA
ATOM     14  C   UNL     1      -1.665  -5.713   3.092  0.00  0.00    +0.108 C 
ATOM     15  C   UNL     1      -2.056  -4.255   2.936  0.00  0.00    +0.052 C 
ATOM     16  H   UNL     1      -1.648  -8.161   3.006  0.00  0.00    +0.151 HD
ENDROOT
BRANCH  10  17
ATOM     17  C   UNL     1      -1.593 -10.458   1.140  0.00  0.00    +0.094 A 
ATOM     18  C   UNL     1      -0.434 -10.582   1.881  0.00  0.00    +0.018 A 
ATOM     19  C   UNL     1       0.142 -11.825   2.063  0.00  0.00    +0.001 A 
ATOM     20  C   UNL     1      -0.440 -12.948   1.503  0.00  0.00    +0.004 A 
ATOM     21  C   UNL     1      -1.599 -12.829   0.761  0.00  0.00    +0.046 A 
ATOM     22  C   UNL     1      -2.182 -11.583   0.582  0.00  0.00    +0.131 A 
BRANCH  22  23
ATOM     23  O   UNL     1      -3.326 -11.465  -0.143  0.00  0.00    -0.506 OA
ATOM     24  H   UNL     1      -3.179 -11.316  -1.087  0.00  0.00    +0.292 HD
ENDBRANCH  22  23
ENDBRANCH  10  17
BRANCH   1  25
ATOM     25  S   UNL     1      -0.978  -0.090  -0.003  0.00  0.00    +0.001 S 
ATOM     26  O   UNL     1      -2.139   0.416   0.642  0.00  0.00    -0.169 OA
ATOM     27  O   UNL     1      -0.792   0.085  -1.401  0.00  0.00    -0.169 OA
BRANCH  25  29
ATOM     28  C   UNL     1       0.722   1.929   0.712  0.00  0.00    +0.032 C 
ATOM     29  C   UNL     1       0.511   0.425   0.895  0.00  0.00    +0.130 C 
ATOM     30  C   UNL     1       0.344   0.111   2.383  0.00  0.00    +0.032 C 
ENDBRANCH  25  29
ENDBRANCH   1  25
BRANCH   6  31
ATOM     31  S   UNL     1      -0.144  -2.029  -2.339  0.00  0.00    +0.001 S 
ATOM     32  O   UNL     1       0.803  -1.030  -1.987  0.00  0.00    -0.169 OA
ATOM     33  O   UNL     1       0.248  -3.164  -3.099  0.00  0.00    -0.169 OA
BRANCH  31  34
ATOM     34  C   UNL     1      -1.615  -1.263  -3.073  0.00  0.00    +0.130 C 
ATOM     35  C   UNL     1      -1.199  -0.397  -4.264  0.00  0.00    +0.032 C 
ATOM     36  C   UNL     1      -2.576  -2.356  -3.548  0.00  0.00    +0.032 C 
ENDBRANCH  31  34
ENDBRANCH   6  31
TORSDOF 6
