REMARK  Name = ZINC17281650
REMARK  7 active torsions:
REMARK  status: ('A' for Active; 'I' for Inactive)
REMARK    1  A    between atoms: C_1  and  C_2
REMARK    2  A    between atoms: C_2  and  C_4
REMARK    3  A    between atoms: C_2  and  N_14
REMARK    4  A    between atoms: N_14  and  C_15
REMARK    5  A    between atoms: C_18  and  S_24
REMARK    6  A    between atoms: C_20  and  N_21
REMARK    7  A    between atoms: S_24  and  N_27
REMARK                            x       y       z     vdW  Elec       q    Type
REMARK                         _______ _______ _______ _____ _____    ______ ____
ROOT
ATOM      1  C   UNL     1      -2.421   2.574   3.666  0.00  0.00    +0.058 A 
ATOM      2  C   UNL     1      -1.508   3.507   3.189  0.00  0.00    +0.027 A 
ATOM      3  C   UNL     1      -0.728   3.208   2.090  0.00  0.00    +0.030 A 
ATOM      4  C   UNL     1      -0.861   1.984   1.458  0.00  0.00    +0.108 A 
ATOM      5  C   UNL     1      -1.768   1.054   1.931  0.00  0.00    +0.063 A 
ATOM      6  C   UNL     1      -2.548   1.345   3.032  0.00  0.00    +0.149 A 
ENDROOT
BRANCH   6   7
ATOM      7  N   UNL     1      -3.519   0.348   3.537  0.00  0.00    +0.058 N 
ATOM      8  O   UNL     1      -3.710  -0.683   2.918  0.00  0.00    -0.126 OA
ATOM      9  O   UNL     1      -4.126   0.559   4.572  0.00  0.00    -0.126 OA
ENDBRANCH   6   7
BRANCH   4  10
ATOM     10  S   UNL     1       0.133   1.609   0.053  0.00  0.00    +0.061 S 
ATOM     11  O   UNL     1       0.212   0.192  -0.022  0.00  0.00    -0.153 OA
ATOM     12  O   UNL     1       1.288   2.432   0.140  0.00  0.00    -0.153 OA
BRANCH  10  13
ATOM     13  N   UNL     1      -0.704   2.107  -1.286  0.00  0.00    -0.172 NA
ATOM     14  C   UNL     1      -1.627   1.199  -1.984  0.00  0.00    +0.137 C 
ATOM     15  C   UNL     1      -2.970   1.925  -2.163  0.00  0.00    +0.177 C 
ATOM     16  O   UNL     1      -2.739   3.193  -2.782  0.00  0.00    -0.377 OA
ATOM     17  C   UNL     1      -1.933   4.084  -2.007  0.00  0.00    +0.177 C 
ATOM     18  C   UNL     1      -0.541   3.470  -1.817  0.00  0.00    +0.137 C 
ENDBRANCH  10  13
ENDBRANCH   4  10
BRANCH   1  19
ATOM     19  N   UNL     1      -3.208   2.872   4.781  0.00  0.00    -0.336 N 
ATOM     20  H   UNL     1      -3.786   2.192   5.162  0.00  0.00    +0.147 HD
BRANCH  19  22
ATOM     21  C   UNL     1      -4.126   5.134   4.629  0.00  0.00    +0.033 C 
ATOM     22  C   UNL     1      -3.161   4.210   5.375  0.00  0.00    +0.098 C 
BRANCH  22  23
ATOM     23  C   UNL     1      -3.561   4.131   6.825  0.00  0.00    -0.027 A 
ATOM     24  C   UNL     1      -4.597   3.302   7.215  0.00  0.00    +0.006 A 
ATOM     25  C   UNL     1      -4.959   3.236   8.544  0.00  0.00    +0.004 A 
ATOM     26  C   UNL     1      -4.289   3.994   9.496  0.00  0.00    -0.044 A 
ATOM     27  C   UNL     1      -3.255   4.816   9.109  0.00  0.00    -0.044 A 
ATOM     28  C   UNL     1      -2.891   4.880   7.770  0.00  0.00    +0.009 A 
ATOM     29  C   UNL     1      -2.480   5.659  10.088  0.00  0.00    +0.035 C 
ATOM     30  C   UNL     1      -3.251   5.808  11.398  0.00  0.00    +0.005 C 
ATOM     31  C   UNL     1      -3.666   4.411  11.875  0.00  0.00    +0.005 C 
ATOM     32  C   UNL     1      -4.740   3.879  10.929  0.00  0.00    +0.035 C 
ENDBRANCH  22  23
ENDBRANCH  19  22
ENDBRANCH   1  19
TORSDOF 6
