REMARK  Name = ZINC11872847
REMARK  6 active torsions:
REMARK  status: ('A' for Active; 'I' for Inactive)
REMARK    1  A    between atoms: C_10  and  N_12
REMARK    2  A    between atoms: C_13  and  C_15
REMARK    3  A    between atoms: C_18  and  C_23
REMARK    4  A    between atoms: C_23  and  N_65
REMARK    5  A    between atoms: C_26  and  C_29
REMARK    6  A    between atoms: C_26  and  O_36
REMARK                            x       y       z     vdW  Elec       q    Type
REMARK                         _______ _______ _______ _____ _____    ______ ____
ROOT
ATOM      1  C   UNL     1       4.779   4.295   1.460  0.00  0.00    +0.101 A 
ATOM      2  C   UNL     1       5.336   5.515   1.084  0.00  0.00    +0.020 A 
ATOM      3  C   UNL     1       6.071   6.239   2.022  0.00  0.00    +0.020 A 
ATOM      4  C   UNL     1       6.246   5.750   3.276  0.00  0.00    +0.003 A 
ATOM      5  N   UNL     1       5.712   4.562   3.647  0.00  0.00    -0.327 N 
ATOM      6  H   UNL     1       5.852   4.237   4.550  0.00  0.00    +0.169 HD
ATOM      7  C   UNL     1       4.988   3.825   2.782  0.00  0.00    +0.261 A 
ATOM      8  O   UNL     1       4.516   2.758   3.135  0.00  0.00    -0.267 OA
ENDROOT
BRANCH   1  10
ATOM      9  N   UNL     1       3.369   2.379   0.906  0.00  0.00    -0.304 N 
ATOM     10  C   UNL     1       3.992   3.504   0.501  0.00  0.00    +0.250 C 
ATOM     11  O   UNL     1       3.904   3.865  -0.657  0.00  0.00    -0.270 OA
ATOM     12  H   UNL     1       3.502   2.049   1.808  0.00  0.00    +0.150 HD
BRANCH   9  22
ATOM     13  C   UNL     1      -1.342   3.556   0.040  0.00  0.00    +0.000 A 
ATOM     14  C   UNL     1      -0.181   4.305   0.034  0.00  0.00    +0.000 A 
ATOM     15  C   UNL     1       1.044   3.671   0.019  0.00  0.00    +0.006 A 
ATOM     16  C   UNL     1       1.120   2.284   0.008  0.00  0.00    -0.024 A 
ATOM     17  C   UNL     1      -0.037   1.537   0.018  0.00  0.00    -0.042 A 
ATOM     18  C   UNL     1      -1.269   2.178   0.038  0.00  0.00    +0.004 A 
ATOM     19  C   UNL     1      -0.030   0.031   0.013  0.00  0.00    +0.035 C 
ATOM     20  C   UNL     1       1.331  -0.499  -0.433  0.00  0.00    +0.007 C 
ATOM     21  C   UNL     1       2.416   0.190   0.403  0.00  0.00    +0.027 C 
ATOM     22  C   UNL     1       2.490   1.657  -0.016  0.00  0.00    +0.104 C 
ENDBRANCH   9  22
ENDBRANCH   1  10
BRANCH   4  23
ATOM     23  C   UNL     1       7.048   6.544   4.274  0.00  0.00    -0.025 C 
BRANCH  23  29
ATOM     24  C   UNL     1       5.159   7.921   4.902  0.00  0.00    -0.075 C 
ATOM     25  C   UNL     1       4.181   8.233   6.037  0.00  0.00    +0.021 C 
ATOM     26  C   UNL     1       4.952   8.828   7.219  0.00  0.00    +0.088 C 
ATOM     27  C   UNL     1       6.035   7.841   7.661  0.00  0.00    +0.021 C 
ATOM     28  C   UNL     1       6.959   7.541   6.479  0.00  0.00    -0.075 C 
ATOM     29  N   UNL     1       6.161   6.947   5.385  0.00  0.00    +0.383 N 
ATOM     30  H   UNL     1       5.674   6.117   5.741  0.00  0.00    -0.081 HD
BRANCH  26  31
ATOM     31  C   UNL     1       4.005   9.083   8.363  0.00  0.00    -0.016 A 
ATOM     32  C   UNL     1       3.772   8.093   9.300  0.00  0.00    +0.008 A 
ATOM     33  C   UNL     1       2.907   8.328  10.352  0.00  0.00    +0.020 A 
ATOM     34  C   UNL     1       2.267   9.550  10.462  0.00  0.00    +0.041 A 
ATOM     35  C   UNL     1       2.497  10.537   9.521  0.00  0.00    +0.020 A 
ATOM     36  C   UNL     1       3.365  10.303   8.472  0.00  0.00    +0.008 A 
ATOM     37 CL   UNL     1       1.176   9.843  11.780  0.00  0.00    -0.084 Cl
ENDBRANCH  26  31
BRANCH  26  38
ATOM     38  O   UNL     1       5.561  10.058   6.820  0.00  0.00    -0.384 OA
ATOM     39  H   UNL     1       4.932  10.732   6.527  0.00  0.00    +0.211 HD
ENDBRANCH  26  38
ENDBRANCH  23  29
ENDBRANCH   4  23
TORSDOF 6
