REMARK  Name = ZINC36583853
REMARK  18 active torsions:
REMARK  status: ('A' for Active; 'I' for Inactive)
REMARK    1  A    between atoms: C_1  and  C_2
REMARK    2  A    between atoms: C_2  and  C_3
REMARK    3  A    between atoms: C_2  and  C_4
REMARK    4  A    between atoms: C_2  and  C_5
REMARK    5  A    between atoms: C_5  and  C_6
REMARK    6  A    between atoms: C_6  and  C_7
REMARK    7  A    between atoms: C_6  and  C_8
REMARK    8  A    between atoms: C_6  and  N_9
REMARK    9  A    between atoms: C_10  and  C_12
REMARK   10  A    between atoms: C_12  and  C_14
REMARK   11  A    between atoms: C_12  and  N_21
REMARK   12  A    between atoms: C_18  and  O_20
REMARK   13  A    between atoms: N_21  and  C_32
REMARK   14  A    between atoms: C_22  and  C_24
REMARK   15  A    between atoms: C_24  and  C_25
REMARK   16  A    between atoms: C_32  and  C_33
REMARK   17  A    between atoms: C_32  and  C_34
REMARK   18  A    between atoms: C_32  and  C_35
REMARK                            x       y       z     vdW  Elec       q    Type
REMARK                         _______ _______ _______ _____ _____    ______ ____
ROOT
ATOM      1  C   UNL     1       4.878  -1.023  -4.980  0.00  0.00    +0.193 C 
ENDROOT
BRANCH   1   2
ATOM      2  C   UNL     1       4.132  -0.692  -6.247  0.00  0.00    -0.015 A 
ATOM      3  C   UNL     1       4.351   0.516  -6.883  0.00  0.00    +0.006 A 
ATOM      4  C   UNL     1       3.668   0.822  -8.045  0.00  0.00    +0.004 A 
ATOM      5  C   UNL     1       2.763  -0.079  -8.573  0.00  0.00    +0.045 A 
ATOM      6  C   UNL     1       2.541  -1.292  -7.937  0.00  0.00    +0.117 A 
ATOM      7  C   UNL     1       3.233  -1.599  -6.774  0.00  0.00    +0.051 A 
BRANCH   6   8
ATOM      8  O   UNL     1       1.652  -2.179  -8.454  0.00  0.00    -0.507 OA
ATOM      9  H   UNL     1       2.040  -2.805  -9.081  0.00  0.00    +0.292 HD
ENDBRANCH   6   8
ENDBRANCH   1   2
BRANCH   1  11
ATOM     10  N   UNL     1       2.864  -0.989  -3.545  0.00  0.00    -0.308 N 
ATOM     11  C   UNL     1       4.102  -0.516  -3.792  0.00  0.00    +0.239 C 
ATOM     12  O   UNL     1       4.590   0.318  -3.059  0.00  0.00    -0.273 OA
ATOM     13  H   UNL     1       2.474  -1.655  -4.131  0.00  0.00    +0.149 HD
BRANCH  10  14
ATOM     14  C   UNL     1       2.109  -0.496  -2.390  0.00  0.00    +0.030 C 
ATOM     15  C   UNL     1       2.204   1.030  -2.332  0.00  0.00    +0.031 C 
ATOM     16  C   UNL     1       2.692  -1.092  -1.107  0.00  0.00    +0.031 C 
BRANCH  14  17
ATOM     17  C   UNL     1       0.643  -0.911  -2.525  0.00  0.00    +0.031 C 
BRANCH  17  19
ATOM     18  C   UNL     1       0.578  -1.839  -4.844  0.00  0.00    +0.010 C 
ATOM     19  C   UNL     1       0.171  -0.659  -3.958  0.00  0.00    -0.036 C 
ATOM     20  C   UNL     1       0.815   0.623  -4.489  0.00  0.00    +0.010 C 
ATOM     21  C   UNL     1      -1.351  -0.509  -3.976  0.00  0.00    +0.010 C 
ENDBRANCH  17  19
ENDBRANCH  14  17
ENDBRANCH  10  14
ENDBRANCH   1  11
BRANCH   1  22
ATOM     22  N   UNL     1       6.197  -0.384  -5.010  0.00  0.00    -0.281 N 
ATOM     23  C   UNL     1       6.295   0.960  -5.011  0.00  0.00    +0.221 C 
ATOM     24  O   UNL     1       5.312   1.640  -4.803  0.00  0.00    -0.275 OA
BRANCH  22  25
ATOM     25  C   UNL     1       7.409  -1.207  -5.038  0.00  0.00    +0.030 C 
ATOM     26  C   UNL     1       7.021  -2.680  -5.182  0.00  0.00    +0.031 C 
ATOM     27  C   UNL     1       8.280  -0.791  -6.225  0.00  0.00    +0.031 C 
ATOM     28  C   UNL     1       8.190  -1.010  -3.738  0.00  0.00    +0.031 C 
ENDBRANCH  22  25
BRANCH  23  29
ATOM     29  C   UNL     1       7.625   1.618  -5.271  0.00  0.00    +0.131 C 
BRANCH  29  30
ATOM     30  C   UNL     1       7.509   3.100  -5.027  0.00  0.00    -0.039 A 
ATOM     31  C   UNL     1       7.144   3.944  -6.059  0.00  0.00    +0.005 A 
ATOM     32  C   UNL     1       7.036   5.304  -5.835  0.00  0.00    +0.015 A 
ATOM     33  C   UNL     1       7.294   5.820  -4.578  0.00  0.00    +0.018 A 
ATOM     34  C   UNL     1       7.659   4.976  -3.545  0.00  0.00    +0.015 A 
ATOM     35  C   UNL     1       7.761   3.615  -3.769  0.00  0.00    +0.005 A 
ATOM     36 BR   UNL     1       7.147   7.681  -4.271  0.00  0.00    -0.050 Br
ENDBRANCH  29  30
ENDBRANCH  23  29
ENDBRANCH   1  22
TORSDOF 10
