REMARK  Name = ZINC34749194
REMARK  11 active torsions:
REMARK  status: ('A' for Active; 'I' for Inactive)
REMARK    1  A    between atoms: C_1  and  C_2
REMARK    2  A    between atoms: C_2  and  C_3
REMARK    3  A    between atoms: C_4  and  C_37
REMARK    4  A    between atoms: N_10  and  C_28
REMARK    5  A    between atoms: N_16  and  C_19
REMARK    6  A    between atoms: C_19  and  C_20
REMARK    7  A    between atoms: C_22  and  C_27
REMARK    8  A    between atoms: C_25  and  C_26
REMARK    9  A    between atoms: C_28  and  C_29
REMARK   10  A    between atoms: C_29  and  C_30
REMARK   11  A    between atoms: C_30  and  C_31
REMARK                            x       y       z     vdW  Elec       q    Type
REMARK                         _______ _______ _______ _____ _____    ______ ____
ROOT
ATOM      1  C   UNL     1      -0.924   0.037  -0.743  0.00  0.00    -0.023 A 
ATOM      2  C   UNL     1      -1.460  -0.109   0.478  0.00  0.00    -0.007 A 
ATOM      3  S   UNL     1      -3.092  -0.744   0.141  0.00  0.00    -0.073 S 
ATOM      4  C   UNL     1      -3.007  -0.795  -1.630  0.00  0.00    +0.117 A 
ATOM      5  C   UNL     1      -1.715  -0.311  -1.911  0.00  0.00    +0.076 A 
ATOM      6  C   UNL     1      -1.366  -0.237  -3.296  0.00  0.00    +0.264 A 
ATOM      7  O   UNL     1      -0.266   0.165  -3.635  0.00  0.00    -0.267 OA
ATOM      8  N   UNL     1      -2.267  -0.618  -4.220  0.00  0.00    -0.280 N 
ATOM      9  C   UNL     1      -3.502  -1.070  -3.860  0.00  0.00    +0.202 A 
ATOM     10  N   UNL     1      -3.847  -1.159  -2.592  0.00  0.00    -0.208 NA
ATOM     11  N   UNL     1      -4.394  -1.448  -4.832  0.00  0.00    -0.304 N 
ATOM     12  C   UNL     1      -5.277  -0.462  -5.474  0.00  0.00    +0.089 C 
ATOM     13  C   UNL     1      -6.714  -0.992  -5.424  0.00  0.00    -0.059 C 
ATOM     14  N   UNL     1      -6.763  -2.330  -6.025  0.00  0.00    +0.384 N 
ATOM     15  C   UNL     1      -5.968  -3.268  -5.223  0.00  0.00    -0.059 C 
ATOM     16  C   UNL     1      -4.490  -2.851  -5.267  0.00  0.00    +0.089 C 
ATOM     17  C   UNL     1      -0.833   0.191   1.815  0.00  0.00    +0.052 C 
ATOM     18  H   UNL     1      -6.389  -2.291  -6.962  0.00  0.00    -0.081 HD
ENDROOT
BRANCH   1  20
ATOM     19  C   UNL     1       0.444   2.087  -1.011  0.00  0.00    +0.009 C 
ATOM     20  C   UNL     1       0.479   0.562  -0.901  0.00  0.00    +0.033 C 
ENDBRANCH   1  20
BRANCH  14  21
ATOM     21  C   UNL     1      -8.156  -2.792  -6.077  0.00  0.00    -0.043 C 
BRANCH  21  22
ATOM     22  C   UNL     1      -8.224  -4.104  -6.815  0.00  0.00    -0.061 A 
ATOM     23  C   UNL     1      -8.419  -5.281  -6.117  0.00  0.00    +0.005 A 
ATOM     24  C   UNL     1      -8.482  -6.484  -6.794  0.00  0.00    -0.050 A 
ATOM     25  C   UNL     1      -8.349  -6.510  -8.170  0.00  0.00    +0.003 A 
ATOM     26  C   UNL     1      -8.155  -5.334  -8.868  0.00  0.00    +0.004 A 
ATOM     27  C   UNL     1      -8.097  -4.130  -8.191  0.00  0.00    -0.049 A 
ATOM     28  C   UNL     1      -7.890  -2.846  -8.953  0.00  0.00    +0.044 C 
ATOM     29  C   UNL     1      -8.694  -7.767  -6.032  0.00  0.00    +0.044 C 
ENDBRANCH  21  22
ENDBRANCH  14  21
BRANCH   8  30
ATOM     30  C   UNL     1      -1.915  -0.544  -5.640  0.00  0.00    +0.128 C 
BRANCH  30  31
ATOM     31  C   UNL     1      -1.161  -1.812  -6.045  0.00  0.00    +0.026 C 
BRANCH  31  32
ATOM     32  C   UNL     1      -0.793  -1.735  -7.528  0.00  0.00    +0.037 C 
BRANCH  32  33
ATOM     33  C   UNL     1      -0.051  -2.984  -7.927  0.00  0.00    -0.047 A 
ATOM     34  C   UNL     1       1.327  -3.034  -7.820  0.00  0.00    +0.003 A 
ATOM     35  C   UNL     1       2.007  -4.180  -8.186  0.00  0.00    +0.000 A 
ATOM     36  C   UNL     1       1.311  -5.277  -8.659  0.00  0.00    +0.000 A 
ATOM     37  C   UNL     1      -0.067  -5.227  -8.765  0.00  0.00    +0.000 A 
ATOM     38  C   UNL     1      -0.748  -4.083  -8.395  0.00  0.00    +0.003 A 
ENDBRANCH  32  33
ENDBRANCH  31  32
ENDBRANCH  30  31
ENDBRANCH   8  30
TORSDOF 7
