REMARK  Name = ZINC39338158
REMARK  7 active torsions:
REMARK  status: ('A' for Active; 'I' for Inactive)
REMARK    1  A    between atoms: C_1  and  C_2
REMARK    2  A    between atoms: C_2  and  C_3
REMARK    3  A    between atoms: C_2  and  C_4
REMARK    4  A    between atoms: C_4  and  C_5
REMARK    5  A    between atoms: C_8  and  C_11
REMARK    6  A    between atoms: C_15  and  C_26
REMARK    7  A    between atoms: C_17  and  C_19
REMARK                            x       y       z     vdW  Elec       q    Type
REMARK                         _______ _______ _______ _____ _____    ______ ____
ROOT
ATOM      1  C   UNL     1      -2.204   0.945   5.965  0.00  0.00    +0.064 C 
ATOM      2  N   UNL     1      -1.940   2.110   6.527  0.00  0.00    -0.179 NA
ATOM      3  C   UNL     1      -2.565   2.539   7.621  0.00  0.00    +0.258 C 
ATOM      4  O   UNL     1      -2.293   3.619   8.108  0.00  0.00    -0.272 OA
ATOM      5  C   UNL     1      -3.623   1.653   8.245  0.00  0.00    +0.209 C 
ATOM      6  C   UNL     1      -3.891   0.325   7.564  0.00  0.00    -0.013 C 
ATOM      7  C   UNL     1      -3.168   0.040   6.450  0.00  0.00    +0.031 C 
ENDROOT
BRANCH   6   8
ATOM      8  C   UNL     1      -4.896  -0.612   8.084  0.00  0.00    -0.020 A 
ATOM      9  C   UNL     1      -6.252  -0.262   8.083  0.00  0.00    +0.009 A 
ATOM     10  C   UNL     1      -7.188  -1.146   8.572  0.00  0.00    +0.020 A 
ATOM     11  C   UNL     1      -6.791  -2.379   9.065  0.00  0.00    +0.041 A 
ATOM     12  C   UNL     1      -5.451  -2.732   9.070  0.00  0.00    +0.020 A 
ATOM     13  C   UNL     1      -4.504  -1.862   8.578  0.00  0.00    +0.009 A 
ATOM     14 CL   UNL     1      -7.979  -3.486   9.679  0.00  0.00    -0.084 Cl
ENDBRANCH   6   8
BRANCH   1  18
ATOM     15  C   UNL     1      -0.030  -0.130   2.478  0.00  0.00    -0.047 A 
ATOM     16  C   UNL     1       0.221   1.081   3.100  0.00  0.00    +0.004 A 
ATOM     17  C   UNL     1      -0.481   1.437   4.233  0.00  0.00    +0.010 A 
ATOM     18  C   UNL     1      -1.448   0.571   4.752  0.00  0.00    -0.002 A 
ATOM     19  C   UNL     1      -1.696  -0.649   4.118  0.00  0.00    +0.010 A 
ATOM     20  C   UNL     1      -0.990  -0.989   2.983  0.00  0.00    +0.004 A 
BRANCH  15  21
ATOM     21  C   UNL     1       0.742  -0.511   1.242  0.00  0.00    +0.038 C 
BRANCH  21  23
ATOM     22  C   UNL     1      -0.019   1.526   0.010  0.00  0.00    +0.007 C 
ATOM     23  C   UNL     1       0.002  -0.004   0.002  0.00  0.00    -0.013 C 
ATOM     24  C   UNL     1       0.718  -0.497  -1.257  0.00  0.00    +0.007 C 
ENDBRANCH  21  23
ENDBRANCH  15  21
ENDBRANCH   1  18
BRANCH   5  25
ATOM     25  C   UNL     1      -4.886   2.409   8.280  0.00  0.00    +0.080 C 
ATOM     26  N   UNL     1      -5.860   2.992   8.307  0.00  0.00    -0.195 NA
ENDBRANCH   5  25
TORSDOF 5
