REMARK  Name = ZINC39770240
REMARK  15 active torsions:
REMARK  status: ('A' for Active; 'I' for Inactive)
REMARK    1  A    between atoms: C_1  and  C_2
REMARK    2  A    between atoms: C_2  and  C_3
REMARK    3  A    between atoms: C_3  and  N_4
REMARK    4  A    between atoms: C_5  and  N_27
REMARK    5  A    between atoms: C_6  and  C_14
REMARK    6  A    between atoms: C_7  and  C_13
REMARK    7  A    between atoms: C_8  and  C_11
REMARK    8  A    between atoms: N_18  and  C_22
REMARK    9  A    between atoms: C_22  and  C_24
REMARK   10  A    between atoms: C_22  and  C_25
REMARK   11  A    between atoms: C_25  and  C_26
REMARK   12  A    between atoms: C_30  and  C_33
REMARK   13  A    between atoms: C_33  and  O_35
REMARK   14  A    between atoms: O_35  and  C_36
REMARK   15  A    between atoms: C_36  and  C_37
REMARK                            x       y       z     vdW  Elec       q    Type
REMARK                         _______ _______ _______ _____ _____    ______ ____
ROOT
ATOM      1  N   UNL     1       0.344  -2.331  -1.420  0.00  0.00    -0.295 N 
ATOM      2  C   UNL     1       1.451  -2.820  -0.804  0.00  0.00    +0.112 A 
ATOM      3  C   UNL     1       1.846  -4.154  -1.000  0.00  0.00    +0.019 A 
ATOM      4  C   UNL     1       1.084  -4.984  -1.839  0.00  0.00    -0.017 A 
ATOM      5  C   UNL     1      -0.047  -4.458  -2.459  0.00  0.00    +0.120 A 
ATOM      6  C   UNL     1      -0.405  -3.106  -2.225  0.00  0.00    +0.270 A 
ATOM      7  O   UNL     1      -1.396  -2.642  -2.760  0.00  0.00    -0.266 OA
ATOM      8  C   UNL     1       1.485  -6.418  -2.067  0.00  0.00    +0.046 C 
ENDROOT
BRANCH   3   9
ATOM      9  C   UNL     1       3.041  -4.675  -0.334  0.00  0.00    +0.032 C 
ATOM     10  C   UNL     1       2.923  -5.645   0.614  0.00  0.00    +0.077 C 
ATOM     11  C   UNL     1       1.747  -6.219   1.185  0.00  0.00    +0.259 C 
ATOM     12  O   UNL     1       0.638  -5.853   0.839  0.00  0.00    -0.269 OA
ATOM     13  N   UNL     1       1.898  -7.160   2.101  0.00  0.00    -0.252 N 
ATOM     14  C   UNL     1       3.129  -7.566   2.485  0.00  0.00    +0.121 C 
ATOM     15  S   UNL     1       3.554  -8.755   3.641  0.00  0.00    -0.027 S 
ATOM     16  S   UNL     1       4.199  -6.552   1.476  0.00  0.00    -0.061 S 
BRANCH  13  17
ATOM     17  C   UNL     1       0.714  -7.772   2.709  0.00  0.00    +0.080 C 
ATOM     18  C   UNL     1       0.736  -7.532   4.220  0.00  0.00    +0.028 C 
BRANCH  17  19
ATOM     19  C   UNL     1       0.718  -9.276   2.431  0.00  0.00    +0.019 C 
ATOM     20  C   UNL     1       0.571  -9.517   0.927  0.00  0.00    +0.006 C 
ENDBRANCH  17  19
ENDBRANCH  13  17
ENDBRANCH   3   9
BRANCH   2  21
ATOM     21  N   UNL     1       2.186  -2.009   0.010  0.00  0.00    -0.316 N 
ATOM     22  C   UNL     1       1.956  -1.998   1.461  0.00  0.00    +0.107 C 
ATOM     23  C   UNL     1       3.288  -2.253   2.174  0.00  0.00    +0.033 C 
ATOM     24  C   UNL     1       4.322  -1.232   1.694  0.00  0.00    +0.101 C 
ATOM     25  C   UNL     1       4.541  -1.395   0.188  0.00  0.00    +0.033 C 
ATOM     26  C   UNL     1       3.228  -1.135  -0.546  0.00  0.00    +0.107 C 
BRANCH  24  27
ATOM     27  C   UNL     1       5.624  -1.458   2.418  0.00  0.00    +0.310 C 
ATOM     28  O   UNL     1       5.716  -2.345   3.234  0.00  0.00    -0.251 OA
BRANCH  27  29
ATOM     29  O   UNL     1       6.683  -0.675   2.156  0.00  0.00    -0.465 OA
BRANCH  29  30
ATOM     30  C   UNL     1       7.885  -0.946   2.879  0.00  0.00    +0.229 C 
ATOM     31  C   UNL     1       8.972   0.042   2.450  0.00  0.00    +0.048 C 
ENDBRANCH  29  30
ENDBRANCH  27  29
ENDBRANCH  24  27
ENDBRANCH   2  21
BRANCH   5  32
ATOM     32  C   UNL     1      -0.844  -5.278  -3.321  0.00  0.00    +0.105 C 
ATOM     33  N   UNL     1      -1.477  -5.928  -4.005  0.00  0.00    -0.191 NA
ENDBRANCH   5  32
BRANCH   1  34
ATOM     34  C   UNL     1      -0.045  -0.936  -1.200  0.00  0.00    +0.126 C 
BRANCH  34  36
ATOM     35  C   UNL     1      -1.483   0.591   0.158  0.00  0.00    +0.005 C 
ATOM     36  C   UNL     1      -1.077  -0.866  -0.073  0.00  0.00    +0.018 C 
ENDBRANCH  34  36
ENDBRANCH   1  34
TORSDOF 10
