REMARK  Name = ZINC39664308
REMARK  6 active torsions:
REMARK  status: ('A' for Active; 'I' for Inactive)
REMARK    1  A    between atoms: C_4  and  C_7
REMARK    2  A    between atoms: C_7  and  C_9
REMARK    3  A    between atoms: C_7  and  N_33
REMARK    4  A    between atoms: C_9  and  N_10
REMARK    5  A    between atoms: C_11  and  C_13
REMARK    6  A    between atoms: C_24  and  C_26
REMARK                            x       y       z     vdW  Elec       q    Type
REMARK                         _______ _______ _______ _____ _____    ______ ____
ROOT
ATOM      1  C   UNL     1       8.648  -3.612  -2.131  0.00  0.00    +0.100 C 
ATOM      2  C   UNL     1       9.816  -3.129  -1.242  0.00  0.00    +0.121 C 
ATOM      3  N   UNL     1      11.025  -3.733  -1.850  0.00  0.00    -0.296 N 
ATOM      4  C   UNL     1      10.794  -3.628  -3.311  0.00  0.00    +0.115 C 
ATOM      5  C   UNL     1       9.294  -3.938  -3.488  0.00  0.00    -0.004 C 
ATOM      6  C   UNL     1       8.700  -3.055  -4.582  0.00  0.00    -0.010 C 
ATOM      7  C   UNL     1       9.315  -3.438  -5.931  0.00  0.00    -0.082 C 
ATOM      8  N   UNL     1       9.041  -4.852  -6.213  0.00  0.00    +0.379 N 
ATOM      9  C   UNL     1       9.695  -5.699  -5.207  0.00  0.00    -0.082 C 
ATOM     10  C   UNL     1       9.096  -5.412  -3.828  0.00  0.00    -0.010 C 
ATOM     11  C   UNL     1      12.092  -4.259  -1.218  0.00  0.00    +0.247 C 
ATOM     12  O   UNL     1      12.167  -4.208  -0.006  0.00  0.00    -0.270 OA
ATOM     13  H   UNL     1       8.045  -5.012  -6.188  0.00  0.00    -0.086 HD
ATOM     14  H   UNL     1       9.395  -5.086  -7.128  0.00  0.00    -0.086 HD
ENDROOT
BRANCH  11  15
ATOM     15  C   UNL     1      13.172  -4.898  -1.999  0.00  0.00    +0.037 A 
ATOM     16  C   UNL     1      13.433  -4.481  -3.306  0.00  0.00    +0.014 A 
ATOM     17  C   UNL     1      14.443  -5.080  -4.029  0.00  0.00    +0.021 A 
ATOM     18  C   UNL     1      15.197  -6.094  -3.462  0.00  0.00    +0.041 A 
ATOM     19  C   UNL     1      14.943  -6.512  -2.166  0.00  0.00    +0.021 A 
ATOM     20  C   UNL     1      13.940  -5.917  -1.431  0.00  0.00    +0.014 A 
ATOM     21 CL   UNL     1      16.465  -6.845  -4.380  0.00  0.00    -0.084 Cl
ENDBRANCH  11  15
BRANCH   1  23
ATOM     22  N   UNL     1       6.328  -2.837  -2.496  0.00  0.00    -0.313 N 
ATOM     23  C   UNL     1       7.621  -2.521  -2.287  0.00  0.00    +0.218 C 
ATOM     24  O   UNL     1       7.958  -1.357  -2.225  0.00  0.00    -0.275 OA
ATOM     25  H   UNL     1       6.058  -3.768  -2.546  0.00  0.00    +0.149 HD
BRANCH  22  26
ATOM     26  C   UNL     1       5.329  -1.776  -2.648  0.00  0.00    +0.127 C 
BRANCH  26  27
ATOM     27  C   UNL     1       3.951  -2.402  -2.873  0.00  0.00    +0.104 C 
BRANCH  27  31
ATOM     28  C   UNL     1       1.101   0.682  -3.659  0.00  0.00    +0.000 A 
ATOM     29  C   UNL     1       0.790  -0.339  -2.781  0.00  0.00    +0.000 A 
ATOM     30  C   UNL     1       1.712  -1.337  -2.527  0.00  0.00    +0.005 A 
ATOM     31  C   UNL     1       2.945  -1.314  -3.151  0.00  0.00    -0.029 A 
ATOM     32  C   UNL     1       3.256  -0.293  -4.029  0.00  0.00    +0.005 A 
ATOM     33  C   UNL     1       2.335   0.705  -4.282  0.00  0.00    +0.000 A 
ENDBRANCH  27  31
BRANCH  27  34
ATOM     34  N   UNL     1       4.010  -3.318  -4.019  0.00  0.00    -0.290 NA
ATOM     35  C   UNL     1       4.164  -2.577  -5.279  0.00  0.00    +0.113 C 
ATOM     36  C   UNL     1       4.282  -3.571  -6.438  0.00  0.00    +0.175 C 
ATOM     37  O   UNL     1       3.132  -4.422  -6.447  0.00  0.00    -0.377 OA
ATOM     38  C   UNL     1       2.952  -5.160  -5.236  0.00  0.00    +0.175 C 
ATOM     39  C   UNL     1       2.821  -4.182  -4.064  0.00  0.00    +0.113 C 
ENDBRANCH  27  34
ENDBRANCH  26  27
ENDBRANCH  22  26
ENDBRANCH   1  23
TORSDOF 6
