REMARK  Name = ZINC61888051
REMARK  7 active torsions:
REMARK  status: ('A' for Active; 'I' for Inactive)
REMARK    1  A    between atoms: C_1  and  C_2
REMARK    2  A    between atoms: C_3  and  S_9
REMARK    3  A    between atoms: C_4  and  C_8
REMARK    4  A    between atoms: S_9  and  N_12
REMARK    5  A    between atoms: N_12  and  C_13
REMARK    6  A    between atoms: C_18  and  C_20
REMARK    7  A    between atoms: N_21  and  O_22
REMARK                            x       y       z     vdW  Elec       q    Type
REMARK                         _______ _______ _______ _____ _____    ______ ____
ROOT
ATOM      1  N   UNL     1       1.569  -0.072  -3.243  0.00  0.00    -0.186 NA
ATOM      2  H   UNL     1       1.914   0.806  -3.466  0.00  0.00    +0.148 HD
ENDROOT
BRANCH   1   3
ATOM      3  C   UNL     1       2.444  -1.245  -3.324  0.00  0.00    +0.087 C 
ATOM      4  C   UNL     1       3.282  -1.367  -2.039  0.00  0.00    +0.021 C 
ATOM      5  C   UNL     1       4.761  -1.272  -2.467  0.00  0.00    +0.002 C 
ATOM      6  C   UNL     1       4.755  -1.706  -3.954  0.00  0.00    +0.013 C 
ATOM      7  C   UNL     1       3.442  -1.079  -4.489  0.00  0.00    +0.074 C 
BRANCH   7   8
ATOM      8  C   UNL     1       2.959  -1.823  -5.707  0.00  0.00    +0.136 C 
ATOM      9  N   UNL     1       2.163  -2.832  -5.574  0.00  0.00    -0.076 NA
ATOM     10  N   UNL     1       3.368  -1.429  -6.962  0.00  0.00    -0.344 N 
ATOM     11  H   UNL     1       3.966  -0.672  -7.061  0.00  0.00    +0.144 HD
ATOM     12  H   UNL     1       3.057  -1.908  -7.746  0.00  0.00    +0.144 HD
BRANCH   9  13
ATOM     13  O   UNL     1       1.709  -3.531  -6.719  0.00  0.00    -0.408 OA
ATOM     14  H   UNL     1       1.117  -4.269  -6.520  0.00  0.00    +0.328 HD
ENDBRANCH   9  13
ENDBRANCH   7   8
ENDBRANCH   1   3
BRANCH   1  15
ATOM     15  S   UNL     1      -0.008  -0.247  -2.770  0.00  0.00    +0.062 S 
ATOM     16  O   UNL     1      -0.548  -1.312  -3.541  0.00  0.00    -0.153 OA
ATOM     17  O   UNL     1      -0.578   1.055  -2.765  0.00  0.00    -0.153 OA
BRANCH  15  20
ATOM     18  C   UNL     1      -0.018   1.503   0.010  0.00  0.00    +0.067 C 
ATOM     19  C   UNL     1       0.002  -0.004   0.002  0.00  0.00    +0.060 A 
ATOM     20  C   UNL     1       0.008  -0.796  -1.095  0.00  0.00    +0.148 A 
ATOM     21  C   UNL     1       0.028  -2.127  -0.666  0.00  0.00    +0.086 A 
ATOM     22  N   UNL     1       0.035  -2.134   0.643  0.00  0.00    -0.177 NA
ATOM     23  N   UNL     1       0.024  -0.805   1.088  0.00  0.00    -0.280 N 
ATOM     24  H   UNL     1       0.029  -0.513   2.013  0.00  0.00    +0.189 HD
ATOM     25  C   UNL     1       0.040  -3.343  -1.556  0.00  0.00    +0.069 C 
ENDBRANCH  15  20
ENDBRANCH   1  15
TORSDOF 5
