REMARK  Name = ZINC02220277
REMARK  5 active torsions:
REMARK  status: ('A' for Active; 'I' for Inactive)
REMARK    1  A    between atoms: C_1  and  S_2
REMARK    2  A    between atoms: S_2  and  N_5
REMARK    3  A    between atoms: N_5  and  C_6
REMARK    4  A    between atoms: C_18  and  N_20
REMARK    5  A    between atoms: N_20  and  C_21
REMARK                            x       y       z     vdW  Elec       q    Type
REMARK                         _______ _______ _______ _____ _____    ______ ____
ROOT
ATOM      1  C   UNL     1       4.768   1.054   0.689  0.00  0.00    +0.131 C 
ATOM      2  C   UNL     1       5.893   0.825  -0.291  0.00  0.00    -0.019 A 
ATOM      3  C   UNL     1       7.112   0.224  -0.225  0.00  0.00    +0.006 A 
ATOM      4  C   UNL     1       7.941   0.181  -1.348  0.00  0.00    +0.001 A 
ATOM      5  C   UNL     1       7.577   0.729  -2.544  0.00  0.00    +0.008 A 
ATOM      6  C   UNL     1       6.326   1.357  -2.649  0.00  0.00    -0.017 A 
ATOM      7  C   UNL     1       5.509   1.387  -1.504  0.00  0.00    -0.008 A 
ATOM      8  C   UNL     1       4.251   1.983  -1.494  0.00  0.00    -0.017 A 
ATOM      9  C   UNL     1       3.806   2.555  -2.646  0.00  0.00    +0.006 A 
ATOM     10  C   UNL     1       4.601   2.538  -3.795  0.00  0.00    +0.001 A 
ATOM     11  C   UNL     1       5.836   1.958  -3.820  0.00  0.00    +0.008 A 
ATOM     12  C   UNL     1       3.685   1.817  -0.105  0.00  0.00    +0.124 C 
ENDROOT
BRANCH   1  13
ATOM     13  N   UNL     1       4.240  -0.228   1.164  0.00  0.00    -0.185 NA
ATOM     14  H   UNL     1       3.621  -0.732   0.613  0.00  0.00    +0.148 HD
BRANCH  13  16
ATOM     15  C   UNL     1       4.036   0.370   3.843  0.00  0.00    +0.214 C 
ATOM     16  S   UNL     1       4.701  -0.816   2.642  0.00  0.00    +0.027 S 
ATOM     17  O   UNL     1       4.029  -2.062   2.761  0.00  0.00    -0.158 OA
ATOM     18  O   UNL     1       6.120  -0.757   2.629  0.00  0.00    -0.158 OA
ENDBRANCH  13  16
ENDBRANCH   1  13
BRANCH  12  19
ATOM     19  N   UNL     1       2.445   1.038  -0.151  0.00  0.00    -0.335 N 
ATOM     20  H   UNL     1       2.285   0.425  -0.885  0.00  0.00    +0.147 HD
BRANCH  19  21
ATOM     21  C   UNL     1       1.494   1.178   0.863  0.00  0.00    +0.028 A 
ATOM     22  C   UNL     1       0.318   0.440   0.820  0.00  0.00    +0.024 A 
ATOM     23  C   UNL     1      -0.623   0.584   1.821  0.00  0.00    +0.017 A 
ATOM     24  C   UNL     1      -0.390   1.454   2.871  0.00  0.00    +0.018 A 
ATOM     25  C   UNL     1       0.780   2.191   2.916  0.00  0.00    +0.017 A 
ATOM     26  C   UNL     1       1.722   2.055   1.915  0.00  0.00    +0.024 A 
ATOM     27 BR   UNL     1      -1.677   1.643   4.243  0.00  0.00    -0.050 Br
ENDBRANCH  19  21
ENDBRANCH  12  19
TORSDOF 4
