REMARK  Name = ZINC20285807
REMARK  2 active torsions:
REMARK  status: ('A' for Active; 'I' for Inactive)
REMARK    1  A    between atoms: C_2  and  C_11
REMARK    2  A    between atoms: C_6  and  C_7
REMARK                            x       y       z     vdW  Elec       q    Type
REMARK                         _______ _______ _______ _____ _____    ______ ____
ROOT
ATOM      1  C   UNL     1       1.213  -0.678  -0.013  0.00  0.00    +0.040 A 
ATOM      2  C   UNL     1       2.379   0.076  -0.020  0.00  0.00    +0.095 A 
ATOM      3  C   UNL     1       2.259   1.459  -0.012  0.00  0.00    +0.163 A 
ATOM      4  N   UNL     1       1.061   2.014   0.003  0.00  0.00    -0.137 NA
ATOM      5  N   UNL     1      -0.016   1.315   0.009  0.00  0.00    -0.153 NA
ATOM      6  C   UNL     1       0.002  -0.004   0.002  0.00  0.00    +0.067 A 
ATOM      7 CL   UNL     1       3.680   2.455  -0.020  0.00  0.00    -0.060 Cl
ENDROOT
BRANCH   2   8
ATOM      8  C   UNL     1       3.732  -0.586  -0.037  0.00  0.00    +0.420 C 
ATOM      9  F   UNL     1       3.572  -1.975  -0.044  0.00  0.00    -0.166 F 
ATOM     10  F   UNL     1       4.430  -0.192  -1.184  0.00  0.00    -0.166 F 
ATOM     11  F   UNL     1       4.452  -0.204   1.100  0.00  0.00    -0.166 F 
ENDBRANCH   2   8
BRANCH   6  12
ATOM     12  C   UNL     1      -1.292  -0.777   0.010  0.00  0.00    +0.040 C 
ATOM     13  C   UNL     1      -1.234  -2.255  -0.379  0.00  0.00    +0.010 C 
ATOM     14  C   UNL     1      -1.849  -1.235  -1.339  0.00  0.00    +0.010 C 
ENDBRANCH   6  12
TORSDOF 2
