REMARK  Name = ZINC28262683
REMARK  8 active torsions:
REMARK  status: ('A' for Active; 'I' for Inactive)
REMARK    1  A    between atoms: C_1  and  C_2
REMARK    2  A    between atoms: C_3  and  C_33
REMARK    3  A    between atoms: C_7  and  S_17
REMARK    4  A    between atoms: C_9  and  C_11
REMARK    5  A    between atoms: C_11  and  N_12
REMARK    6  A    between atoms: S_17  and  C_18
REMARK    7  A    between atoms: C_18  and  C_19
REMARK    8  A    between atoms: N_25  and  C_26
REMARK                            x       y       z     vdW  Elec       q    Type
REMARK                         _______ _______ _______ _____ _____    ______ ____
ROOT
ATOM      1  S   UNL     1       3.255  -1.788   0.503  0.00  0.00    -0.097 S 
ENDROOT
BRANCH   1   8
ATOM      2  C   UNL     1       3.015   1.025   1.222  0.00  0.00    +0.045 C 
ATOM      3  C   UNL     1       1.515   0.884   1.218  0.00  0.00    -0.029 A 
ATOM      4  C   UNL     1       0.734   1.937   1.501  0.00  0.00    -0.008 A 
ATOM      5  S   UNL     1      -0.918   1.278   1.369  0.00  0.00    -0.074 S 
ATOM      6  C   UNL     1      -0.514  -0.394   0.937  0.00  0.00    +0.113 A 
ATOM      7  C   UNL     1       0.898  -0.393   0.907  0.00  0.00    +0.043 A 
ATOM      8  C   UNL     1       1.501  -1.639   0.578  0.00  0.00    +0.109 A 
ATOM      9  N   UNL     1       0.728  -2.684   0.329  0.00  0.00    -0.227 NA
ATOM     10  C   UNL     1      -0.590  -2.611   0.376  0.00  0.00    +0.115 A 
ATOM     11  N   UNL     1      -1.207  -1.484   0.675  0.00  0.00    -0.227 NA
ATOM     12  C   UNL     1       1.152   3.343   1.848  0.00  0.00    +0.052 C 
BRANCH  10  13
ATOM     13  C   UNL     1      -1.407  -3.842   0.080  0.00  0.00    -0.001 C 
BRANCH  13  14
ATOM     14  N   UNL     1      -1.700  -3.902  -1.358  0.00  0.00    +0.384 N 
ATOM     15  C   UNL     1      -0.457  -3.780  -2.160  0.00  0.00    -0.078 C 
ATOM     16  C   UNL     1      -0.860  -4.376  -3.533  0.00  0.00    -0.020 C 
ATOM     17  C   UNL     1      -1.789  -5.548  -3.140  0.00  0.00    -0.020 C 
ATOM     18  C   UNL     1      -2.291  -5.207  -1.725  0.00  0.00    -0.078 C 
ATOM     19  H   UNL     1      -2.397  -3.074  -1.556  0.00  0.00    -0.081 HD
ENDBRANCH  13  14
ENDBRANCH  10  13
ENDBRANCH   1   8
BRANCH   1  20
ATOM     20  C   UNL     1       3.403  -3.536   0.056  0.00  0.00    +0.152 C 
BRANCH  20  21
ATOM     21  C   UNL     1       4.859  -3.901  -0.068  0.00  0.00    +0.146 A 
ATOM     22  N   UNL     1       5.471  -3.785  -1.234  0.00  0.00    -0.199 NA
ATOM     23  C   UNL     1       6.759  -4.101  -1.346  0.00  0.00    +0.217 A 
ATOM     24  N   UNL     1       7.427  -4.546  -0.287  0.00  0.00    -0.181 NA
ATOM     25  C   UNL     1       6.807  -4.667   0.882  0.00  0.00    +0.224 A 
ATOM     26  N   UNL     1       5.520  -4.343   0.987  0.00  0.00    -0.198 NA
ATOM     27  N   UNL     1       7.497  -5.128   1.986  0.00  0.00    -0.284 N 
ATOM     28  N   UNL     1       7.399  -3.974  -2.562  0.00  0.00    -0.327 N 
ATOM     29  H   UNL     1       7.010  -5.142   2.972  0.00  0.00    +0.155 HD
ATOM     30  H   UNL     1       8.463  -4.236  -2.654  0.00  0.00    +0.145 HD
ATOM     31  H   UNL     1       6.844  -3.610  -3.440  0.00  0.00    +0.145 HD
BRANCH  27  32
ATOM     32  C   UNL     1       8.814  -5.578   1.850  0.00  0.00    +0.034 A 
ATOM     33  C   UNL     1       9.217  -6.208   0.680  0.00  0.00    +0.023 A 
ATOM     34  C   UNL     1      10.520  -6.646   0.546  0.00  0.00    +0.002 A 
ATOM     35  C   UNL     1      11.421  -6.467   1.580  0.00  0.00    +0.000 A 
ATOM     36  C   UNL     1      11.021  -5.845   2.749  0.00  0.00    +0.002 A 
ATOM     37  C   UNL     1       9.721  -5.400   2.887  0.00  0.00    +0.023 A 
ENDBRANCH  27  32
ENDBRANCH  20  21
ENDBRANCH   1  20
TORSDOF 6
