REMARK  Name = ZINC09428974
REMARK  9 active torsions:
REMARK  status: ('A' for Active; 'I' for Inactive)
REMARK    1  A    between atoms: C_1  and  C_2
REMARK    2  A    between atoms: C_7  and  S_15
REMARK    3  A    between atoms: C_12  and  C_14
REMARK    4  A    between atoms: S_15  and  N_18
REMARK    5  A    between atoms: N_18  and  C_19
REMARK    6  A    between atoms: C_19  and  C_21
REMARK    7  A    between atoms: C_19  and  C_28
REMARK    8  A    between atoms: C_21  and  C_22
REMARK    9  A    between atoms: N_30  and  C_31
REMARK                            x       y       z     vdW  Elec       q    Type
REMARK                         _______ _______ _______ _____ _____    ______ ____
ROOT
ATOM      1  C   UNL     1       4.182  -1.081  -1.650  0.00  0.00    +0.166 C 
ENDROOT
BRANCH   1   2
ATOM      2  C   UNL     1       5.371  -1.998  -1.780  0.00  0.00    +0.232 C 
ATOM      3  O   UNL     1       6.349  -1.639  -2.402  0.00  0.00    -0.274 OA
ATOM      4  N   UNL     1       5.348  -3.216  -1.204  0.00  0.00    -0.311 N 
ATOM      5  H   UNL     1       4.566  -3.503  -0.707  0.00  0.00    +0.149 HD
BRANCH   4   6
ATOM      6  C   UNL     1       6.504  -4.108  -1.330  0.00  0.00    +0.073 C 
ATOM      7  C   UNL     1       6.429  -4.833  -2.690  0.00  0.00    +0.022 C 
ATOM      8  C   UNL     1       7.806  -5.328  -3.043  0.00  0.00    +0.002 C 
ATOM      9  C   UNL     1       8.039  -6.785  -2.602  0.00  0.00    +0.000 C 
ATOM     10  C   UNL     1       7.471  -7.084  -1.202  0.00  0.00    +0.000 C 
ATOM     11  C   UNL     1       7.734  -5.971  -0.224  0.00  0.00    +0.002 C 
ATOM     12  C   UNL     1       6.509  -5.034  -0.207  0.00  0.00    +0.022 C 
ENDBRANCH   4   6
ENDBRANCH   1   2
BRANCH   1  13
ATOM     13  N   UNL     1       4.454   0.173  -2.357  0.00  0.00    -0.178 NA
ATOM     14  H   UNL     1       4.941   0.885  -1.914  0.00  0.00    +0.149 HD
BRANCH  13  15
ATOM     15  S   UNL     1       3.928   0.376  -3.915  0.00  0.00    +0.059 S 
ATOM     16  O   UNL     1       4.290   1.696  -4.297  0.00  0.00    -0.153 OA
ATOM     17  O   UNL     1       4.352  -0.771  -4.639  0.00  0.00    -0.153 OA
BRANCH  15  23
ATOM     18  C   UNL     1      -3.028  -1.791  -5.149  0.00  0.00    +0.029 C 
ATOM     19  C   UNL     1      -2.229  -1.454  -3.889  0.00  0.00    +0.083 C 
ATOM     20  C   UNL     1      -0.833  -2.096  -3.954  0.00  0.00    +0.059 C 
ATOM     21  C   UNL     1       0.126  -0.927  -3.908  0.00  0.00    -0.022 A 
ATOM     22  C   UNL     1       1.506  -0.886  -3.941  0.00  0.00    +0.034 A 
ATOM     23  C   UNL     1       2.167   0.326  -3.880  0.00  0.00    +0.106 A 
ATOM     24  C   UNL     1       1.442   1.501  -3.799  0.00  0.00    +0.030 A 
ATOM     25  C   UNL     1       0.064   1.466  -3.772  0.00  0.00    +0.026 A 
ATOM     26  C   UNL     1      -0.610   0.244  -3.827  0.00  0.00    +0.040 A 
ATOM     27  N   UNL     1      -1.985  -0.011  -3.812  0.00  0.00    -0.268 N 
ATOM     28  C   UNL     1      -2.945   0.932  -3.739  0.00  0.00    +0.217 C 
ATOM     29  O   UNL     1      -2.645   2.107  -3.777  0.00  0.00    -0.276 OA
ATOM     30  C   UNL     1      -4.391   0.527  -3.609  0.00  0.00    +0.109 C 
ENDBRANCH  15  23
ENDBRANCH  13  15
ENDBRANCH   1  13
BRANCH   1  31
ATOM     31  C   UNL     1       3.924  -0.786  -0.171  0.00  0.00    +0.065 C 
BRANCH  31  32
ATOM     32  C   UNL     1       2.668   0.034  -0.034  0.00  0.00    -0.045 A 
ATOM     33  C   UNL     1       1.435  -0.591   0.010  0.00  0.00    +0.004 A 
ATOM     34  C   UNL     1       0.283   0.162   0.135  0.00  0.00    +0.000 A 
ATOM     35  C   UNL     1       0.363   1.540   0.216  0.00  0.00    +0.000 A 
ATOM     36  C   UNL     1       1.595   2.165   0.173  0.00  0.00    +0.000 A 
ATOM     37  C   UNL     1       2.747   1.412   0.047  0.00  0.00    +0.004 A 
ENDBRANCH  31  32
ENDBRANCH   1  31
TORSDOF 7
