REMARK  Name = ZINC42669876
REMARK  5 active torsions:
REMARK  status: ('A' for Active; 'I' for Inactive)
REMARK    1  A    between atoms: C_1  and  C_2
REMARK    2  A    between atoms: N_10  and  C_14
REMARK    3  A    between atoms: C_14  and  C_15
REMARK    4  A    between atoms: N_17  and  C_18
REMARK    5  A    between atoms: C_18  and  C_25
REMARK                            x       y       z     vdW  Elec       q    Type
REMARK                         _______ _______ _______ _____ _____    ______ ____
ROOT
ATOM      1  C   UNL     1      -0.019   1.526   0.010  0.00  0.00    +0.007 C 
ATOM      2  C   UNL     1       0.002  -0.004   0.002  0.00  0.00    -0.014 C 
ATOM      3  C   UNL     1       0.716  -0.497  -1.258  0.00  0.00    +0.006 C 
ATOM      4  C   UNL     1       0.727  -2.028  -1.271  0.00  0.00    +0.035 C 
ATOM      5  C   UNL     1       1.442  -2.543  -0.027  0.00  0.00    +0.113 C 
ATOM      6  C   UNL     1       0.753  -2.041   1.238  0.00  0.00    +0.035 C 
ATOM      7  C   UNL     1       0.742  -0.510   1.242  0.00  0.00    +0.006 C 
ATOM      8  C   UNL     1       1.495  -4.053  -0.035  0.00  0.00    +0.247 C 
ATOM      9  O   UNL     1       0.556  -4.821  -0.030  0.00  0.00    -0.273 OA
ATOM     10  N   UNL     1       2.807  -4.367  -0.051  0.00  0.00    -0.215 N 
ATOM     11  C   UNL     1       3.576  -3.272  -0.053  0.00  0.00    +0.310 C 
ATOM     12  O   UNL     1       4.791  -3.300  -0.065  0.00  0.00    -0.252 OA
ATOM     13  N   UNL     1       2.853  -2.136  -0.039  0.00  0.00    -0.285 N 
ATOM     14  H   UNL     1       3.196  -1.229  -0.038  0.00  0.00    +0.151 HD
ENDROOT
BRANCH  10  15
ATOM     15  C   UNL     1       3.325  -5.738  -0.062  0.00  0.00    +0.213 C 
BRANCH  15  16
ATOM     16  C   UNL     1       3.488  -6.201  -1.487  0.00  0.00    +0.232 C 
ATOM     17  O   UNL     1       3.200  -5.459  -2.403  0.00  0.00    -0.274 OA
ATOM     18  N   UNL     1       3.954  -7.439  -1.744  0.00  0.00    -0.296 N 
ATOM     19  H   UNL     1       4.185  -8.032  -1.012  0.00  0.00    +0.150 HD
BRANCH  18  20
ATOM     20  C   UNL     1       4.112  -7.889  -3.129  0.00  0.00    +0.121 C 
ATOM     21  C   UNL     1       2.753  -7.776  -3.850  0.00  0.00    +0.041 C 
ATOM     22  C   UNL     1       3.001  -7.736  -5.333  0.00  0.00    +0.003 C 
ATOM     23  C   UNL     1       2.907  -9.129  -5.985  0.00  0.00    +0.000 C 
ATOM     24  C   UNL     1       3.578 -10.229  -5.141  0.00  0.00    +0.000 C 
ATOM     25  C   UNL     1       4.888  -9.783  -4.551  0.00  0.00    +0.003 C 
ATOM     26  C   UNL     1       4.628  -9.250  -3.127  0.00  0.00    +0.041 C 
BRANCH  20  27
ATOM     27  C   UNL     1       5.083  -7.014  -3.807  0.00  0.00    +0.088 C 
ATOM     28  N   UNL     1       5.832  -6.338  -4.329  0.00  0.00    -0.194 NA
ENDBRANCH  20  27
ENDBRANCH  18  20
ENDBRANCH  15  16
ENDBRANCH  10  15
TORSDOF 4
