REMARK  Name = ZINC13064395
REMARK  9 active torsions:
REMARK  status: ('A' for Active; 'I' for Inactive)
REMARK    1  A    between atoms: C_1  and  C_2
REMARK    2  A    between atoms: C_2  and  C_3
REMARK    3  A    between atoms: C_3  and  C_5
REMARK    4  A    between atoms: C_3  and  N_66
REMARK    5  A    between atoms: N_9  and  C_10
REMARK    6  A    between atoms: C_15  and  C_16
REMARK    7  A    between atoms: C_15  and  N_66
REMARK    8  A    between atoms: C_21  and  C_22
REMARK    9  A    between atoms: C_21  and  N_66
REMARK                            x       y       z     vdW  Elec       q    Type
REMARK                         _______ _______ _______ _____ _____    ______ ____
ROOT
ATOM      1  N   UNL     1      -1.129   1.623  -1.004  0.00  0.00    +0.392 N 
ATOM      2  H   UNL     1      -1.822   1.208  -0.371  0.00  0.00    -0.080 HD
ENDROOT
BRANCH   1   3
ATOM      3  C   UNL     1      -1.362   3.080  -1.082  0.00  0.00    +0.003 C 
BRANCH   3   4
ATOM      4  C   UNL     1      -0.503   3.695  -2.157  0.00  0.00    +0.138 A 
ATOM      5  N   UNL     1      -0.349   3.256  -3.383  0.00  0.00    -0.115 NA
ATOM      6  N   UNL     1       0.459   4.053  -3.993  0.00  0.00    -0.023 NA
ATOM      7  N   UNL     1       0.830   4.985  -3.186  0.00  0.00    -0.044 NA
ATOM      8  N   UNL     1       0.259   4.799  -2.044  0.00  0.00    -0.228 N 
BRANCH   8   9
ATOM      9  C   UNL     1       0.410   5.633  -0.849  0.00  0.00    +0.111 C 
ATOM     10  C   UNL     1       0.000   7.086  -1.163  0.00  0.00    +0.027 C 
ATOM     11  C   UNL     1       1.002   7.946  -0.352  0.00  0.00    +0.002 C 
ATOM     12  C   UNL     1       2.324   7.152  -0.488  0.00  0.00    +0.002 C 
ATOM     13  C   UNL     1       1.887   5.675  -0.420  0.00  0.00    +0.027 C 
ENDBRANCH   8   9
ENDBRANCH   3   4
BRANCH   3  15
ATOM     14  C   UNL     1      -3.703   2.824  -0.247  0.00  0.00    +0.002 C 
ATOM     15  C   UNL     1      -2.837   3.327  -1.404  0.00  0.00    -0.011 C 
ENDBRANCH   3  15
ENDBRANCH   1   3
BRANCH   1  16
ATOM     16  C   UNL     1       0.225   1.355  -0.474  0.00  0.00    -0.034 C 
BRANCH  16  17
ATOM     17  C   UNL     1       0.239   1.667   1.000  0.00  0.00    -0.027 A 
ATOM     18  C   UNL     1      -0.011   0.846   2.049  0.00  0.00    +0.009 A 
ATOM     19  C   UNL     1       0.061   1.356   3.331  0.00  0.00    +0.008 A 
ATOM     20  C   UNL     1       0.380   2.662   3.503  0.00  0.00    +0.045 A 
ATOM     21  S   UNL     1       0.597   3.213   1.818  0.00  0.00    -0.103 S 
ENDBRANCH  16  17
ENDBRANCH   1  16
BRANCH   1  22
ATOM     22  C   UNL     1      -1.277   1.015  -2.343  0.00  0.00    -0.036 C 
BRANCH  22  23
ATOM     23  C   UNL     1      -1.526  -0.463  -2.177  0.00  0.00    +0.001 A 
ATOM     24  C   UNL     1      -2.798  -0.935  -2.147  0.00  0.00    +0.017 A 
ATOM     25  C   UNL     1      -3.006  -2.373  -1.990  0.00  0.00    +0.002 A 
ATOM     26  C   UNL     1      -4.296  -2.917  -1.956  0.00  0.00    +0.059 A 
ATOM     27  C   UNL     1      -4.462  -4.278  -1.803  0.00  0.00    +0.163 A 
ATOM     28  C   UNL     1      -3.348  -5.113  -1.681  0.00  0.00    +0.164 A 
ATOM     29  C   UNL     1      -2.069  -4.584  -1.713  0.00  0.00    +0.075 A 
ATOM     30  C   UNL     1      -1.885  -3.216  -1.866  0.00  0.00    +0.053 A 
ATOM     31  N   UNL     1      -0.617  -2.672  -1.899  0.00  0.00    -0.322 N 
ATOM     32  H   UNL     1       0.155  -3.252  -1.813  0.00  0.00    +0.169 HD
ATOM     33  C   UNL     1      -0.436  -1.348  -2.048  0.00  0.00    +0.251 A 
ATOM     34  O   UNL     1       0.698  -0.902  -2.073  0.00  0.00    -0.268 OA
ATOM     35  O   UNL     1      -3.502  -6.457  -1.533  0.00  0.00    -0.485 OA
ATOM     36  C   UNL     1      -4.797  -6.916  -1.130  0.00  0.00    +0.270 C 
ATOM     37  C   UNL     1      -5.850  -6.200  -1.987  0.00  0.00    +0.270 C 
ATOM     38  O   UNL     1      -5.723  -4.791  -1.769  0.00  0.00    -0.485 OA
ENDBRANCH  22  23
ENDBRANCH   1  22
TORSDOF 8
