REMARK  Name = ZINC40148499
REMARK  3 active torsions:
REMARK  status: ('A' for Active; 'I' for Inactive)
REMARK    1  A    between atoms: C_6  and  C_15
REMARK    2  A    between atoms: C_8  and  C_11
REMARK    3  A    between atoms: C_11  and  C_13
REMARK                            x       y       z     vdW  Elec       q    Type
REMARK                         _______ _______ _______ _____ _____    ______ ____
ROOT
ATOM      1  C   UNL     1      -0.351   1.015   0.077  0.00  0.00    +0.001 A 
ATOM      2  C   UNL     1       0.735   1.899  -0.034  0.00  0.00    +0.002 A 
ATOM      3  C   UNL     1       2.010   1.460  -0.106  0.00  0.00    +0.026 A 
ATOM      4  C   UNL     1       2.271   0.011  -0.069  0.00  0.00    +0.044 A 
ATOM      5  N   UNL     1       3.376  -0.675  -0.120  0.00  0.00    -0.373 N 
ATOM      6  C   UNL     1       3.064  -2.106  -0.042  0.00  0.00    +0.145 C 
ATOM      7  C   UNL     1       1.558  -2.200   0.067  0.00  0.00    +0.032 C 
ATOM      8  C   UNL     1       1.101  -0.895   0.049  0.00  0.00    +0.007 A 
ATOM      9  C   UNL     1      -0.193  -0.327   0.118  0.00  0.00    +0.010 A 
ATOM     10  H   UNL     1       4.267  -0.299  -0.197  0.00  0.00    +0.161 HD
ENDROOT
BRANCH   6  11
ATOM     11  C   UNL     1       3.540  -2.808  -1.288  0.00  0.00    -0.002 A 
ATOM     12  C   UNL     1       2.635  -3.162  -2.270  0.00  0.00    +0.009 A 
ATOM     13  C   UNL     1       3.071  -3.807  -3.413  0.00  0.00    +0.020 A 
ATOM     14  C   UNL     1       4.414  -4.098  -3.573  0.00  0.00    +0.042 A 
ATOM     15  C   UNL     1       5.320  -3.744  -2.590  0.00  0.00    +0.040 A 
ATOM     16  C   UNL     1       4.884  -3.094  -1.449  0.00  0.00    +0.048 A 
ATOM     17 CL   UNL     1       6.022  -2.644  -0.218  0.00  0.00    -0.083 Cl
ATOM     18 CL   UNL     1       4.961  -4.908  -5.008  0.00  0.00    -0.083 Cl
ENDBRANCH   6  11
BRANCH   7  19
ATOM     19  C   UNL     1       0.782  -3.374   0.167  0.00  0.00    +0.177 C 
ATOM     20  O   UNL     1       1.326  -4.455   0.266  0.00  0.00    -0.291 OA
BRANCH  19  21
ATOM     21  C   UNL     1      -0.723  -3.287   0.151  0.00  0.00    +0.187 C 
ATOM     22 CL   UNL     1      -1.423  -4.942   0.294  0.00  0.00    -0.117 Cl
ENDBRANCH  19  21
ENDBRANCH   7  19
TORSDOF 3
