REMARK  Name = ZINC18774271
REMARK  12 active torsions:
REMARK  status: ('A' for Active; 'I' for Inactive)
REMARK    1  A    between atoms: C_1  and  C_2
REMARK    2  A    between atoms: C_2  and  O_3
REMARK    3  A    between atoms: O_3  and  C_4
REMARK    4  A    between atoms: C_4  and  C_6
REMARK    5  A    between atoms: C_10  and  N_11
REMARK    6  A    between atoms: C_12  and  C_14
REMARK    7  A    between atoms: C_14  and  S_15
REMARK    8  A    between atoms: S_15  and  C_16
REMARK    9  A    between atoms: C_25  and  C_30
REMARK   10  A    between atoms: C_25  and  C_31
REMARK   11  A    between atoms: C_26  and  C_28
REMARK   12  A    between atoms: C_26  and  C_29
REMARK                            x       y       z     vdW  Elec       q    Type
REMARK                         _______ _______ _______ _____ _____    ______ ____
ROOT
ATOM      1  C   UNL     1      -0.647   1.516  -4.905  0.00  0.00    +0.091 A 
ATOM      2  C   UNL     1      -1.522   2.109  -5.893  0.00  0.00    -0.024 A 
ATOM      3  C   UNL     1      -2.558   2.828  -5.401  0.00  0.00    -0.016 A 
ATOM      4  S   UNL     1      -2.385   2.713  -3.644  0.00  0.00    -0.079 S 
ATOM      5  C   UNL     1      -0.959   1.732  -3.566  0.00  0.00    +0.086 A 
ATOM      6  C   UNL     1      -3.594   3.554  -6.194  0.00  0.00    -0.041 C 
ATOM      7  C   UNL     1      -2.786   2.040  -8.008  0.00  0.00    -0.069 C 
ATOM      8  C   UNL     1      -1.378   1.985  -7.404  0.00  0.00    +0.024 C 
ATOM      9  C   UNL     1      -3.562   0.786  -7.597  0.00  0.00    -0.010 C 
ATOM     10  C   UNL     1      -2.643   2.027  -9.541  0.00  0.00    -0.010 C 
ATOM     11  C   UNL     1      -4.988   3.194  -5.663  0.00  0.00    -0.005 C 
ATOM     12  C   UNL     1      -3.386   5.068  -5.994  0.00  0.00    -0.005 C 
ATOM     13  N   UNL     1      -3.522   3.283  -7.659  0.00  0.00    +0.389 N 
ATOM     14  H   UNL     1      -3.051   4.075  -8.112  0.00  0.00    -0.084 HD
ATOM     15  H   UNL     1      -4.480   3.203  -8.020  0.00  0.00    -0.084 HD
ENDROOT
BRANCH   5  16
ATOM     16  N   UNL     1      -0.288   1.272  -2.443  0.00  0.00    -0.279 N 
ATOM     17  C   UNL     1      -0.742   1.585  -1.213  0.00  0.00    +0.228 C 
ATOM     18  O   UNL     1      -1.736   2.268  -1.088  0.00  0.00    -0.275 OA
ATOM     19  H   UNL     1       0.507   0.726  -2.543  0.00  0.00    +0.155 HD
BRANCH  17  20
ATOM     20  C   UNL     1      -0.013   1.086   0.008  0.00  0.00    +0.173 C 
BRANCH  20  21
ATOM     21  S   UNL     1      -0.862   1.671   1.500  0.00  0.00    -0.076 S 
BRANCH  21  22
ATOM     22  C   UNL     1       0.099   1.013   2.823  0.00  0.00    +0.196 A 
ATOM     23  N   UNL     1       1.178   0.272   2.708  0.00  0.00    -0.122 NA
ATOM     24  N   UNL     1       1.632  -0.039   3.871  0.00  0.00    -0.129 NA
ATOM     25  C   UNL     1       0.863   0.490   4.805  0.00  0.00    +0.162 A 
ATOM     26  N   UNL     1      -0.137   1.183   4.155  0.00  0.00    -0.278 N 
ATOM     27  C   UNL     1      -1.101   1.838   4.870  0.00  0.00    +0.095 A 
ATOM     28  C   UNL     1      -1.080   1.825   6.218  0.00  0.00    +0.018 A 
ATOM     29  C   UNL     1      -0.069   1.132   6.908  0.00  0.00    +0.005 A 
ATOM     30  C   UNL     1       0.894   0.470   6.214  0.00  0.00    +0.049 A 
ENDBRANCH  21  22
ENDBRANCH  20  21
ENDBRANCH  17  20
ENDBRANCH   5  16
BRANCH   1  31
ATOM     31  C   UNL     1       0.523   0.722  -5.285  0.00  0.00    +0.342 C 
ATOM     32  O   UNL     1       0.419  -0.480  -5.440  0.00  0.00    -0.245 OA
BRANCH  31  33
ATOM     33  O   UNL     1       1.717   1.324  -5.463  0.00  0.00    -0.461 OA
BRANCH  33  35
ATOM     34  C   UNL     1       4.094   1.329  -5.994  0.00  0.00    +0.048 C 
ATOM     35  C   UNL     1       2.834   0.475  -5.839  0.00  0.00    +0.229 C 
ENDBRANCH  33  35
ENDBRANCH  31  33
ENDBRANCH   1  31
TORSDOF 7
