REMARK  Name = ZINC13014691
REMARK  7 active torsions:
REMARK  status: ('A' for Active; 'I' for Inactive)
REMARK    1  A    between atoms: C_1  and  C_2
REMARK    2  A    between atoms: C_2  and  C_29
REMARK    3  A    between atoms: N_5  and  N_9
REMARK    4  A    between atoms: C_10  and  C_12
REMARK    5  A    between atoms: C_13  and  C_21
REMARK    6  A    between atoms: C_21  and  O_22
REMARK    7  A    between atoms: O_22  and  C_23
REMARK                            x       y       z     vdW  Elec       q    Type
REMARK                         _______ _______ _______ _____ _____    ______ ____
ROOT
ATOM      1  N   UNL     1      -0.829  -3.435   3.476  0.00  0.00    -0.217 N 
ATOM      2  C   UNL     1      -0.969  -2.535   2.482  0.00  0.00    +0.296 C 
ATOM      3  O   UNL     1      -1.138  -1.360   2.744  0.00  0.00    -0.265 OA
ATOM      4  H   UNL     1      -0.694  -4.372   3.266  0.00  0.00    +0.174 HD
ENDROOT
BRANCH   1   9
ATOM      5  C   UNL     1      -0.031  -3.453   8.044  0.00  0.00    +0.047 C 
ATOM      6  C   UNL     1      -0.328  -2.427   6.949  0.00  0.00    +0.137 C 
ATOM      7  C   UNL     1       0.200  -2.911   5.613  0.00  0.00    +0.267 C 
ATOM      8  O   UNL     1       1.352  -3.153   5.324  0.00  0.00    -0.271 OA
ATOM      9  N   UNL     1      -0.879  -3.016   4.811  0.00  0.00    -0.137 N 
ATOM     10  C   UNL     1      -2.004  -2.675   5.451  0.00  0.00    +0.327 C 
ATOM     11  O   UNL     1      -3.105  -2.694   4.937  0.00  0.00    -0.251 OA
ATOM     12  N   UNL     1      -1.779  -2.311   6.726  0.00  0.00    -0.280 N 
ATOM     13  H   UNL     1      -2.444  -2.026   7.373  0.00  0.00    +0.152 HD
BRANCH   6  14
ATOM     14  C   UNL     1       0.263  -1.087   7.306  0.00  0.00    -0.015 A 
ATOM     15  C   UNL     1       1.562  -0.786   6.943  0.00  0.00    +0.006 A 
ATOM     16  C   UNL     1       2.102   0.445   7.266  0.00  0.00    +0.000 A 
ATOM     17  C   UNL     1       1.346   1.370   7.962  0.00  0.00    +0.000 A 
ATOM     18  C   UNL     1       0.049   1.067   8.330  0.00  0.00    +0.000 A 
ATOM     19  C   UNL     1      -0.493  -0.162   8.002  0.00  0.00    +0.006 A 
ENDBRANCH   6  14
ENDBRANCH   1   9
BRANCH   2  20
ATOM     20  C   UNL     1      -0.917  -2.975   1.080  0.00  0.00    +0.198 A 
ATOM     21  C   UNL     1      -1.044  -2.161   0.000  0.00  0.00    +0.048 A 
ATOM     22  C   UNL     1      -0.934  -3.026  -1.174  0.00  0.00    +0.027 A 
ATOM     23  C   UNL     1      -0.972  -2.805  -2.553  0.00  0.00    +0.012 A 
ATOM     24  C   UNL     1      -0.825  -3.857  -3.412  0.00  0.00    +0.001 A 
ATOM     25  C   UNL     1      -0.633  -5.143  -2.923  0.00  0.00    +0.004 A 
ATOM     26  C   UNL     1      -0.587  -5.381  -1.566  0.00  0.00    +0.047 A 
ATOM     27  C   UNL     1      -0.734  -4.326  -0.673  0.00  0.00    +0.136 A 
ATOM     28  O   UNL     1      -0.734  -4.248   0.672  0.00  0.00    -0.450 OA
BRANCH  21  29
ATOM     29  C   UNL     1      -1.262  -0.670   0.011  0.00  0.00    +0.269 C 
BRANCH  29  30
ATOM     30  O   UNL     1       0.002  -0.004   0.002  0.00  0.00    -0.487 OA
BRANCH  30  31
ATOM     31  C   UNL     1      -0.016   1.355   0.009  0.00  0.00    +0.121 A 
ATOM     32  C   UNL     1      -1.226   2.033   0.019  0.00  0.00    +0.045 A 
ATOM     33  C   UNL     1      -1.242   3.414   0.031  0.00  0.00    +0.004 A 
ATOM     34  C   UNL     1      -0.054   4.121   0.024  0.00  0.00    +0.000 A 
ATOM     35  C   UNL     1       1.153   3.447   0.009  0.00  0.00    +0.004 A 
ATOM     36  C   UNL     1       1.175   2.066   0.002  0.00  0.00    +0.045 A 
ENDBRANCH  30  31
ENDBRANCH  29  30
ENDBRANCH  21  29
ENDBRANCH   2  20
TORSDOF 6
