REMARK  Name = ZINC10166073
REMARK  9 active torsions:
REMARK  status: ('A' for Active; 'I' for Inactive)
REMARK    1  A    between atoms: C_1  and  C_2
REMARK    2  A    between atoms: C_2  and  O_3
REMARK    3  A    between atoms: O_3  and  C_4
REMARK    4  A    between atoms: C_4  and  C_6
REMARK    5  A    between atoms: C_7  and  N_35
REMARK    6  A    between atoms: C_11  and  C_34
REMARK    7  A    between atoms: N_12  and  C_24
REMARK    8  A    between atoms: C_16  and  C_18
REMARK    9  A    between atoms: C_24  and  C_25
REMARK                            x       y       z     vdW  Elec       q    Type
REMARK                         _______ _______ _______ _____ _____    ______ ____
ROOT
ATOM      1  C   UNL     1      -1.440   3.495  -0.238  0.00  0.00    +0.105 C 
ATOM      2  C   UNL     1      -1.347   2.160  -0.469  0.00  0.00    +0.195 C 
ATOM      3  O   UNL     1      -2.433   1.373  -0.529  0.00  0.00    -0.441 OA
ATOM      4  C   UNL     1      -3.649   1.918  -0.747  0.00  0.00    +0.141 A 
ATOM      5  C   UNL     1      -4.711   1.108  -1.201  0.00  0.00    +0.068 A 
ATOM      6  C   UNL     1      -5.926   1.656  -1.419  0.00  0.00    +0.023 A 
ATOM      7  N   UNL     1      -6.143   2.980  -1.207  0.00  0.00    -0.308 N 
ATOM      8  C   UNL     1      -5.155   3.784  -0.773  0.00  0.00    +0.259 A 
ATOM      9  O   UNL     1      -5.372   4.972  -0.588  0.00  0.00    -0.267 OA
ATOM     10  C   UNL     1      -3.878   3.261  -0.534  0.00  0.00    +0.071 A 
ATOM     11  C   UNL     1      -2.775   4.161  -0.048  0.00  0.00    +0.100 C 
ATOM     12  C   UNL     1      -7.057   0.786  -1.904  0.00  0.00    +0.064 C 
ENDROOT
BRANCH  11  13
ATOM     13  C   UNL     1      -2.976   4.451   1.417  0.00  0.00    -0.035 A 
ATOM     14  C   UNL     1      -2.996   3.414   2.331  0.00  0.00    +0.004 A 
ATOM     15  C   UNL     1      -3.176   3.681   3.675  0.00  0.00    +0.000 A 
ATOM     16  C   UNL     1      -3.345   4.984   4.105  0.00  0.00    +0.000 A 
ATOM     17  C   UNL     1      -3.330   6.021   3.190  0.00  0.00    +0.000 A 
ATOM     18  C   UNL     1      -3.146   5.754   1.846  0.00  0.00    +0.004 A 
ENDBRANCH  11  13
BRANCH   2  19
ATOM     19  N   UNL     1      -0.110   1.600  -0.640  0.00  0.00    -0.329 N 
ATOM     20  H   UNL     1       0.549   2.040  -1.200  0.00  0.00    +0.145 HD
ATOM     21  H   UNL     1       0.110   0.765  -0.198  0.00  0.00    +0.145 HD
ENDBRANCH   2  19
BRANCH   1  22
ATOM     22  C   UNL     1      -0.270   4.267  -0.180  0.00  0.00    +0.341 C 
ATOM     23  O   UNL     1       0.820   3.726  -0.229  0.00  0.00    -0.245 OA
BRANCH  22  24
ATOM     24  O   UNL     1      -0.353   5.611  -0.070  0.00  0.00    -0.462 OA
BRANCH  24  26
ATOM     25  C   UNL     1       0.585   7.831   0.107  0.00  0.00    +0.048 C 
ATOM     26  C   UNL     1       0.878   6.334  -0.017  0.00  0.00    +0.229 C 
ENDBRANCH  24  26
ENDBRANCH  22  24
ENDBRANCH   1  22
BRANCH   7  27
ATOM     27  C   UNL     1      -7.473   3.542  -1.455  0.00  0.00    +0.160 C 
BRANCH  27  28
ATOM     28  C   UNL     1      -8.248   3.586  -0.163  0.00  0.00    -0.024 A 
ATOM     29  C   UNL     1      -9.115   2.558   0.157  0.00  0.00    +0.009 A 
ATOM     30  C   UNL     1      -9.824   2.591   1.343  0.00  0.00    +0.050 A 
ATOM     31  C   UNL     1      -9.676   3.662   2.209  0.00  0.00    +0.166 A 
ATOM     32  C   UNL     1      -8.807   4.700   1.885  0.00  0.00    +0.167 A 
ATOM     33  C   UNL     1      -8.095   4.657   0.697  0.00  0.00    +0.055 A 
ATOM     34  O   UNL     1      -8.838   5.625   2.889  0.00  0.00    -0.453 OA
ATOM     35  C   UNL     1     -10.036   5.342   3.634  0.00  0.00    +0.466 C 
ATOM     36  O   UNL     1     -10.252   3.936   3.416  0.00  0.00    -0.453 OA
ENDBRANCH  27  28
ENDBRANCH   7  27
TORSDOF 7
