REMARK  Name = ZINC00847312
REMARK  12 active torsions:
REMARK  status: ('A' for Active; 'I' for Inactive)
REMARK    1  A    between atoms: C_1  and  C_2
REMARK    2  A    between atoms: C_2  and  O_3
REMARK    3  A    between atoms: O_3  and  C_4
REMARK    4  A    between atoms: C_4  and  C_6
REMARK    5  A    between atoms: C_11  and  O_19
REMARK    6  A    between atoms: C_14  and  N_15
REMARK    7  A    between atoms: C_16  and  C_18
REMARK    8  A    between atoms: O_19  and  C_20
REMARK    9  A    between atoms: C_20  and  C_21
REMARK   10  A    between atoms: N_23  and  C_24
REMARK   11  A    between atoms: C_25  and  C_31
REMARK   12  A    between atoms: C_29  and  C_30
REMARK                            x       y       z     vdW  Elec       q    Type
REMARK                         _______ _______ _______ _____ _____    ______ ____
ROOT
ATOM      1  C   UNL     1      -0.186   4.043   1.258  0.00  0.00    +0.095 A 
ATOM      2  C   UNL     1      -1.183   3.557   0.298  0.00  0.00    +0.009 A 
ATOM      3  C   UNL     1      -1.048   2.521  -0.653  0.00  0.00    +0.011 A 
ATOM      4  C   UNL     1      -2.090   2.184  -1.478  0.00  0.00    +0.019 A 
ATOM      5  C   UNL     1      -3.309   2.842  -1.404  0.00  0.00    +0.061 A 
ATOM      6  C   UNL     1      -3.476   3.860  -0.477  0.00  0.00    +0.149 A 
ATOM      7  C   UNL     1      -2.429   4.204   0.358  0.00  0.00    +0.065 A 
ATOM      8  S   UNL     1      -2.238   5.412   1.643  0.00  0.00    -0.069 S 
ATOM      9  C   UNL     1      -0.550   5.076   2.107  0.00  0.00    +0.087 A 
ATOM     10 BR   UNL     1      -4.728   2.356  -2.555  0.00  0.00    -0.046 Br
ENDROOT
BRANCH   9  11
ATOM     11  N   UNL     1       0.211   5.696   3.079  0.00  0.00    -0.280 N 
ATOM     12  C   UNL     1      -0.317   6.693   3.815  0.00  0.00    +0.214 C 
ATOM     13  O   UNL     1      -1.462   7.046   3.624  0.00  0.00    -0.276 OA
ATOM     14  C   UNL     1       0.513   7.369   4.875  0.00  0.00    +0.109 C 
ATOM     15  H   UNL     1       1.127   5.413   3.231  0.00  0.00    +0.155 HD
ENDBRANCH   9  11
BRANCH   1  16
ATOM     16  C   UNL     1       1.112   3.478   1.312  0.00  0.00    +0.342 C 
ATOM     17  O   UNL     1       1.334   2.532   2.045  0.00  0.00    -0.245 OA
BRANCH  16  18
ATOM     18  O   UNL     1       2.101   3.984   0.545  0.00  0.00    -0.461 OA
BRANCH  18  20
ATOM     19  C   UNL     1       4.367   4.067  -0.290  0.00  0.00    +0.048 C 
ATOM     20  C   UNL     1       3.383   3.361   0.645  0.00  0.00    +0.229 C 
ENDBRANCH  18  20
ENDBRANCH  16  18
ENDBRANCH   1  16
BRANCH   6  21
ATOM     21  O   UNL     1      -4.664   4.516  -0.390  0.00  0.00    -0.481 OA
BRANCH  21  22
ATOM     22  C   UNL     1      -4.825   5.678  -1.207  0.00  0.00    +0.325 C 
BRANCH  22  23
ATOM     23  C   UNL     1      -6.193   6.267  -0.978  0.00  0.00    +0.255 C 
ATOM     24  O   UNL     1      -6.955   5.744  -0.192  0.00  0.00    -0.272 OA
ATOM     25  N   UNL     1      -6.569   7.375  -1.646  0.00  0.00    -0.282 N 
ATOM     26  H   UNL     1      -5.942   7.824  -2.234  0.00  0.00    +0.155 HD
BRANCH  25  27
ATOM     27  C   UNL     1      -7.866   7.879  -1.491  0.00  0.00    +0.039 A 
ATOM     28  C   UNL     1      -8.962   7.047  -1.674  0.00  0.00    -0.029 A 
ATOM     29  C   UNL     1     -10.240   7.546  -1.515  0.00  0.00    +0.005 A 
ATOM     30  C   UNL     1     -10.429   8.876  -1.185  0.00  0.00    +0.001 A 
ATOM     31  C   UNL     1      -9.339   9.708  -1.007  0.00  0.00    +0.005 A 
ATOM     32  C   UNL     1      -8.058   9.214  -1.159  0.00  0.00    -0.029 A 
ATOM     33  C   UNL     1      -6.871  10.122  -0.965  0.00  0.00    +0.045 C 
ATOM     34  C   UNL     1      -8.758   5.599  -2.039  0.00  0.00    +0.045 C 
ENDBRANCH  25  27
ENDBRANCH  22  23
ENDBRANCH  21  22
ENDBRANCH   6  21
TORSDOF 8
