REMARK  Name = ZINC56552570
REMARK  5 active torsions:
REMARK  status: ('A' for Active; 'I' for Inactive)
REMARK    1  A    between atoms: C_1  and  C_2
REMARK    2  A    between atoms: N_10  and  C_14
REMARK    3  A    between atoms: C_14  and  N_15
REMARK    4  A    between atoms: N_15  and  C_16
REMARK    5  A    between atoms: N_15  and  C_17
REMARK                            x       y       z     vdW  Elec       q    Type
REMARK                         _______ _______ _______ _____ _____    ______ ____
ROOT
ATOM      1  C   UNL     1      -0.019   1.526   0.010  0.00  0.00    +0.007 C 
ATOM      2  C   UNL     1       0.002  -0.004   0.002  0.00  0.00    -0.014 C 
ATOM      3  C   UNL     1       0.718  -0.497  -1.257  0.00  0.00    +0.006 C 
ATOM      4  C   UNL     1       0.727  -2.028  -1.271  0.00  0.00    +0.035 C 
ATOM      5  C   UNL     1       1.439  -2.546  -0.026  0.00  0.00    +0.113 C 
ATOM      6  C   UNL     1       0.751  -2.042   1.238  0.00  0.00    +0.035 C 
ATOM      7  C   UNL     1       0.742  -0.511   1.242  0.00  0.00    +0.006 C 
ATOM      8  C   UNL     1       2.892  -2.132  -0.038  0.00  0.00    +0.248 C 
ATOM      9  O   UNL     1       3.334  -1.003  -0.036  0.00  0.00    -0.273 OA
ATOM     10  N   UNL     1       3.595  -3.284  -0.051  0.00  0.00    -0.211 N 
ATOM     11  C   UNL     1       2.789  -4.353  -0.049  0.00  0.00    +0.310 C 
ATOM     12  O   UNL     1       3.189  -5.500  -0.059  0.00  0.00    -0.252 OA
ATOM     13  N   UNL     1       1.486  -4.014  -0.034  0.00  0.00    -0.285 N 
ATOM     14  H   UNL     1       0.728  -4.620  -0.030  0.00  0.00    +0.151 HD
ENDROOT
BRANCH  10  15
ATOM     15  C   UNL     1       5.058  -3.355  -0.066  0.00  0.00    +0.205 C 
BRANCH  15  16
ATOM     16  N   UNL     1       5.561  -3.386   1.314  0.00  0.00    -0.287 NA
ATOM     17  C   UNL     1       5.475  -4.741   1.875  0.00  0.00    +0.106 C 
BRANCH  16  18
ATOM     18  C   UNL     1       6.936  -2.873   1.384  0.00  0.00    +0.058 C 
ATOM     19  C   UNL     1       7.869  -3.808   0.611  0.00  0.00    +0.019 C 
ATOM     20  C   UNL     1       9.301  -3.274   0.685  0.00  0.00    +0.002 C 
ATOM     21  C   UNL     1       9.745  -3.205   2.147  0.00  0.00    +0.000 C 
ATOM     22  C   UNL     1       8.812  -2.270   2.920  0.00  0.00    +0.002 C 
ATOM     23  C   UNL     1       7.380  -2.804   2.846  0.00  0.00    +0.019 C 
ENDBRANCH  16  18
ENDBRANCH  15  16
ENDBRANCH  10  15
TORSDOF 3
