REMARK  Name = ZINC48570156
REMARK  4 active torsions:
REMARK  status: ('A' for Active; 'I' for Inactive)
REMARK    1  A    between atoms: C_4  and  N_23
REMARK    2  A    between atoms: C_6  and  N_7
REMARK    3  A    between atoms: C_8  and  C_10
REMARK    4  A    between atoms: N_12  and  C_13
REMARK                            x       y       z     vdW  Elec       q    Type
REMARK                         _______ _______ _______ _____ _____    ______ ____
ROOT
ATOM      1  N   UNL     1      -1.198  -0.721   0.010  0.00  0.00    -0.278 N 
ATOM      2  C   UNL     1      -2.372  -0.068   0.127  0.00  0.00    +0.303 C 
ATOM      3  O   UNL     1      -2.393   1.145   0.134  0.00  0.00    -0.265 OA
ATOM      4  H   UNL     1      -1.186  -1.687  -0.072  0.00  0.00    +0.155 HD
ENDROOT
BRANCH   1  10
ATOM      5  C   UNL     1       0.122   1.155   0.763  0.00  0.00    +0.025 A 
ATOM      6  C   UNL     1       1.310   1.860   0.759  0.00  0.00    +0.024 A 
ATOM      7  C   UNL     1       2.379   1.413   0.004  0.00  0.00    +0.071 A 
ATOM      8  C   UNL     1       2.263   0.258  -0.750  0.00  0.00    +0.146 A 
ATOM      9  C   UNL     1       1.078  -0.451  -0.750  0.00  0.00    +0.057 A 
ATOM     10  C   UNL     1       0.002  -0.004   0.008  0.00  0.00    +0.036 A 
ATOM     11 CL   UNL     1       3.870   2.303   0.000  0.00  0.00    -0.081 Cl
BRANCH   8  12
ATOM     12  N   UNL     1       3.409  -0.217  -1.558  0.00  0.00    +0.058 N 
ATOM     13  O   UNL     1       3.307  -1.226  -2.216  0.00  0.00    -0.126 OA
ATOM     14  O   UNL     1       4.446   0.404  -1.558  0.00  0.00    -0.126 OA
ENDBRANCH   8  12
ENDBRANCH   1  10
BRANCH   2  15
ATOM     15  C   UNL     1      -3.645  -0.839   0.248  0.00  0.00    +0.300 C 
ATOM     16  O   UNL     1      -3.623  -2.052   0.241  0.00  0.00    -0.265 OA
ATOM     17  N   UNL     1      -4.819  -0.186   0.365  0.00  0.00    -0.302 N 
ATOM     18  H   UNL     1      -4.836   0.783   0.370  0.00  0.00    +0.150 HD
BRANCH  17  19
ATOM     19  C   UNL     1      -6.068  -0.942   0.484  0.00  0.00    +0.036 C 
ATOM     20  C   UNL     1      -6.012  -1.828   1.730  0.00  0.00    +0.029 C 
ATOM     21  C   UNL     1      -7.317  -2.617   1.854  0.00  0.00    -0.008 C 
ATOM     22  C   UNL     1      -8.492  -1.645   1.972  0.00  0.00    +0.007 C 
ATOM     23  C   UNL     1      -8.548  -0.759   0.726  0.00  0.00    -0.008 C 
ATOM     24  C   UNL     1      -7.243   0.030   0.602  0.00  0.00    +0.029 C 
ATOM     25  C   UNL     1      -8.734  -1.635  -0.515  0.00  0.00    +0.007 C 
ATOM     26  C   UNL     1      -7.559  -2.607  -0.633  0.00  0.00    -0.008 C 
ATOM     27  C   UNL     1      -7.503  -3.493   0.613  0.00  0.00    +0.007 C 
ATOM     28  C   UNL     1      -6.254  -1.818  -0.757  0.00  0.00    +0.029 C 
ENDBRANCH  17  19
ENDBRANCH   2  15
TORSDOF 4
