REMARK  Name = ZINC03316887
REMARK  4 active torsions:
REMARK  status: ('A' for Active; 'I' for Inactive)
REMARK    1  A    between atoms: C_1  and  C_2
REMARK    2  A    between atoms: C_2  and  C_4
REMARK    3  A    between atoms: N_6  and  C_7
REMARK    4  A    between atoms: N_6  and  C_8
REMARK                            x       y       z     vdW  Elec       q    Type
REMARK                         _______ _______ _______ _____ _____    ______ ____
ROOT
ATOM      1  C   UNL     1      -0.992   2.131   0.239  0.00  0.00    +0.233 C 
ATOM      2  O   UNL     1      -1.030   3.334   0.087  0.00  0.00    -0.274 OA
ATOM      3  N   UNL     1       0.176   1.472   0.104  0.00  0.00    -0.300 N 
ATOM      4  C   UNL     1       0.202   0.008   0.169  0.00  0.00    +0.132 C 
ENDROOT
BRANCH   3   5
ATOM      5  C   UNL     1       1.418   2.218  -0.113  0.00  0.00    +0.076 C 
ATOM      6  C   UNL     1       2.037   1.800  -1.448  0.00  0.00    +0.022 C 
ATOM      7  C   UNL     1       3.334   2.579  -1.674  0.00  0.00    +0.002 C 
ATOM      8  C   UNL     1       4.315   2.277  -0.540  0.00  0.00    +0.000 C 
ATOM      9  C   UNL     1       3.696   2.695   0.795  0.00  0.00    +0.002 C 
ATOM     10  C   UNL     1       2.399   1.916   1.022  0.00  0.00    +0.022 C 
ENDBRANCH   3   5
BRANCH   1  12
ATOM     11  C   UNL     1      -3.396   1.866  -0.310  0.00  0.00    +0.034 C 
ATOM     12  C   UNL     1      -2.250   1.374   0.577  0.00  0.00    +0.163 C 
ATOM     13 CL   UNL     1      -2.670   1.650   2.309  0.00  0.00    -0.112 Cl
ENDBRANCH   1  12
TORSDOF 2
