REMARK  Name = ZINC36557347
REMARK  7 active torsions:
REMARK  status: ('A' for Active; 'I' for Inactive)
REMARK    1  A    between atoms: C_1  and  N_2
REMARK    2  A    between atoms: N_2  and  C_3
REMARK    3  A    between atoms: N_2  and  S_10
REMARK    4  A    between atoms: C_3  and  C_4
REMARK    5  A    between atoms: S_10  and  C_13
REMARK    6  A    between atoms: C_26  and  C_29
REMARK    7  A    between atoms: C_33  and  N_35
REMARK                            x       y       z     vdW  Elec       q    Type
REMARK                         _______ _______ _______ _____ _____    ______ ____
ROOT
ATOM      1  C   UNL     1       1.554  -1.550  -1.763  0.00  0.00    +0.106 A 
ATOM      2  C   UNL     1       2.091  -0.511  -2.502  0.00  0.00    +0.030 A 
ATOM      3  C   UNL     1       3.410  -0.554  -2.902  0.00  0.00    +0.025 A 
ATOM      4  C   UNL     1       4.211  -1.639  -2.565  0.00  0.00    +0.031 A 
ATOM      5  C   UNL     1       3.665  -2.680  -1.807  0.00  0.00    -0.018 A 
ATOM      6  C   UNL     1       2.345  -2.629  -1.414  0.00  0.00    +0.034 A 
ATOM      7  C   UNL     1       4.561  -3.797  -1.436  0.00  0.00    +0.049 C 
ATOM      8  C   UNL     1       4.045  -5.166  -1.179  0.00  0.00    -0.023 C 
ATOM      9  C   UNL     1       4.976  -6.044  -1.533  0.00  0.00    -0.030 C 
ATOM     10  C   UNL     1       6.196  -5.313  -2.096  0.00  0.00    +0.033 C 
ATOM     11  C   UNL     1       5.551  -4.027  -2.617  0.00  0.00    +0.029 C 
ATOM     12  C   UNL     1       6.436  -2.794  -2.650  0.00  0.00    +0.105 C 
ATOM     13  N   UNL     1       5.541  -1.670  -3.001  0.00  0.00    -0.336 N 
ATOM     14  H   UNL     1       5.881  -0.942  -3.543  0.00  0.00    +0.147 HD
ENDROOT
BRANCH  12  15
ATOM     15  C   UNL     1       7.059  -2.565  -1.297  0.00  0.00    -0.025 A 
ATOM     16  C   UNL     1       8.272  -3.151  -0.987  0.00  0.00    +0.007 A 
ATOM     17  C   UNL     1       8.844  -2.941   0.253  0.00  0.00    +0.022 A 
ATOM     18  C   UNL     1       8.203  -2.143   1.184  0.00  0.00    +0.071 A 
ATOM     19  C   UNL     1       6.989  -1.556   0.873  0.00  0.00    +0.145 A 
ATOM     20  C   UNL     1       6.421  -1.763  -0.370  0.00  0.00    +0.039 A 
ATOM     21 CL   UNL     1       8.921  -1.878   2.743  0.00  0.00    -0.081 Cl
BRANCH  19  22
ATOM     22  N   UNL     1       6.303  -0.702   1.868  0.00  0.00    +0.058 N 
ATOM     23  O   UNL     1       5.243  -0.190   1.596  0.00  0.00    -0.126 OA
ATOM     24  O   UNL     1       6.803  -0.517   2.953  0.00  0.00    -0.126 OA
ENDBRANCH  19  22
ENDBRANCH  12  15
BRANCH   1  25
ATOM     25  S   UNL     1      -0.134  -1.495  -1.261  0.00  0.00    +0.061 S 
ATOM     26  O   UNL     1      -0.536  -2.840  -1.042  0.00  0.00    -0.153 OA
ATOM     27  O   UNL     1      -0.803  -0.640  -2.178  0.00  0.00    -0.153 OA
BRANCH  25  29
ATOM     28  C   UNL     1      -0.340   0.714   0.285  0.00  0.00    +0.132 C 
ATOM     29  N   UNL     1      -0.182  -0.741   0.212  0.00  0.00    -0.175 NA
BRANCH  29  30
ATOM     30  C   UNL     1      -0.068  -1.528   1.442  0.00  0.00    +0.144 C 
BRANCH  30  31
ATOM     31  C   UNL     1      -1.446  -1.847   1.964  0.00  0.00    -0.032 A 
ATOM     32  C   UNL     1      -2.070  -0.983   2.843  0.00  0.00    +0.005 A 
ATOM     33  C   UNL     1      -3.333  -1.276   3.321  0.00  0.00    +0.000 A 
ATOM     34  C   UNL     1      -3.973  -2.434   2.920  0.00  0.00    +0.000 A 
ATOM     35  C   UNL     1      -3.349  -3.299   2.040  0.00  0.00    +0.000 A 
ATOM     36  C   UNL     1      -2.087  -3.003   1.558  0.00  0.00    +0.005 A 
ENDBRANCH  30  31
ENDBRANCH  29  30
ENDBRANCH  25  29
ENDBRANCH   1  25
TORSDOF 6
