REMARK  Name = ZINC13632645
REMARK  11 active torsions:
REMARK  status: ('A' for Active; 'I' for Inactive)
REMARK    1  A    between atoms: C_1  and  C_2
REMARK    2  A    between atoms: C_2  and  O_3
REMARK    3  A    between atoms: O_3  and  C_4
REMARK    4  A    between atoms: C_4  and  C_6
REMARK    5  A    between atoms: C_10  and  N_13
REMARK    6  A    between atoms: C_11  and  C_12
REMARK    7  A    between atoms: C_14  and  C_16
REMARK    8  A    between atoms: C_16  and  N_17
REMARK    9  A    between atoms: N_17  and  C_18
REMARK   10  A    between atoms: N_17  and  S_26
REMARK   11  A    between atoms: S_26  and  C_29
REMARK                            x       y       z     vdW  Elec       q    Type
REMARK                         _______ _______ _______ _____ _____    ______ ____
ROOT
ATOM      1  N   UNL     1       4.220   0.155  -2.244  0.00  0.00    -0.193 N 
ENDROOT
BRANCH   1   2
ATOM      2  C   UNL     1       4.740   1.153  -3.074  0.00  0.00    +0.071 A 
ATOM      3  C   UNL     1       3.889   1.909  -3.869  0.00  0.00    +0.026 A 
ATOM      4  C   UNL     1       4.406   2.894  -4.688  0.00  0.00    +0.003 A 
ATOM      5  C   UNL     1       5.768   3.128  -4.718  0.00  0.00    +0.021 A 
ATOM      6  C   UNL     1       6.620   2.377  -3.926  0.00  0.00    +0.061 A 
ATOM      7  C   UNL     1       6.108   1.393  -3.100  0.00  0.00    +0.082 A 
ATOM      8 CL   UNL     1       7.175   0.455  -2.102  0.00  0.00    -0.080 Cl
ATOM      9 CL   UNL     1       8.329   2.675  -3.966  0.00  0.00    -0.082 Cl
ENDBRANCH   1   2
BRANCH   1  10
ATOM     10  S   UNL     1       3.886   0.490  -0.657  0.00  0.00    +0.075 S 
ATOM     11  O   UNL     1       4.706   1.592  -0.293  0.00  0.00    -0.150 OA
ATOM     12  O   UNL     1       3.925  -0.750   0.036  0.00  0.00    -0.150 OA
BRANCH  10  13
ATOM     13  C   UNL     1       2.219   1.055  -0.583  0.00  0.00    +0.109 A 
ATOM     14  C   UNL     1       1.190   0.151  -0.396  0.00  0.00    +0.029 A 
ATOM     15  C   UNL     1      -0.118   0.595  -0.338  0.00  0.00    +0.002 A 
ATOM     16  C   UNL     1      -0.397   1.943  -0.467  0.00  0.00    +0.000 A 
ATOM     17  C   UNL     1       0.632   2.847  -0.653  0.00  0.00    +0.002 A 
ATOM     18  C   UNL     1       1.940   2.403  -0.712  0.00  0.00    +0.029 A 
ENDBRANCH  10  13
ENDBRANCH   1  10
BRANCH   1  19
ATOM     19  C   UNL     1       3.970  -1.185  -2.778  0.00  0.00    +0.227 C 
BRANCH  19  21
ATOM     20  N   UNL     1       2.166  -2.361  -3.995  0.00  0.00    -0.284 N 
ATOM     21  C   UNL     1       2.612  -1.221  -3.430  0.00  0.00    +0.236 C 
ATOM     22  O   UNL     1       1.921  -0.225  -3.447  0.00  0.00    -0.274 OA
ATOM     23  H   UNL     1       2.747  -3.136  -4.049  0.00  0.00    +0.155 HD
BRANCH  20  28
ATOM     24  C   UNL     1      -0.767  -3.457  -5.942  0.00  0.00    +0.064 A 
ATOM     25  C   UNL     1      -1.725  -2.539  -5.504  0.00  0.00    +0.015 A 
ATOM     26  C   UNL     1      -1.384  -1.577  -4.575  0.00  0.00    +0.003 A 
ATOM     27  C   UNL     1      -0.096  -1.518  -4.075  0.00  0.00    +0.023 A 
ATOM     28  C   UNL     1       0.864  -2.426  -4.504  0.00  0.00    +0.037 A 
ATOM     29  C   UNL     1       0.533  -3.393  -5.441  0.00  0.00    -0.015 A 
ATOM     30  C   UNL     1       1.574  -4.376  -5.912  0.00  0.00    +0.046 C 
BRANCH  24  31
ATOM     31  C   UNL     1      -1.129  -4.488  -6.936  0.00  0.00    +0.339 C 
ATOM     32  O   UNL     1      -0.335  -5.362  -7.222  0.00  0.00    -0.245 OA
BRANCH  31  33
ATOM     33  O   UNL     1      -2.340  -4.460  -7.525  0.00  0.00    -0.461 OA
BRANCH  33  35
ATOM     34  C   UNL     1      -4.038  -5.309  -9.051  0.00  0.00    +0.048 C 
ATOM     35  C   UNL     1      -2.627  -5.505  -8.492  0.00  0.00    +0.229 C 
ENDBRANCH  33  35
ENDBRANCH  31  33
ENDBRANCH  24  31
ENDBRANCH  20  28
ENDBRANCH  19  21
ENDBRANCH   1  19
TORSDOF 9
