REMARK  Name = ZINC39711221
REMARK  12 active torsions:
REMARK  status: ('A' for Active; 'I' for Inactive)
REMARK    1  A    between atoms: C_1  and  C_2
REMARK    2  A    between atoms: C_6  and  C_15
REMARK    3  A    between atoms: C_13  and  C_14
REMARK    4  A    between atoms: C_15  and  C_17
REMARK    5  A    between atoms: C_15  and  N_27
REMARK    6  A    between atoms: N_22  and  C_23
REMARK    7  A    between atoms: C_23  and  C_24
REMARK    8  A    between atoms: C_23  and  C_25
REMARK    9  A    between atoms: C_23  and  C_26
REMARK   10  A    between atoms: N_30  and  C_33
REMARK   11  A    between atoms: C_36  and  O_39
REMARK   12  A    between atoms: O_39  and  C_40
REMARK                            x       y       z     vdW  Elec       q    Type
REMARK                         _______ _______ _______ _____ _____    ______ ____
ROOT
ATOM      1  C   UNL     1      -1.152  -4.851  -2.848  0.00  0.00    -0.009 C 
ENDROOT
BRANCH   1   7
ATOM      2  C   UNL     1      -0.165   2.002  -1.093  0.00  0.00    +0.044 C 
ATOM      3  C   UNL     1      -0.035   0.519  -0.856  0.00  0.00    -0.047 A 
ATOM      4  C   UNL     1      -0.104  -0.331  -1.912  0.00  0.00    +0.013 A 
ATOM      5  C   UNL     1       0.024  -1.769  -1.670  0.00  0.00    -0.007 A 
ATOM      6  C   UNL     1      -0.038  -2.660  -2.700  0.00  0.00    -0.006 C 
ATOM      7  C   UNL     1       0.105  -4.130  -2.357  0.00  0.00    +0.088 C 
ATOM      8  C   UNL     1       0.305  -4.488  -0.901  0.00  0.00    +0.223 C 
ATOM      9  O   UNL     1       0.426  -5.652  -0.569  0.00  0.00    -0.275 OA
ATOM     10  N   UNL     1       0.348  -3.530   0.010  0.00  0.00    -0.285 N 
ATOM     11  C   UNL     1       0.223  -2.237  -0.287  0.00  0.00    +0.041 A 
ATOM     12  C   UNL     1       0.280  -1.272   0.735  0.00  0.00    +0.027 A 
ATOM     13  C   UNL     1       0.160   0.050   0.444  0.00  0.00    -0.046 A 
ATOM     14  C   UNL     1       0.233   1.048   1.570  0.00  0.00    +0.044 C 
ATOM     15  H   UNL     1       0.478  -3.780   0.938  0.00  0.00    +0.155 HD
ENDBRANCH   1   7
BRANCH   1  16
ATOM     16  N   UNL     1      -0.990  -6.299  -2.661  0.00  0.00    +0.387 N 
ATOM     17  C   UNL     1       0.283  -6.728  -3.254  0.00  0.00    -0.059 C 
ATOM     18  C   UNL     1       0.507  -8.215  -2.960  0.00  0.00    +0.086 C 
ATOM     19  N   UNL     1      -0.667  -8.966  -3.433  0.00  0.00    -0.333 N 
ATOM     20  C   UNL     1      -2.000  -8.502  -3.017  0.00  0.00    +0.086 C 
ATOM     21  C   UNL     1      -2.105  -7.002  -3.308  0.00  0.00    -0.059 C 
ATOM     22  H   UNL     1      -0.987  -6.511  -1.675  0.00  0.00    -0.081 HD
BRANCH  19  23
ATOM     23  C   UNL     1      -0.520 -10.088  -4.255  0.00  0.00    +0.030 A 
ATOM     24  C   UNL     1       0.748 -10.578  -4.542  0.00  0.00    +0.027 A 
ATOM     25  C   UNL     1       0.892 -11.686  -5.354  0.00  0.00    +0.047 A 
ATOM     26  C   UNL     1      -0.228 -12.310  -5.882  0.00  0.00    +0.120 A 
ATOM     27  C   UNL     1      -1.495 -11.821  -5.597  0.00  0.00    +0.047 A 
ATOM     28  C   UNL     1      -1.641 -10.716  -4.781  0.00  0.00    +0.027 A 
BRANCH  26  29
ATOM     29  O   UNL     1      -0.085 -13.401  -6.681  0.00  0.00    -0.495 OA
ATOM     30  C   UNL     1      -1.282 -13.993  -7.191  0.00  0.00    +0.277 C 
ENDBRANCH  26  29
ENDBRANCH  19  23
ENDBRANCH   1  16
BRANCH   1  31
ATOM     31  C   UNL     1      -2.363  -4.366  -2.049  0.00  0.00    +0.205 C 
ATOM     32  N   UNL     1      -2.321  -4.897  -0.680  0.00  0.00    -0.152 NA
ATOM     33  N   UNL     1      -3.318  -5.598  -0.493  0.00  0.00    -0.070 NA
ATOM     34  N   UNL     1      -4.151  -5.664  -1.610  0.00  0.00    -0.179 N 
ATOM     35  N   UNL     1      -3.611  -4.912  -2.623  0.00  0.00    -0.183 NA
ATOM     36  H   UNL     1      -4.982  -6.163  -1.662  0.00  0.00    +0.191 HD
BRANCH  35  37
ATOM     37  C   UNL     1      -4.523  -3.831  -3.023  0.00  0.00    +0.035 C 
ATOM     38  C   UNL     1      -3.829  -2.930  -4.046  0.00  0.00    +0.029 C 
ATOM     39  C   UNL     1      -5.784  -4.433  -3.646  0.00  0.00    +0.029 C 
ATOM     40  C   UNL     1      -4.906  -3.006  -1.793  0.00  0.00    +0.029 C 
ENDBRANCH  35  37
ENDBRANCH   1  31
TORSDOF 6
