REMARK  Name = ZINC14180966
REMARK  10 active torsions:
REMARK  status: ('A' for Active; 'I' for Inactive)
REMARK    1  A    between atoms: C_1  and  C_2
REMARK    2  A    between atoms: C_2  and  C_3
REMARK    3  A    between atoms: C_2  and  N_4
REMARK    4  A    between atoms: C_5  and  C_7
REMARK    5  A    between atoms: C_7  and  S_8
REMARK    6  A    between atoms: S_8  and  C_9
REMARK    7  A    between atoms: C_14  and  C_15
REMARK    8  A    between atoms: N_17  and  C_18
REMARK    9  A    between atoms: C_18  and  C_19
REMARK   10  A    between atoms: C_19  and  N_67
REMARK                            x       y       z     vdW  Elec       q    Type
REMARK                         _______ _______ _______ _____ _____    ______ ____
ROOT
ATOM      1  C   UNL     1       3.770  -3.704   0.417  0.00  0.00    +0.245 C 
ATOM      2  O   UNL     1       3.420  -4.587   1.177  0.00  0.00    -0.270 OA
ATOM      3  N   UNL     1       3.624  -2.413   0.772  0.00  0.00    -0.313 N 
ATOM      4  H   UNL     1       3.904  -1.708   0.166  0.00  0.00    +0.149 HD
ENDROOT
BRANCH   1  10
ATOM      5  C   UNL     1       4.508  -5.392  -1.267  0.00  0.00    +0.020 A 
ATOM      6  C   UNL     1       5.060  -5.702  -2.504  0.00  0.00    +0.015 A 
ATOM      7  C   UNL     1       5.454  -4.692  -3.357  0.00  0.00    +0.001 A 
ATOM      8  C   UNL     1       5.303  -3.364  -2.990  0.00  0.00    +0.001 A 
ATOM      9  C   UNL     1       4.753  -3.037  -1.771  0.00  0.00    +0.014 A 
ATOM     10  C   UNL     1       4.354  -4.047  -0.892  0.00  0.00    +0.050 A 
BRANCH   5  11
ATOM     11  S   UNL     1       4.003  -6.679  -0.174  0.00  0.00    -0.115 S 
BRANCH  11  12
ATOM     12  C   UNL     1       4.394  -8.202  -1.080  0.00  0.00    +0.170 C 
BRANCH  12  14
ATOM     13  N   UNL     1       4.206 -10.642  -0.720  0.00  0.00    -0.312 N 
ATOM     14  C   UNL     1       4.007  -9.396  -0.246  0.00  0.00    +0.223 C 
ATOM     15  O   UNL     1       3.516  -9.236   0.851  0.00  0.00    -0.275 OA
ATOM     16  H   UNL     1       4.599 -10.770  -1.597  0.00  0.00    +0.149 HD
BRANCH  13  18
ATOM     17  C   UNL     1       2.348 -12.116  -0.125  0.00  0.00    +0.027 C 
ATOM     18  C   UNL     1       3.830 -11.803   0.091  0.00  0.00    +0.067 C 
ATOM     19  C   UNL     1       4.672 -13.010  -0.326  0.00  0.00    +0.027 C 
ENDBRANCH  13  18
ENDBRANCH  12  14
ENDBRANCH  11  12
ENDBRANCH   5  11
ENDBRANCH   1  10
BRANCH   3  20
ATOM     20  C   UNL     1       3.044  -2.071   2.074  0.00  0.00    +0.092 C 
BRANCH  20  21
ATOM     21  C   UNL     1       2.991  -0.550   2.226  0.00  0.00    -0.050 C 
ATOM     22  C   UNL     1       2.385  -0.194   3.585  0.00  0.00    -0.010 C 
ATOM     23  C   UNL     1       3.248  -0.789   4.699  0.00  0.00    -0.001 C 
ATOM     24  C   UNL     1       4.665  -0.218   4.608  0.00  0.00    -0.000 C 
ATOM     25  C   UNL     1       5.271  -0.574   3.249  0.00  0.00    -0.001 C 
ATOM     26  C   UNL     1       4.408   0.021   2.134  0.00  0.00    -0.010 C 
BRANCH  21  32
ATOM     27  C   UNL     1       0.793  -0.505   1.212  0.00  0.00    -0.078 C 
ATOM     28  C   UNL     1       0.002  -0.004   0.002  0.00  0.00    -0.019 C 
ATOM     29  C   UNL     1      -0.019   1.527   0.010  0.00  0.00    -0.004 C 
ATOM     30  C   UNL     1       1.421   2.049  -0.001  0.00  0.00    -0.019 C 
ATOM     31  C   UNL     1       2.171   1.488   1.210  0.00  0.00    -0.078 C 
ATOM     32  N   UNL     1       2.176   0.012   1.129  0.00  0.00    +0.384 N 
ATOM     33  H   UNL     1       2.584  -0.271   0.231  0.00  0.00    -0.081 HD
ENDBRANCH  21  32
ENDBRANCH  20  21
ENDBRANCH   3  20
TORSDOF 8
