REMARK  Name = ZINC01769949
REMARK  8 active torsions:
REMARK  status: ('A' for Active; 'I' for Inactive)
REMARK    1  A    between atoms: C_1  and  C_2
REMARK    2  A    between atoms: C_5  and  S_8
REMARK    3  A    between atoms: S_8  and  N_11
REMARK    4  A    between atoms: N_11  and  N_12
REMARK    5  A    between atoms: C_13  and  C_15
REMARK    6  A    between atoms: C_15  and  C_16
REMARK    7  A    between atoms: C_16  and  N_17
REMARK    8  A    between atoms: C_21  and  C_22
REMARK                            x       y       z     vdW  Elec       q    Type
REMARK                         _______ _______ _______ _____ _____    ______ ____
ROOT
ATOM      1  C   UNL     1       2.920   0.204   0.215  0.00  0.00    +0.124 C 
ENDROOT
BRANCH   1   2
ATOM      2  N   UNL     1       4.105   1.063   0.152  0.00  0.00    -0.255 N 
ATOM      3  C   UNL     1       4.508   1.691   1.244  0.00  0.00    +0.258 C 
ATOM      4  O   UNL     1       3.918   1.574   2.303  0.00  0.00    -0.269 OA
ATOM      5  C   UNL     1       5.708   2.541   1.114  0.00  0.00    +0.077 C 
ATOM      6  C   UNL     1       6.341   3.293   2.050  0.00  0.00    +0.028 C 
ATOM      7  S   UNL     1       6.098   2.308  -0.615  0.00  0.00    -0.061 S 
ATOM      8  C   UNL     1       4.764   1.192  -1.018  0.00  0.00    +0.121 C 
ATOM      9  S   UNL     1       4.407   0.463  -2.525  0.00  0.00    -0.027 S 
BRANCH   6  10
ATOM     10  C   UNL     1       7.625   3.932   1.734  0.00  0.00    -0.020 A 
ATOM     11  C   UNL     1       8.288   3.622   0.540  0.00  0.00    +0.012 A 
ATOM     12  C   UNL     1       9.489   4.227   0.244  0.00  0.00    +0.050 A 
ATOM     13  C   UNL     1      10.053   5.136   1.130  0.00  0.00    +0.166 A 
ATOM     14  C   UNL     1       9.400   5.445   2.325  0.00  0.00    +0.167 A 
ATOM     15  C   UNL     1       8.193   4.848   2.627  0.00  0.00    +0.057 A 
ATOM     16  O   UNL     1      10.155   6.354   3.010  0.00  0.00    -0.453 OA
ATOM     17  C   UNL     1      11.466   6.289   2.418  0.00  0.00    +0.466 C 
ATOM     18  O   UNL     1      11.213   5.852   1.070  0.00  0.00    -0.453 OA
ENDBRANCH   6  10
ENDBRANCH   1   2
BRANCH   1  19
ATOM     19  C   UNL     1       1.673   1.032  -0.102  0.00  0.00    +0.116 C 
BRANCH  19  21
ATOM     20  N   UNL     1      -0.766   0.663  -0.288  0.00  0.00    -0.232 N 
ATOM     21  C   UNL     1       0.454   0.148  -0.037  0.00  0.00    +0.229 C 
ATOM     22  O   UNL     1       0.571  -1.028   0.237  0.00  0.00    -0.274 OA
ATOM     23  H   UNL     1      -0.860   1.604  -0.507  0.00  0.00    +0.171 HD
BRANCH  20  24
ATOM     24  N   UNL     1      -1.899  -0.160  -0.233  0.00  0.00    -0.108 NA
ATOM     25  H   UNL     1      -1.937  -0.968  -0.767  0.00  0.00    +0.172 HD
BRANCH  24  26
ATOM     26  S   UNL     1      -3.172   0.249   0.745  0.00  0.00    +0.074 S 
ATOM     27  O   UNL     1      -4.207  -0.687   0.475  0.00  0.00    -0.152 OA
ATOM     28  O   UNL     1      -2.638   0.440   2.048  0.00  0.00    -0.152 OA
BRANCH  26  33
ATOM     29  C   UNL     1      -5.186   5.628  -1.102  0.00  0.00    +0.044 C 
ATOM     30  C   UNL     1      -4.683   4.285  -0.641  0.00  0.00    -0.050 A 
ATOM     31  C   UNL     1      -5.205   3.127  -1.186  0.00  0.00    +0.005 A 
ATOM     32  C   UNL     1      -4.744   1.894  -0.762  0.00  0.00    +0.029 A 
ATOM     33  C   UNL     1      -3.760   1.820   0.205  0.00  0.00    +0.107 A 
ATOM     34  C   UNL     1      -3.240   2.978   0.753  0.00  0.00    +0.029 A 
ATOM     35  C   UNL     1      -3.699   4.210   0.327  0.00  0.00    +0.005 A 
ENDBRANCH  26  33
ENDBRANCH  24  26
ENDBRANCH  20  24
ENDBRANCH  19  21
ENDBRANCH   1  19
TORSDOF 7
