REMARK  Name = ZINC62427143
REMARK  5 active torsions:
REMARK  status: ('A' for Active; 'I' for Inactive)
REMARK    1  A    between atoms: C_1  and  O_2
REMARK    2  A    between atoms: O_2  and  C_3
REMARK    3  A    between atoms: C_3  and  C_4
REMARK    4  A    between atoms: C_10  and  C_16
REMARK    5  A    between atoms: C_11  and  C_14
REMARK                            x       y       z     vdW  Elec       q    Type
REMARK                         _______ _______ _______ _____ _____    ______ ____
ROOT
ATOM      1  C   UNL     1       0.614  -2.074  -1.042  0.00  0.00    +0.129 A 
ATOM      2  N   UNL     1      -0.293  -2.907  -1.497  0.00  0.00    -0.142 NA
ATOM      3  N   UNL     1      -0.136  -4.149  -1.310  0.00  0.00    -0.121 NA
ATOM      4  C   UNL     1       0.935  -4.565  -0.664  0.00  0.00    +0.218 A 
ATOM      5  S   UNL     1       1.726  -3.117  -0.332  0.00  0.00    -0.029 S 
ATOM      6  N   UNL     1       1.316  -5.868  -0.343  0.00  0.00    -0.190 N 
ATOM      7  C   UNL     1       0.645  -7.003  -0.645  0.00  0.00    +0.088 A 
ATOM      8  C   UNL     1       1.378  -8.040  -0.141  0.00  0.00    +0.185 A 
ATOM      9  N   UNL     1       2.473  -7.538   0.455  0.00  0.00    -0.118 NA
ATOM     10  N   UNL     1       2.473  -6.255   0.350  0.00  0.00    -0.057 NA
ENDROOT
BRANCH   7  11
ATOM     11  C   UNL     1      -0.659  -7.104  -1.394  0.00  0.00    +0.041 C 
ATOM     12  C   UNL     1      -0.457  -7.939  -2.660  0.00  0.00    +0.010 C 
ATOM     13  C   UNL     1      -1.781  -8.042  -3.420  0.00  0.00    +0.001 C 
ATOM     14  C   UNL     1      -2.829  -8.712  -2.529  0.00  0.00    +0.000 C 
ATOM     15  C   UNL     1      -3.031  -7.877  -1.263  0.00  0.00    +0.001 C 
ATOM     16  C   UNL     1      -1.707  -7.774  -0.503  0.00  0.00    +0.010 C 
ENDBRANCH   7  11
BRANCH   8  17
ATOM     17  C   UNL     1       1.037  -9.428  -0.232  0.00  0.00    +0.123 C 
ATOM     18  N   UNL     1       0.767 -10.529  -0.305  0.00  0.00    -0.189 NA
ENDBRANCH   8  17
BRANCH   1  19
ATOM     19  C   UNL     1       0.652  -0.570  -1.138  0.00  0.00    +0.224 C 
BRANCH  19  21
ATOM     20  C   UNL     1      -0.017   1.425   0.010  0.00  0.00    +0.194 C 
ATOM     21  O   UNL     1       0.002  -0.004   0.002  0.00  0.00    -0.376 OA
ENDBRANCH  19  21
ENDBRANCH   1  19
TORSDOF 4
