REMARK  Name = ZINC07250008
REMARK  8 active torsions:
REMARK  status: ('A' for Active; 'I' for Inactive)
REMARK    1  A    between atoms: C_1  and  C_2
REMARK    2  A    between atoms: C_2  and  C_3
REMARK    3  A    between atoms: C_2  and  C_4
REMARK    4  A    between atoms: C_4  and  N_5
REMARK    5  A    between atoms: C_9  and  S_11
REMARK    6  A    between atoms: S_11  and  C_12
REMARK    7  A    between atoms: C_12  and  C_13
REMARK    8  A    between atoms: N_18  and  C_19
REMARK                            x       y       z     vdW  Elec       q    Type
REMARK                         _______ _______ _______ _____ _____    ______ ____
ROOT
ATOM      1  C   UNL     1      -0.202   5.990   0.037  0.00  0.00    +0.231 C 
ATOM      2  O   UNL     1       0.881   6.536   0.029  0.00  0.00    -0.274 OA
ATOM      3  N   UNL     1      -1.329   6.729   0.052  0.00  0.00    -0.239 N 
ATOM      4  C   UNL     1      -1.253   8.074   0.059  0.00  0.00    +0.306 C 
ATOM      5  O   UNL     1      -0.167   8.621   0.051  0.00  0.00    -0.252 OA
ATOM      6  N   UNL     1      -2.380   8.813   0.074  0.00  0.00    -0.294 N 
ATOM      7  H   UNL     1      -2.195   6.292   0.059  0.00  0.00    +0.159 HD
ATOM      8  H   UNL     1      -3.246   8.377   0.080  0.00  0.00    +0.151 HD
ENDROOT
BRANCH   6   9
ATOM      9  C   UNL     1      -2.297  10.276   0.081  0.00  0.00    +0.037 C 
ATOM     10  C   UNL     1      -1.535  10.737   1.325  0.00  0.00    +0.029 C 
ATOM     11  C   UNL     1      -1.449  12.265   1.333  0.00  0.00    -0.008 C 
ATOM     12  C   UNL     1      -2.860  12.856   1.350  0.00  0.00    +0.007 C 
ATOM     13  C   UNL     1      -3.621  12.394   0.106  0.00  0.00    -0.008 C 
ATOM     14  C   UNL     1      -3.708  10.867   0.098  0.00  0.00    +0.029 C 
ATOM     15  C   UNL     1      -2.885  12.869  -1.148  0.00  0.00    +0.007 C 
ATOM     16  C   UNL     1      -1.474  12.278  -1.165  0.00  0.00    -0.008 C 
ATOM     17  C   UNL     1      -0.712  12.740   0.079  0.00  0.00    +0.007 C 
ATOM     18  C   UNL     1      -1.560  10.751  -1.173  0.00  0.00    +0.029 C 
ENDBRANCH   6   9
BRANCH   1  19
ATOM     19  C   UNL     1      -0.287   4.485   0.030  0.00  0.00    +0.172 C 
BRANCH  19  20
ATOM     20  S   UNL     1       1.386   3.785   0.009  0.00  0.00    -0.088 S 
BRANCH  20  25
ATOM     21  N   UNL     1       1.402  -2.013  -0.022  0.00  0.00    -0.322 N 
ATOM     22  C   UNL     1       1.154  -0.645  -0.012  0.00  0.00    +0.182 A 
ATOM     23  N   UNL     1       0.002  -0.004   0.002  0.00  0.00    -0.125 NA
ATOM     24  N   UNL     1      -0.017   1.371   0.010  0.00  0.00    -0.133 NA
ATOM     25  C   UNL     1       1.119   2.043   0.002  0.00  0.00    +0.160 A 
ATOM     26  S   UNL     1       2.313   0.715  -0.016  0.00  0.00    -0.025 S 
ATOM     27  H   UNL     1       2.314  -2.340  -0.032  0.00  0.00    +0.148 HD
BRANCH  21  28
ATOM     28  C   UNL     1       0.283  -2.959  -0.016  0.00  0.00    +0.106 C 
BRANCH  28  30
ATOM     29  C   UNL     1       1.589  -4.657   1.270  0.00  0.00    +0.009 C 
ATOM     30  C   UNL     1       0.826  -4.390  -0.029  0.00  0.00    -0.000 C 
ATOM     31  C   UNL     1      -0.338  -5.375  -0.149  0.00  0.00    +0.009 C 
ENDBRANCH  28  30
ENDBRANCH  21  28
ENDBRANCH  20  25
ENDBRANCH  19  20
ENDBRANCH   1  19
TORSDOF 6
