REMARK  Name = ZINC26786852
REMARK  10 active torsions:
REMARK  status: ('A' for Active; 'I' for Inactive)
REMARK    1  A    between atoms: C_1  and  C_2
REMARK    2  A    between atoms: C_4  and  N_22
REMARK    3  A    between atoms: C_5  and  C_19
REMARK    4  A    between atoms: C_6  and  S_9
REMARK    5  A    between atoms: C_7  and  O_8
REMARK    6  A    between atoms: S_9  and  C_12
REMARK    7  A    between atoms: C_19  and  C_20
REMARK    8  A    between atoms: C_19  and  C_21
REMARK    9  A    between atoms: N_22  and  S_23
REMARK   10  A    between atoms: S_23  and  C_26
REMARK                            x       y       z     vdW  Elec       q    Type
REMARK                         _______ _______ _______ _____ _____    ______ ____
ROOT
ATOM      1  C   UNL     1      -3.609   3.540  -2.273  0.00  0.00    +0.047 C 
ATOM      2  C   UNL     1      -3.257   2.615  -1.137  0.00  0.00    -0.005 A 
ATOM      3  C   UNL     1      -1.944   2.236  -0.937  0.00  0.00    +0.031 A 
ATOM      4  C   UNL     1      -1.620   1.380   0.107  0.00  0.00    +0.054 A 
ATOM      5  C   UNL     1      -2.615   0.915   0.957  0.00  0.00    +0.006 A 
ATOM      6  C   UNL     1      -3.927   1.300   0.759  0.00  0.00    +0.140 A 
ATOM      7  C   UNL     1      -4.250   2.151  -0.288  0.00  0.00    +0.145 A 
ENDROOT
BRANCH   6   8
ATOM      8  S   UNL     1      -5.190   0.709   1.836  0.00  0.00    +0.029 S 
ATOM      9  O   UNL     1      -6.428   1.123   1.275  0.00  0.00    -0.164 OA
ATOM     10  O   UNL     1      -4.892  -0.654   2.103  0.00  0.00    -0.164 OA
BRANCH   8  11
ATOM     11  C   UNL     1      -5.016   1.570   3.364  0.00  0.00    +0.094 A 
ATOM     12  C   UNL     1      -4.214   1.051   4.363  0.00  0.00    +0.029 A 
ATOM     13  C   UNL     1      -4.073   1.728   5.559  0.00  0.00    +0.022 A 
ATOM     14  C   UNL     1      -4.744   2.921   5.761  0.00  0.00    +0.041 A 
ATOM     15  C   UNL     1      -5.551   3.438   4.763  0.00  0.00    +0.022 A 
ATOM     16  C   UNL     1      -5.687   2.762   3.565  0.00  0.00    +0.029 A 
ATOM     17 CL   UNL     1      -4.573   3.770   7.266  0.00  0.00    -0.084 Cl
ENDBRANCH   8  11
ENDBRANCH   6   8
BRANCH   5  18
ATOM     18  C   UNL     1      -2.264  -0.010   2.094  0.00  0.00    +0.017 C 
ATOM     19  C   UNL     1      -1.535  -1.238   1.546  0.00  0.00    +0.012 C 
ATOM     20  C   UNL     1      -1.358   0.722   3.085  0.00  0.00    +0.012 C 
ENDBRANCH   5  18
BRANCH   7  21
ATOM     21  O   UNL     1      -5.542   2.529  -0.482  0.00  0.00    -0.505 OA
ATOM     22  H   UNL     1      -6.330   2.161   0.192  0.00  0.00    +0.292 HD
ENDBRANCH   7  21
BRANCH   4  23
ATOM     23  N   UNL     1      -0.291   0.991   0.307  0.00  0.00    -0.216 N 
ATOM     24  H   UNL     1       0.248   1.315   1.210  0.00  0.00    +0.174 HD
BRANCH  23  25
ATOM     25  S   UNL     1       0.472   0.042  -0.816  0.00  0.00    +0.072 S 
ATOM     26  O   UNL     1       1.793  -0.171  -0.338  0.00  0.00    -0.150 OA
ATOM     27  O   UNL     1      -0.414  -1.029  -1.111  0.00  0.00    -0.150 OA
BRANCH  25  28
ATOM     28  C   UNL     1       0.618   0.995  -2.291  0.00  0.00    +0.109 A 
ATOM     29  C   UNL     1      -0.383   0.952  -3.243  0.00  0.00    +0.030 A 
ATOM     30  C   UNL     1      -0.272   1.704  -4.397  0.00  0.00    +0.022 A 
ATOM     31  C   UNL     1       0.847   2.491  -4.605  0.00  0.00    +0.041 A 
ATOM     32  C   UNL     1       1.851   2.530  -3.654  0.00  0.00    +0.022 A 
ATOM     33  C   UNL     1       1.736   1.782  -2.497  0.00  0.00    +0.030 A 
ATOM     34 CL   UNL     1       0.991   3.431  -6.057  0.00  0.00    -0.084 Cl
ENDBRANCH  25  28
ENDBRANCH  23  25
ENDBRANCH   4  23
TORSDOF 7
