REMARK  Name = ZINC40064481
REMARK  9 active torsions:
REMARK  status: ('A' for Active; 'I' for Inactive)
REMARK    1  A    between atoms: C_1  and  C_2
REMARK    2  A    between atoms: C_2  and  C_3
REMARK    3  A    between atoms: C_3  and  O_4
REMARK    4  A    between atoms: O_4  and  C_5
REMARK    5  A    between atoms: C_8  and  C_11
REMARK    6  A    between atoms: C_19  and  C_39
REMARK    7  A    between atoms: C_20  and  C_38
REMARK    8  A    between atoms: C_30  and  C_37
REMARK    9  A    between atoms: C_32  and  C_36
REMARK                            x       y       z     vdW  Elec       q    Type
REMARK                         _______ _______ _______ _____ _____    ______ ____
ROOT
ATOM      1  C   UNL     1       3.346  -4.486   5.542  0.00  0.00    +0.151 C 
ATOM      2  C   UNL     1       2.339  -4.984   6.525  0.00  0.00    +0.072 A 
ATOM      3  C   UNL     1       1.341  -4.273   7.332  0.00  0.00    +0.199 A 
ATOM      4  O   UNL     1       1.071  -3.096   7.173  0.00  0.00    -0.287 OA
ATOM      5  C   UNL     1       0.691  -5.125   8.359  0.00  0.00    +0.065 A 
ATOM      6  C   UNL     1      -0.130  -4.556   9.333  0.00  0.00    +0.015 A 
ATOM      7  C   UNL     1      -0.717  -5.353  10.275  0.00  0.00    +0.004 A 
ATOM      8  C   UNL     1      -0.499  -6.724  10.265  0.00  0.00    -0.044 A 
ATOM      9  C   UNL     1       0.307  -7.303   9.311  0.00  0.00    -0.005 A 
ATOM     10  C   UNL     1       0.916  -6.511   8.337  0.00  0.00    +0.143 A 
ATOM     11  O   UNL     1       1.696  -7.102   7.403  0.00  0.00    -0.449 OA
ATOM     12  C   UNL     1       2.470  -6.342   6.603  0.00  0.00    +0.199 A 
ATOM     13  C   UNL     1       3.551  -6.755   5.693  0.00  0.00    +0.289 C 
ATOM     14  O   UNL     1       3.923  -7.900   5.529  0.00  0.00    -0.266 OA
ATOM     15  N   UNL     1       4.070  -5.677   5.068  0.00  0.00    -0.232 N 
ATOM     16  C   UNL     1       5.100  -5.688   4.144  0.00  0.00    +0.169 A 
ATOM     17  N   UNL     1       5.778  -6.711   3.679  0.00  0.00    -0.224 NA
ATOM     18  C   UNL     1       6.768  -6.574   2.771  0.00  0.00    +0.083 A 
ATOM     19  C   UNL     1       7.570  -7.586   2.193  0.00  0.00    -0.024 A 
ATOM     20  C   UNL     1       8.541  -7.273   1.278  0.00  0.00    +0.009 A 
ATOM     21  C   UNL     1       8.772  -5.962   0.887  0.00  0.00    -0.049 A 
ATOM     22  C   UNL     1       8.006  -4.947   1.431  0.00  0.00    +0.020 A 
ATOM     23  C   UNL     1       7.032  -5.251   2.348  0.00  0.00    +0.041 A 
ATOM     24  S   UNL     1       5.841  -4.313   3.275  0.00  0.00    -0.052 S 
ATOM     25  C   UNL     1       9.848  -5.647  -0.121  0.00  0.00    +0.044 C 
ATOM     26  C   UNL     1       7.355  -9.024   2.589  0.00  0.00    +0.046 C 
ATOM     27  C   UNL     1       0.530  -8.793   9.318  0.00  0.00    +0.048 C 
ATOM     28  C   UNL     1      -1.152  -7.589  11.312  0.00  0.00    +0.044 C 
ENDROOT
BRANCH   1  32
ATOM     29  C   UNL     1       1.385  -2.554   2.273  0.00  0.00    +0.121 A 
ATOM     30  C   UNL     1       1.962  -1.797   3.283  0.00  0.00    +0.046 A 
ATOM     31  C   UNL     1       2.595  -2.424   4.339  0.00  0.00    +0.009 A 
ATOM     32  C   UNL     1       2.654  -3.804   4.389  0.00  0.00    -0.022 A 
ATOM     33  C   UNL     1       2.081  -4.561   3.384  0.00  0.00    +0.009 A 
ATOM     34  C   UNL     1       1.442  -3.939   2.329  0.00  0.00    +0.046 A 
BRANCH  29  35
ATOM     35  O   UNL     1       0.761  -1.940   1.234  0.00  0.00    -0.492 OA
BRANCH  35  36
ATOM     36  C   UNL     1       0.742  -0.511   1.242  0.00  0.00    +0.229 C 
BRANCH  36  38
ATOM     37  C   UNL     1      -0.019   1.526   0.010  0.00  0.00    +0.007 C 
ATOM     38  C   UNL     1       0.002  -0.004   0.002  0.00  0.00    +0.038 C 
ENDBRANCH  36  38
ENDBRANCH  35  36
ENDBRANCH  29  35
ENDBRANCH   1  32
TORSDOF 4
