REMARK  Name = ZINC24002459
REMARK  11 active torsions:
REMARK  status: ('A' for Active; 'I' for Inactive)
REMARK    1  A    between atoms: C_1  and  C_2
REMARK    2  A    between atoms: C_2  and  O_3
REMARK    3  A    between atoms: O_3  and  C_4
REMARK    4  A    between atoms: C_4  and  C_6
REMARK    5  A    between atoms: C_7  and  C_19
REMARK    6  A    between atoms: C_12  and  C_14
REMARK    7  A    between atoms: C_19  and  O_20
REMARK    8  A    between atoms: O_20  and  C_21
REMARK    9  A    between atoms: C_21  and  C_23
REMARK   10  A    between atoms: C_26  and  S_29
REMARK   11  A    between atoms: S_29  and  N_32
REMARK                            x       y       z     vdW  Elec       q    Type
REMARK                         _______ _______ _______ _____ _____    ______ ____
ROOT
ATOM      1  C   UNL     1      -0.695   1.692   3.586  0.00  0.00    +0.084 C 
ATOM      2  C   UNL     1      -0.314   1.176   4.774  0.00  0.00    +0.061 C 
ATOM      3  N   UNL     1      -0.973   1.497   5.926  0.00  0.00    -0.269 N 
ATOM      4  C   UNL     1      -2.024   2.326   5.973  0.00  0.00    +0.305 C 
ATOM      5  O   UNL     1      -2.547   2.551   7.047  0.00  0.00    -0.252 OA
ATOM      6  N   UNL     1      -2.521   2.918   4.869  0.00  0.00    -0.285 N 
ATOM      7  C   UNL     1      -1.875   2.642   3.575  0.00  0.00    +0.179 C 
ATOM      8  H   UNL     1      -0.647   1.067   6.884  0.00  0.00    +0.156 HD
ATOM      9  H   UNL     1      -3.388   3.593   4.918  0.00  0.00    +0.151 HD
ENDROOT
BRANCH   7  10
ATOM     10  C   UNL     1      -2.921   2.073   2.651  0.00  0.00    +0.130 A 
ATOM     11  C   UNL     1      -3.142   2.459   1.382  0.00  0.00    +0.047 A 
ATOM     12  C   UNL     1      -4.207   1.667   0.893  0.00  0.00    +0.041 A 
ATOM     13  C   UNL     1      -4.573   0.846   1.893  0.00  0.00    +0.195 A 
ATOM     14  O   UNL     1      -3.787   1.092   2.954  0.00  0.00    -0.466 OA
ENDBRANCH   7  10
BRANCH   1  15
ATOM     15  C   UNL     1      -0.012   1.361   2.392  0.00  0.00    +0.339 C 
ATOM     16  O   UNL     1       0.795   2.138   1.917  0.00  0.00    -0.245 OA
BRANCH  15  17
ATOM     17  O   UNL     1      -0.255   0.182   1.780  0.00  0.00    -0.462 OA
BRANCH  17  19
ATOM     18  C   UNL     1       0.066  -1.457   0.034  0.00  0.00    +0.048 C 
ATOM     19  C   UNL     1       0.471  -0.086   0.579  0.00  0.00    +0.229 C 
ENDBRANCH  17  19
ENDBRANCH  15  17
ENDBRANCH   1  15
BRANCH   2  20
ATOM     20  C   UNL     1       0.859   0.231   4.830  0.00  0.00    +0.283 C 
BRANCH  20  21
ATOM     21  O   UNL     1       1.938   0.843   5.585  0.00  0.00    -0.455 OA
BRANCH  21  22
ATOM     22  C   UNL     1       3.068   0.124   5.729  0.00  0.00    +0.340 C 
ATOM     23  O   UNL     1       3.149  -0.984   5.239  0.00  0.00    -0.245 OA
BRANCH  22  24
ATOM     24  C   UNL     1       4.208   0.683   6.484  0.00  0.00    +0.059 A 
ATOM     25  C   UNL     1       4.120   1.959   7.045  0.00  0.00    +0.017 A 
ATOM     26  C   UNL     1       5.186   2.473   7.752  0.00  0.00    +0.029 A 
ATOM     27  C   UNL     1       6.345   1.732   7.899  0.00  0.00    +0.106 A 
ATOM     28  C   UNL     1       6.441   0.469   7.342  0.00  0.00    +0.029 A 
ATOM     29  C   UNL     1       5.380  -0.060   6.636  0.00  0.00    +0.017 A 
BRANCH  27  30
ATOM     30  S   UNL     1       7.706   2.400   8.798  0.00  0.00    +0.061 S 
ATOM     31  O   UNL     1       7.169   3.374   9.682  0.00  0.00    -0.153 OA
ATOM     32  O   UNL     1       8.471   1.294   9.257  0.00  0.00    -0.153 OA
BRANCH  30  33
ATOM     33  N   UNL     1       8.655   3.216   7.715  0.00  0.00    -0.177 NA
ATOM     34  C   UNL     1       9.750   2.530   7.013  0.00  0.00    +0.109 C 
ATOM     35  C   UNL     1       9.572   2.745   5.503  0.00  0.00    +0.017 C 
ATOM     36  C   UNL     1       9.482   4.245   5.213  0.00  0.00    +0.003 C 
ATOM     37  C   UNL     1       8.264   4.833   5.929  0.00  0.00    +0.017 C 
ATOM     38  C   UNL     1       8.424   4.641   7.441  0.00  0.00    +0.109 C 
ENDBRANCH  30  33
ENDBRANCH  27  30
ENDBRANCH  22  24
ENDBRANCH  21  22
ENDBRANCH  20  21
ENDBRANCH   2  20
TORSDOF 10
