REMARK  Name = ZINC10078790
REMARK  9 active torsions:
REMARK  status: ('A' for Active; 'I' for Inactive)
REMARK    1  A    between atoms: C_1  and  C_2
REMARK    2  A    between atoms: C_2  and  C_3
REMARK    3  A    between atoms: C_3  and  O_4
REMARK    4  A    between atoms: O_4  and  C_5
REMARK    5  A    between atoms: C_8  and  N_11
REMARK    6  A    between atoms: C_15  and  N_58
REMARK    7  A    between atoms: C_19  and  N_58
REMARK    8  A    between atoms: N_22  and  C_25
REMARK    9  A    between atoms: C_28  and  N_30
REMARK                            x       y       z     vdW  Elec       q    Type
REMARK                         _______ _______ _______ _____ _____    ______ ____
ROOT
ATOM      1  N   UNL     1      -1.739  -0.411   0.169  0.00  0.00    +0.389 N 
ATOM      2  H   UNL     1      -2.223  -0.550   1.064  0.00  0.00    -0.084 HD
ATOM      3  H   UNL     1      -2.301   0.203  -0.432  0.00  0.00    -0.084 HD
ENDROOT
BRANCH   1   8
ATOM      4  N   UNL     1      -2.364  -3.700   0.419  0.00  0.00    -0.212 N 
ATOM      5  C   UNL     1      -3.263  -3.412  -0.531  0.00  0.00    +0.225 C 
ATOM      6  O   UNL     1      -4.242  -4.076  -0.795  0.00  0.00    -0.275 OA
ATOM      7  C   UNL     1      -2.864  -2.126  -1.220  0.00  0.00    +0.090 C 
ATOM      8  C   UNL     1      -1.565  -1.716  -0.497  0.00  0.00    +0.026 C 
ATOM      9  C   UNL     1      -1.367  -2.814   0.525  0.00  0.00    +0.213 C 
ATOM     10  O   UNL     1      -0.449  -2.881   1.315  0.00  0.00    -0.277 OA
BRANCH   4  14
ATOM     11  C   UNL     1      -2.650  -7.081   2.847  0.00  0.00    +0.121 A 
ATOM     12  C   UNL     1      -3.585  -6.062   2.964  0.00  0.00    +0.047 A 
ATOM     13  C   UNL     1      -3.490  -4.943   2.160  0.00  0.00    +0.027 A 
ATOM     14  C   UNL     1      -2.461  -4.837   1.236  0.00  0.00    +0.044 A 
ATOM     15  C   UNL     1      -1.529  -5.859   1.115  0.00  0.00    +0.027 A 
ATOM     16  C   UNL     1      -1.621  -6.976   1.923  0.00  0.00    +0.047 A 
BRANCH  11  17
ATOM     17  O   UNL     1      -2.743  -8.182   3.638  0.00  0.00    -0.492 OA
BRANCH  17  18
ATOM     18  C   UNL     1      -1.747  -9.192   3.464  0.00  0.00    +0.229 C 
BRANCH  18  20
ATOM     19  C   UNL     1      -0.948 -11.426   4.248  0.00  0.00    +0.007 C 
ATOM     20  C   UNL     1      -2.014 -10.345   4.434  0.00  0.00    +0.038 C 
ENDBRANCH  18  20
ENDBRANCH  17  18
ENDBRANCH  11  17
ENDBRANCH   4  14
ENDBRANCH   1   8
BRANCH   1  21
ATOM     21  C   UNL     1      -0.428   0.217   0.417  0.00  0.00    -0.068 C 
ATOM     22  C   UNL     1       0.000   1.013  -0.818  0.00  0.00    +0.003 C 
ATOM     23  C   UNL     1       1.327   1.719  -0.530  0.00  0.00    +0.105 C 
ATOM     24  N   UNL     1       1.165   2.616   0.622  0.00  0.00    -0.317 N 
ATOM     25  C   UNL     1       0.800   1.868   1.831  0.00  0.00    +0.105 C 
ATOM     26  C   UNL     1      -0.542   1.166   1.613  0.00  0.00    +0.003 C 
BRANCH  24  27
ATOM     27  C   UNL     1       2.314   3.371   0.831  0.00  0.00    +0.099 A 
ATOM     28  C   UNL     1       2.822   4.153  -0.202  0.00  0.00    +0.044 A 
ATOM     29  C   UNL     1       3.965   4.899   0.020  0.00  0.00    +0.037 A 
ATOM     30  C   UNL     1       4.564   4.838   1.271  0.00  0.00    +0.142 A 
ATOM     31  C   UNL     1       4.006   4.040   2.250  0.00  0.00    +0.117 A 
ATOM     32  N   UNL     1       2.881   3.298   2.069  0.00  0.00    -0.347 N 
ATOM     33  H   UNL     1       2.483   2.720   2.818  0.00  0.00    +0.167 HD
BRANCH  30  34
ATOM     34  N   UNL     1       5.790   5.619   1.553  0.00  0.00    +0.058 N 
ATOM     35  O   UNL     1       6.277   6.321   0.685  0.00  0.00    -0.126 OA
ATOM     36  O   UNL     1       6.310   5.561   2.652  0.00  0.00    -0.126 OA
ENDBRANCH  30  34
ENDBRANCH  24  27
ENDBRANCH   1  21
TORSDOF 8
