REMARK  Name = ZINC36358122
REMARK  7 active torsions:
REMARK  status: ('A' for Active; 'I' for Inactive)
REMARK    1  A    between atoms: C_1  and  C_2
REMARK    2  A    between atoms: C_2  and  O_3
REMARK    3  A    between atoms: O_3  and  C_4
REMARK    4  A    between atoms: C_9  and  C_10
REMARK    5  A    between atoms: C_13  and  O_28
REMARK    6  A    between atoms: C_17  and  C_27
REMARK    7  A    between atoms: C_30  and  C_33
REMARK                            x       y       z     vdW  Elec       q    Type
REMARK                         _______ _______ _______ _____ _____    ______ ____
ROOT
ATOM      1  C   UNL     1       1.993  -1.399  -3.487  0.00  0.00    +0.067 C 
ATOM      2  C   UNL     1       1.344  -1.667  -4.851  0.00  0.00    +0.108 C 
ATOM      3  C   UNL     1       1.906  -2.902  -5.494  0.00  0.00    +0.190 C 
ATOM      4  N   UNL     1       3.139  -3.286  -5.353  0.00  0.00    -0.197 NA
ATOM      5  C   UNL     1       3.970  -2.568  -4.544  0.00  0.00    +0.165 A 
ATOM      6  C   UNL     1       3.473  -1.648  -3.628  0.00  0.00    +0.028 A 
ATOM      7  C   UNL     1       4.546  -1.088  -2.960  0.00  0.00    +0.066 A 
ATOM      8  N   UNL     1       5.651  -1.632  -3.418  0.00  0.00    -0.168 NA
ATOM      9  N   UNL     1       5.316  -2.575  -4.410  0.00  0.00    -0.194 N 
ATOM     10  C   UNL     1       6.213  -3.373  -5.125  0.00  0.00    +0.178 A 
ATOM     11  C   UNL     1       7.535  -2.963  -5.292  0.00  0.00    +0.053 A 
ATOM     12  C   UNL     1       8.385  -3.790  -6.010  0.00  0.00    +0.045 A 
ATOM     13  C   UNL     1       7.867  -4.974  -6.518  0.00  0.00    +0.152 A 
ATOM     14  N   UNL     1       6.601  -5.282  -6.312  0.00  0.00    -0.136 NA
ATOM     15  N   UNL     1       5.812  -4.523  -5.643  0.00  0.00    -0.128 NA
ATOM     16 CL   UNL     1       8.886  -6.048  -7.426  0.00  0.00    -0.060 Cl
ATOM     17  C   UNL     1       4.462  -0.032  -1.888  0.00  0.00    +0.068 C 
ENDROOT
BRANCH   1  23
ATOM     18  C   UNL     1       0.777  -1.811  -1.336  0.00  0.00    +0.125 A 
ATOM     19  C   UNL     1       0.243  -2.672  -0.388  0.00  0.00    +0.053 A 
ATOM     20  C   UNL     1       0.352  -4.034  -0.558  0.00  0.00    +0.001 A 
ATOM     21  C   UNL     1       0.985  -4.564  -1.675  0.00  0.00    +0.125 A 
ATOM     22  C   UNL     1       1.523  -3.695  -2.620  0.00  0.00    +0.053 A 
ATOM     23  C   UNL     1       1.413  -2.330  -2.454  0.00  0.00    +0.006 A 
ATOM     24  O   UNL     1       0.961  -5.926  -1.656  0.00  0.00    -0.488 OA
ATOM     25  C   UNL     1       0.703  -6.376  -0.315  0.00  0.00    +0.175 C 
ATOM     26  C   UNL     1      -0.108  -5.205   0.289  0.00  0.00    +0.083 C 
ATOM     27  C   UNL     1      -0.122  -7.664  -0.324  0.00  0.00    +0.052 C 
BRANCH  18  28
ATOM     28  O   UNL     1       0.671  -0.465  -1.174  0.00  0.00    -0.492 OA
BRANCH  28  30
ATOM     29  C   UNL     1      -0.019   1.526   0.010  0.00  0.00    +0.048 C 
ATOM     30  C   UNL     1       0.002  -0.004   0.002  0.00  0.00    +0.225 C 
ENDBRANCH  28  30
ENDBRANCH  18  28
ENDBRANCH   1  23
BRANCH   3  31
ATOM     31  O   UNL     1       1.086  -3.653  -6.257  0.00  0.00    -0.495 OA
ATOM     32  H   UNL     1       1.511  -4.432  -6.641  0.00  0.00    +0.293 HD
ENDBRANCH   3  31
TORSDOF 4
