REMARK  Name = ZINC01326022
REMARK  10 active torsions:
REMARK  status: ('A' for Active; 'I' for Inactive)
REMARK    1  A    between atoms: C_1  and  C_2
REMARK    2  A    between atoms: C_2  and  C_3
REMARK    3  A    between atoms: C_3  and  C_5
REMARK    4  A    between atoms: C_3  and  N_17
REMARK    5  A    between atoms: N_9  and  C_10
REMARK    6  A    between atoms: C_10  and  C_11
REMARK    7  A    between atoms: N_17  and  C_18
REMARK    8  A    between atoms: N_17  and  C_25
REMARK    9  A    between atoms: C_18  and  C_19
REMARK   10  A    between atoms: C_25  and  C_26
REMARK                            x       y       z     vdW  Elec       q    Type
REMARK                         _______ _______ _______ _____ _____    ______ ____
ROOT
ATOM      1  N   UNL     1       2.109   0.585  -0.997  0.00  0.00    -0.284 NA
ENDROOT
BRANCH   1   2
ATOM      2  C   UNL     1       1.616  -0.784  -0.791  0.00  0.00    +0.127 C 
BRANCH   2   3
ATOM      3  C   UNL     1       1.040  -0.908   0.596  0.00  0.00    +0.169 A 
ATOM      4  N   UNL     1       0.758   0.075   1.417  0.00  0.00    -0.112 NA
ATOM      5  N   UNL     1       0.285  -0.436   2.501  0.00  0.00    -0.023 NA
ATOM      6  N   UNL     1       0.258  -1.718   2.393  0.00  0.00    -0.044 NA
ATOM      7  N   UNL     1       0.710  -2.048   1.230  0.00  0.00    -0.223 N 
BRANCH   7   8
ATOM      8  C   UNL     1       0.844  -3.408   0.702  0.00  0.00    +0.182 C 
BRANCH   8   9
ATOM      9  C   UNL     1       2.202  -3.954   1.059  0.00  0.00    -0.026 A 
ATOM     10  C   UNL     1       3.271  -3.760   0.205  0.00  0.00    +0.005 A 
ATOM     11  C   UNL     1       4.517  -4.261   0.532  0.00  0.00    +0.000 A 
ATOM     12  C   UNL     1       4.694  -4.957   1.713  0.00  0.00    +0.000 A 
ATOM     13  C   UNL     1       3.625  -5.150   2.568  0.00  0.00    +0.000 A 
ATOM     14  C   UNL     1       2.380  -4.645   2.243  0.00  0.00    +0.005 A 
ENDBRANCH   8   9
ENDBRANCH   7   8
ENDBRANCH   2   3
BRANCH   2  16
ATOM     15  C   UNL     1       1.112  -0.961  -3.232  0.00  0.00    +0.006 C 
ATOM     16  C   UNL     1       0.530  -1.095  -1.824  0.00  0.00    +0.023 C 
ENDBRANCH   2  16
ENDBRANCH   1   2
BRANCH   1  17
ATOM     17  C   UNL     1       3.131   0.623  -2.051  0.00  0.00    +0.122 C 
BRANCH  17  18
ATOM     18  C   UNL     1       3.891   1.922  -1.967  0.00  0.00    -0.015 A 
ATOM     19  C   UNL     1       3.552   2.988  -2.786  0.00  0.00    +0.008 A 
ATOM     20  C   UNL     1       4.278   4.163  -2.674  0.00  0.00    +0.020 A 
ATOM     21  C   UNL     1       5.309   4.233  -1.756  0.00  0.00    +0.111 A 
ATOM     22  N   UNL     1       5.604   3.199  -0.993  0.00  0.00    -0.263 NA
ATOM     23  C   UNL     1       4.931   2.067  -1.068  0.00  0.00    +0.115 A 
ENDBRANCH  17  18
ENDBRANCH   1  17
BRANCH   1  24
ATOM     24  C   UNL     1       1.003   1.502  -1.302  0.00  0.00    +0.126 C 
BRANCH  24  25
ATOM     25  C   UNL     1       0.290   1.872  -0.027  0.00  0.00    +0.031 A 
ATOM     26  C   UNL     1       0.845   2.775   0.821  0.00  0.00    +0.020 A 
ATOM     27  C   UNL     1       0.129   3.113   2.050  0.00  0.00    +0.003 A 
ATOM     28  C   UNL     1       0.653   4.037   2.962  0.00  0.00    +0.059 A 
ATOM     29  C   UNL     1      -0.046   4.337   4.112  0.00  0.00    +0.163 A 
ATOM     30  C   UNL     1      -1.275   3.723   4.369  0.00  0.00    +0.164 A 
ATOM     31  C   UNL     1      -1.800   2.806   3.474  0.00  0.00    +0.075 A 
ATOM     32  C   UNL     1      -1.109   2.493   2.311  0.00  0.00    +0.053 A 
ATOM     33  N   UNL     1      -1.618   1.582   1.408  0.00  0.00    -0.322 N 
ATOM     34  H   UNL     1      -2.470   1.155   1.589  0.00  0.00    +0.169 HD
ATOM     35  C   UNL     1      -0.953   1.282   0.279  0.00  0.00    +0.254 A 
ATOM     36  O   UNL     1      -1.435   0.476  -0.499  0.00  0.00    -0.268 OA
ATOM     37  O   UNL     1      -1.974   4.019   5.497  0.00  0.00    -0.485 OA
ATOM     38  C   UNL     1      -1.251   4.658   6.555  0.00  0.00    +0.270 C 
ATOM     39  C   UNL     1      -0.421   5.798   5.950  0.00  0.00    +0.270 C 
ATOM     40  O   UNL     1       0.480   5.236   4.990  0.00  0.00    -0.485 OA
ENDBRANCH  24  25
ENDBRANCH   1  24
TORSDOF 9
