REMARK  Name = ZINC35056549
REMARK  10 active torsions:
REMARK  status: ('A' for Active; 'I' for Inactive)
REMARK    1  A    between atoms: C_1  and  C_2
REMARK    2  A    between atoms: N_4  and  C_5
REMARK    3  A    between atoms: C_7  and  O_40
REMARK    4  A    between atoms: C_15  and  C_17
REMARK    5  A    between atoms: C_15  and  C_18
REMARK    6  A    between atoms: C_20  and  O_22
REMARK    7  A    between atoms: O_22  and  C_23
REMARK    8  A    between atoms: C_28  and  C_29
REMARK    9  A    between atoms: C_30  and  C_31
REMARK   10  A    between atoms: C_31  and  C_33
REMARK                            x       y       z     vdW  Elec       q    Type
REMARK                         _______ _______ _______ _____ _____    ______ ____
ROOT
ATOM      1  C   UNL     1      -1.136  -2.159   0.001  0.00  0.00    +0.173 C 
ATOM      2  C   UNL     1      -2.374  -2.692   0.728  0.00  0.00    +0.172 C 
ATOM      3  C   UNL     1      -3.630  -2.254  -0.027  0.00  0.00    +0.183 C 
ATOM      4  C   UNL     1      -3.550  -2.733  -1.480  0.00  0.00    +0.179 C 
ATOM      5  C   UNL     1      -4.760  -2.180  -2.245  0.00  0.00    +0.197 C 
ATOM      6  O   UNL     1      -4.791  -0.757  -2.091  0.00  0.00    -0.347 OA
ATOM      7  C   UNL     1      -4.859  -0.323  -0.731  0.00  0.00    +0.165 C 
ATOM      8  O   UNL     1      -3.731  -0.828  -0.011  0.00  0.00    -0.341 OA
ATOM      9  C   UNL     1      -4.851   1.206  -0.683  0.00  0.00    +0.074 C 
ATOM     10  C   UNL     1      -6.147  -0.847  -0.093  0.00  0.00    +0.074 C 
ATOM     11  O   UNL     1      -2.344  -2.250  -2.076  0.00  0.00    -0.332 OA
ATOM     12  C   UNL     1      -1.148  -2.663  -1.444  0.00  0.00    +0.331 C 
ENDROOT
BRANCH   1  16
ATOM     13  C   UNL     1      -0.651   1.488   1.059  0.00  0.00    +0.109 C 
ATOM     14  C   UNL     1      -0.630  -0.018   1.051  0.00  0.00    +0.210 C 
ATOM     15  O   UNL     1      -0.141  -0.623   1.981  0.00  0.00    -0.276 OA
ATOM     16  N   UNL     1      -1.156  -0.694   0.009  0.00  0.00    -0.304 N 
ATOM     17  H   UNL     1      -1.547  -0.210  -0.735  0.00  0.00    +0.149 HD
ENDBRANCH   1  16
BRANCH   2  18
ATOM     18  O   UNL     1      -2.320  -4.119   0.778  0.00  0.00    -0.387 OA
ATOM     19  H   UNL     1      -1.546  -4.467   1.241  0.00  0.00    +0.210 HD
ENDBRANCH   2  18
BRANCH  12  20
ATOM     20  O   UNL     1      -1.087  -4.091  -1.452  0.00  0.00    -0.461 OA
BRANCH  20  21
ATOM     21  C   UNL     1      -0.879  -4.692  -2.650  0.00  0.00    +0.131 A 
ATOM     22  C   UNL     1      -0.730  -3.928  -3.796  0.00  0.00    +0.046 A 
ATOM     23  C   UNL     1      -0.518  -4.542  -5.016  0.00  0.00    +0.004 A 
ATOM     24  C   UNL     1      -0.452  -5.923  -5.105  0.00  0.00    +0.001 A 
ATOM     25  C   UNL     1      -0.598  -6.700  -3.978  0.00  0.00    +0.011 A 
ATOM     26  C   UNL     1      -0.808  -6.093  -2.734  0.00  0.00    +0.017 A 
BRANCH  26  27
ATOM     27  C   UNL     1      -0.959  -6.914  -1.526  0.00  0.00    +0.015 C 
ATOM     28  C   UNL     1      -0.889  -8.262  -1.612  0.00  0.00    +0.052 C 
BRANCH  28  29
ATOM     29  C   UNL     1      -1.035  -9.055  -0.446  0.00  0.00    +0.186 C 
ATOM     30  O   UNL     1      -1.222  -8.523   0.633  0.00  0.00    -0.287 OA
BRANCH  29  31
ATOM     31  C   UNL     1      -0.959 -10.529  -0.540  0.00  0.00    +0.022 A 
ATOM     32  C   UNL     1      -0.738 -11.142  -1.775  0.00  0.00    +0.013 A 
ATOM     33  C   UNL     1      -0.669 -12.517  -1.856  0.00  0.00    +0.021 A 
ATOM     34  C   UNL     1      -0.818 -13.290  -0.716  0.00  0.00    +0.041 A 
ATOM     35  C   UNL     1      -1.037 -12.687   0.512  0.00  0.00    +0.021 A 
ATOM     36  C   UNL     1      -1.102 -11.313   0.607  0.00  0.00    +0.013 A 
ATOM     37 CL   UNL     1      -0.729 -15.020  -0.826  0.00  0.00    -0.084 Cl
ENDBRANCH  29  31
ENDBRANCH  28  29
ENDBRANCH  26  27
ENDBRANCH  20  21
ENDBRANCH  12  20
TORSDOF 7
