REMARK  Name = ZINC09174177
REMARK  6 active torsions:
REMARK  status: ('A' for Active; 'I' for Inactive)
REMARK    1  A    between atoms: C_3  and  C_6
REMARK    2  A    between atoms: C_9  and  S_17
REMARK    3  A    between atoms: N_10  and  C_11
REMARK    4  A    between atoms: S_17  and  C_18
REMARK    5  A    between atoms: C_18  and  C_19
REMARK    6  A    between atoms: C_19  and  C_21
REMARK                            x       y       z     vdW  Elec       q    Type
REMARK                         _______ _______ _______ _____ _____    ______ ____
ROOT
ATOM      1  C   UNL     1      -1.974  -1.304  -0.939  0.00  0.00    +0.201 A 
ATOM      2  N   UNL     1      -3.206  -1.525  -0.533  0.00  0.00    -0.125 NA
ATOM      3  N   UNL     1      -3.412  -0.926   0.585  0.00  0.00    -0.122 NA
ATOM      4  C   UNL     1      -2.327  -0.291   0.966  0.00  0.00    +0.193 A 
ATOM      5  N   UNL     1      -1.372  -0.511   0.012  0.00  0.00    -0.297 N 
ENDROOT
BRANCH   5   6
ATOM      6  C   UNL     1       0.002  -0.004   0.002  0.00  0.00    +0.091 C 
ATOM      7  C   UNL     1      -0.019   1.526   0.010  0.00  0.00    +0.025 C 
ATOM      8  C   UNL     1       1.417   2.055  -0.000  0.00  0.00    +0.002 C 
ATOM      9  C   UNL     1       2.157   1.548   1.239  0.00  0.00    +0.000 C 
ATOM     10  C   UNL     1       2.178   0.019   1.231  0.00  0.00    +0.002 C 
ATOM     11  C   UNL     1       0.742  -0.511   1.242  0.00  0.00    +0.025 C 
ENDBRANCH   5   6
BRANCH   1  14
ATOM     12  C   UNL     1      -0.938  -2.965  -4.029  0.00  0.00    +0.042 A 
ATOM     13  C   UNL     1      -1.843  -2.812  -2.961  0.00  0.00    +0.053 A 
ATOM     14  C   UNL     1      -1.356  -1.811  -2.174  0.00  0.00    +0.172 A 
ATOM     15  O   UNL     1      -0.213  -1.363  -2.729  0.00  0.00    -0.460 OA
ATOM     16  C   UNL     1       0.046  -2.062  -3.846  0.00  0.00    +0.196 A 
ENDBRANCH   1  14
BRANCH   4  17
ATOM     17  S   UNL     1      -2.137   0.667   2.432  0.00  0.00    -0.078 S 
BRANCH  17  18
ATOM     18  C   UNL     1      -3.791   0.481   3.145  0.00  0.00    +0.157 C 
BRANCH  18  19
ATOM     19  C   UNL     1      -3.865   1.239   4.445  0.00  0.00    +0.173 C 
ATOM     20  O   UNL     1      -2.896   1.845   4.850  0.00  0.00    -0.291 OA
BRANCH  19  21
ATOM     21  C   UNL     1      -5.112   1.244   5.222  0.00  0.00    +0.022 A 
ATOM     22  C   UNL     1      -6.232   0.543   4.755  0.00  0.00    +0.013 A 
ATOM     23  C   UNL     1      -7.392   0.545   5.476  0.00  0.00    +0.030 A 
ATOM     24  C   UNL     1      -7.468   1.242   6.676  0.00  0.00    +0.087 A 
ATOM     25  C   UNL     1      -6.358   1.946   7.154  0.00  0.00    +0.157 A 
ATOM     26  C   UNL     1      -5.181   1.943   6.432  0.00  0.00    +0.060 A 
ATOM     27  O   UNL     1      -6.722   2.520   8.327  0.00  0.00    -0.408 OA
ATOM     28  C   UNL     1      -7.999   2.204   8.592  0.00  0.00    +0.419 A 
ATOM     29  O   UNL     1      -8.622   2.564   9.573  0.00  0.00    -0.223 OA
ATOM     30  N   UNL     1      -8.484   1.426   7.605  0.00  0.00    -0.288 N 
ATOM     31  H   UNL     1      -9.381   1.059   7.553  0.00  0.00    +0.172 HD
ENDBRANCH  19  21
ENDBRANCH  18  19
ENDBRANCH  17  18
ENDBRANCH   4  17
TORSDOF 6
