REMARK  Name = ZINC40487490
REMARK  5 active torsions:
REMARK  status: ('A' for Active; 'I' for Inactive)
REMARK    1  A    between atoms: C_3  and  N_37
REMARK    2  A    between atoms: C_6  and  C_7
REMARK    3  A    between atoms: C_17  and  C_19
REMARK    4  A    between atoms: C_22  and  N_25
REMARK    5  A    between atoms: C_28  and  C_30
REMARK                            x       y       z     vdW  Elec       q    Type
REMARK                         _______ _______ _______ _____ _____    ______ ____
ROOT
ATOM      1  C   UNL     1      -1.376  -0.740   1.083  0.00  0.00    +0.013 C 
ATOM      2  C   UNL     1      -1.309  -2.068   0.858  0.00  0.00    -0.024 C 
ATOM      3  C   UNL     1       0.000  -2.779   1.019  0.00  0.00    +0.037 C 
ATOM      4  C   UNL     1      -0.022  -4.231   0.587  0.00  0.00    +0.005 C 
ATOM      5  C   UNL     1      -1.367  -4.914   0.824  0.00  0.00    +0.012 C 
ATOM      6  C   UNL     1      -2.419  -4.208  -0.034  0.00  0.00    +0.066 C 
ATOM      7  C   UNL     1      -2.477  -2.771   0.480  0.00  0.00    +0.068 C 
ATOM      8  N   UNL     1      -3.711  -2.402   0.503  0.00  0.00    -0.181 NA
ATOM      9  N   UNL     1      -4.612  -3.451   0.280  0.00  0.00    -0.181 N 
ATOM     10  C   UNL     1      -3.838  -4.724   0.258  0.00  0.00    +0.140 C 
ATOM     11  C   UNL     1      -5.942  -3.331   0.097  0.00  0.00    +0.266 C 
ATOM     12  O   UNL     1      -6.636  -4.326   0.013  0.00  0.00    -0.268 OA
ENDROOT
BRANCH  11  13
ATOM     13  C   UNL     1      -6.556  -1.991  -0.000  0.00  0.00    +0.039 A 
ATOM     14  C   UNL     1      -7.945  -1.859  -0.051  0.00  0.00    +0.014 A 
ATOM     15  C   UNL     1      -8.513  -0.605  -0.142  0.00  0.00    +0.021 A 
ATOM     16  C   UNL     1      -7.708   0.521  -0.183  0.00  0.00    +0.041 A 
ATOM     17  C   UNL     1      -6.329   0.397  -0.134  0.00  0.00    +0.021 A 
ATOM     18  C   UNL     1      -5.750  -0.851  -0.036  0.00  0.00    +0.014 A 
ATOM     19 CL   UNL     1      -8.430   2.096  -0.299  0.00  0.00    -0.084 Cl
ENDBRANCH  11  13
BRANCH   1  25
ATOM     20  C   UNL     1       0.238   1.148   0.938  0.00  0.00    +0.010 A 
ATOM     21  C   UNL     1       1.346   1.820   1.410  0.00  0.00    +0.033 A 
ATOM     22  C   UNL     1       2.029   1.345   2.516  0.00  0.00    +0.126 A 
ATOM     23  C   UNL     1       1.607   0.193   3.156  0.00  0.00    +0.033 A 
ATOM     24  C   UNL     1       0.501  -0.490   2.697  0.00  0.00    +0.010 A 
ATOM     25  C   UNL     1      -0.195  -0.017   1.580  0.00  0.00    -0.025 A 
BRANCH  22  26
ATOM     26  N   UNL     1       3.218   2.072   3.015  0.00  0.00    +0.056 N 
ATOM     27  O   UNL     1       3.590   3.078   2.458  0.00  0.00    -0.126 OA
ATOM     28  O   UNL     1       3.817   1.659   3.981  0.00  0.00    -0.126 OA
ENDBRANCH  22  26
ENDBRANCH   1  25
BRANCH  10  29
ATOM     29  C   UNL     1      -3.902  -5.399   1.603  0.00  0.00    -0.024 A 
ATOM     30  C   UNL     1      -4.005  -4.640   2.754  0.00  0.00    +0.008 A 
ATOM     31  C   UNL     1      -4.064  -5.260   3.988  0.00  0.00    +0.033 A 
ATOM     32  C   UNL     1      -4.019  -6.639   4.072  0.00  0.00    +0.126 A 
ATOM     33  C   UNL     1      -3.917  -7.399   2.921  0.00  0.00    +0.033 A 
ATOM     34  C   UNL     1      -3.862  -6.779   1.687  0.00  0.00    +0.008 A 
BRANCH  32  35
ATOM     35  N   UNL     1      -4.081  -7.303   5.393  0.00  0.00    +0.056 N 
ATOM     36  O   UNL     1      -4.170  -6.639   6.400  0.00  0.00    -0.126 OA
ATOM     37  O   UNL     1      -4.042  -8.509   5.466  0.00  0.00    -0.126 OA
ENDBRANCH  32  35
ENDBRANCH  10  29
TORSDOF 5
