REMARK  Name = ZINC13023248
REMARK  12 active torsions:
REMARK  status: ('A' for Active; 'I' for Inactive)
REMARK    1  A    between atoms: C_1  and  C_2
REMARK    2  A    between atoms: C_2  and  O_3
REMARK    3  A    between atoms: O_3  and  C_4
REMARK    4  A    between atoms: C_4  and  C_6
REMARK    5  A    between atoms: C_11  and  C_13
REMARK    6  A    between atoms: C_11  and  C_27
REMARK    7  A    between atoms: C_11  and  N_72
REMARK    8  A    between atoms: C_16  and  C_26
REMARK    9  A    between atoms: C_18  and  C_25
REMARK   10  A    between atoms: N_31  and  C_32
REMARK   11  A    between atoms: C_32  and  C_33
REMARK   12  A    between atoms: C_33  and  C_34
REMARK                            x       y       z     vdW  Elec       q    Type
REMARK                         _______ _______ _______ _____ _____    ______ ____
ROOT
ATOM      1  C   UNL     1       4.873   4.287  -0.025  0.00  0.00    +0.039 C 
ENDROOT
BRANCH   1   2
ATOM      2  C   UNL     1       3.670   3.385   0.080  0.00  0.00    +0.011 A 
ATOM      3  C   UNL     1       3.838   2.041   0.146  0.00  0.00    +0.018 A 
ATOM      4  C   UNL     1       2.650   1.192   0.247  0.00  0.00    +0.002 A 
ATOM      5  C   UNL     1       2.759  -0.201   0.319  0.00  0.00    -0.041 A 
ATOM      6  C   UNL     1       1.631  -0.965   0.412  0.00  0.00    +0.007 A 
ATOM      7  C   UNL     1       0.376  -0.371   0.436  0.00  0.00    -0.048 A 
ATOM      8  C   UNL     1       0.244   0.999   0.367  0.00  0.00    +0.029 A 
ATOM      9  C   UNL     1       1.379   1.797   0.272  0.00  0.00    +0.050 A 
ATOM     10  N   UNL     1       1.276   3.170   0.201  0.00  0.00    -0.322 N 
ATOM     11  H   UNL     1       0.400   3.586   0.218  0.00  0.00    +0.169 HD
ATOM     12  C   UNL     1       2.374   3.942   0.108  0.00  0.00    +0.251 A 
ATOM     13  O   UNL     1       2.245   5.152   0.047  0.00  0.00    -0.268 OA
ATOM     14  C   UNL     1      -0.855  -1.235   0.539  0.00  0.00    +0.044 C 
ATOM     15  C   UNL     1       4.116  -0.855   0.293  0.00  0.00    +0.044 C 
ENDBRANCH   1   2
BRANCH   1  21
ATOM     16  C   UNL     1       5.740   6.745   3.365  0.00  0.00    +0.094 C 
ATOM     17  C   UNL     1       4.594   5.732   3.441  0.00  0.00    -0.004 C 
ATOM     18  C   UNL     1       4.793   4.662   2.366  0.00  0.00    -0.077 C 
ATOM     19  C   UNL     1       5.943   6.239   0.928  0.00  0.00    -0.077 C 
ATOM     20  C   UNL     1       5.778   7.356   1.961  0.00  0.00    -0.004 C 
ATOM     21  N   UNL     1       4.796   5.311   1.038  0.00  0.00    +0.389 N 
ATOM     22  H   UNL     1       3.925   5.844   0.925  0.00  0.00    -0.080 HD
BRANCH  16  23
ATOM     23  C   UNL     1       5.518   7.834   4.383  0.00  0.00    +0.310 C 
ATOM     24  O   UNL     1       4.544   7.804   5.098  0.00  0.00    -0.251 OA
BRANCH  23  25
ATOM     25  O   UNL     1       6.403   8.837   4.496  0.00  0.00    -0.465 OA
BRANCH  25  27
ATOM     26  C   UNL     1       7.236  10.903   5.480  0.00  0.00    +0.048 C 
ATOM     27  C   UNL     1       6.126   9.850   5.498  0.00  0.00    +0.229 C 
ENDBRANCH  25  27
ENDBRANCH  23  25
ENDBRANCH  16  23
ENDBRANCH   1  21
BRANCH   1  28
ATOM     28  C   UNL     1       4.871   4.974  -1.366  0.00  0.00    +0.142 A 
ATOM     29  N   UNL     1       4.095   5.963  -1.738  0.00  0.00    -0.115 NA
ATOM     30  N   UNL     1       4.399   6.272  -2.952  0.00  0.00    -0.023 NA
ATOM     31  N   UNL     1       5.342   5.500  -3.366  0.00  0.00    -0.044 NA
ATOM     32  N   UNL     1       5.661   4.686  -2.417  0.00  0.00    -0.230 N 
BRANCH  32  33
ATOM     33  C   UNL     1       6.690   3.645  -2.473  0.00  0.00    +0.152 C 
BRANCH  33  34
ATOM     34  C   UNL     1       6.067   2.339  -2.972  0.00  0.00    +0.058 C 
BRANCH  34  35
ATOM     35  C   UNL     1       7.125   1.268  -3.030  0.00  0.00    -0.046 A 
ATOM     36  C   UNL     1       7.860   1.083  -4.186  0.00  0.00    +0.004 A 
ATOM     37  C   UNL     1       8.834   0.104  -4.237  0.00  0.00    +0.000 A 
ATOM     38  C   UNL     1       9.067  -0.698  -3.136  0.00  0.00    +0.000 A 
ATOM     39  C   UNL     1       8.328  -0.517  -1.981  0.00  0.00    +0.000 A 
ATOM     40  C   UNL     1       7.358   0.466  -1.928  0.00  0.00    +0.004 A 
ENDBRANCH  34  35
ENDBRANCH  33  34
ENDBRANCH  32  33
ENDBRANCH   1  28
TORSDOF 9
