REMARK  Name = ZINC02769388
REMARK  9 active torsions:
REMARK  status: ('A' for Active; 'I' for Inactive)
REMARK    1  A    between atoms: C_1  and  C_2
REMARK    2  A    between atoms: C_2  and  O_3
REMARK    3  A    between atoms: O_3  and  C_4
REMARK    4  A    between atoms: C_4  and  C_6
REMARK    5  A    between atoms: C_7  and  N_32
REMARK    6  A    between atoms: C_11  and  C_13
REMARK    7  A    between atoms: C_16  and  C_18
REMARK    8  A    between atoms: C_18  and  O_19
REMARK    9  A    between atoms: O_19  and  C_20
REMARK                            x       y       z     vdW  Elec       q    Type
REMARK                         _______ _______ _______ _____ _____    ______ ____
ROOT
ATOM      1  C   UNL     1      -1.279   5.196   1.275  0.00  0.00    +0.108 C 
ATOM      2  C   UNL     1      -0.667   6.401   1.171  0.00  0.00    +0.195 C 
ATOM      3  O   UNL     1      -0.158   6.824   0.005  0.00  0.00    -0.446 OA
ATOM      4  C   UNL     1      -0.608   6.301  -1.152  0.00  0.00    +0.115 C 
ATOM      5  C   UNL     1      -1.207   5.097  -1.189  0.00  0.00    +0.048 C 
ATOM      6  C   UNL     1      -1.409   4.299   0.076  0.00  0.00    +0.133 C 
ATOM      7  C   UNL     1      -1.660   4.542  -2.402  0.00  0.00    +0.163 C 
ATOM      8  O   UNL     1      -2.210   3.460  -2.394  0.00  0.00    -0.292 OA
ATOM      9  C   UNL     1      -1.474   5.267  -3.708  0.00  0.00    +0.080 C 
ATOM     10  C   UNL     1      -0.235   6.163  -3.605  0.00  0.00    +0.016 C 
ATOM     11  C   UNL     1      -0.417   7.107  -2.415  0.00  0.00    +0.075 C 
ENDROOT
BRANCH   6  12
ATOM     12  C   UNL     1      -0.371   3.209   0.152  0.00  0.00    +0.118 A 
ATOM     13  C   UNL     1      -0.620   1.888   0.194  0.00  0.00    +0.046 A 
ATOM     14  C   UNL     1       0.634   1.238   0.264  0.00  0.00    +0.048 A 
ATOM     15  C   UNL     1       1.573   2.200   0.252  0.00  0.00    +0.142 A 
ATOM     16  O   UNL     1       0.959   3.393   0.183  0.00  0.00    -0.460 OA
BRANCH  15  17
ATOM     17  C   UNL     1       3.063   1.979   0.304  0.00  0.00    +0.303 C 
BRANCH  17  18
ATOM     18  O   UNL     1       3.573   1.853  -1.025  0.00  0.00    -0.484 OA
BRANCH  18  19
ATOM     19  C   UNL     1       4.910   1.647  -1.156  0.00  0.00    +0.122 A 
ATOM     20  C   UNL     1       5.715   1.574  -0.028  0.00  0.00    +0.046 A 
ATOM     21  C   UNL     1       7.074   1.360  -0.163  0.00  0.00    +0.005 A 
ATOM     22  C   UNL     1       7.632   1.229  -1.421  0.00  0.00    +0.015 A 
ATOM     23  C   UNL     1       6.833   1.307  -2.547  0.00  0.00    +0.021 A 
ATOM     24  C   UNL     1       5.472   1.516  -2.417  0.00  0.00    +0.061 A 
ATOM     25 BR   UNL     1       7.601   1.128  -4.266  0.00  0.00    -0.050 Br
ENDBRANCH  18  19
ENDBRANCH  17  18
ENDBRANCH  15  17
ENDBRANCH   6  12
BRANCH   2  26
ATOM     26  N   UNL     1      -0.564   7.201   2.277  0.00  0.00    -0.329 N 
ATOM     27  H   UNL     1      -0.054   8.025   2.235  0.00  0.00    +0.145 HD
ATOM     28  H   UNL     1      -1.002   6.944   3.104  0.00  0.00    +0.145 HD
ENDBRANCH   2  26
BRANCH   1  29
ATOM     29  C   UNL     1      -1.795   4.785   2.514  0.00  0.00    +0.341 C 
ATOM     30  O   UNL     1      -2.990   4.868   2.734  0.00  0.00    -0.245 OA
BRANCH  29  31
ATOM     31  O   UNL     1      -0.967   4.297   3.462  0.00  0.00    -0.462 OA
BRANCH  31  33
ATOM     32  C   UNL     1      -0.474   3.375   5.641  0.00  0.00    +0.048 C 
ATOM     33  C   UNL     1      -1.560   3.897   4.699  0.00  0.00    +0.229 C 
ENDBRANCH  31  33
ENDBRANCH  29  31
ENDBRANCH   1  29
TORSDOF 8
