REMARK  Name = ZINC39948793
REMARK  7 active torsions:
REMARK  status: ('A' for Active; 'I' for Inactive)
REMARK    1  A    between atoms: C_1  and  C_2
REMARK    2  A    between atoms: N_8  and  C_9
REMARK    3  A    between atoms: C_9  and  C_10
REMARK    4  A    between atoms: C_11  and  C_21
REMARK    5  A    between atoms: N_23  and  N_24
REMARK    6  A    between atoms: C_25  and  C_26
REMARK    7  A    between atoms: C_35  and  O_36
REMARK                            x       y       z     vdW  Elec       q    Type
REMARK                         _______ _______ _______ _____ _____    ______ ____
ROOT
ATOM      1  C   UNL     1       3.056  -0.103   2.398  0.00  0.00    +0.063 A 
ATOM      2  C   UNL     1       2.959   0.527   3.606  0.00  0.00    +0.170 A 
ATOM      3  N   UNL     1       3.675  -0.168   4.507  0.00  0.00    -0.124 NA
ATOM      4  N   UNL     1       4.211  -1.190   3.937  0.00  0.00    -0.058 NA
ATOM      5  N   UNL     1       3.836  -1.191   2.586  0.00  0.00    -0.194 N 
ATOM      6  C   UNL     1       4.200  -2.135   1.619  0.00  0.00    +0.240 A 
ATOM      7  C   UNL     1       5.043  -3.312   1.845  0.00  0.00    +0.206 A 
ATOM      8  N   UNL     1       5.162  -3.954   0.715  0.00  0.00    -0.032 NA
ATOM      9  O   UNL     1       4.426  -3.245  -0.266  0.00  0.00    -0.239 OA
ATOM     10  N   UNL     1       3.843  -2.119   0.366  0.00  0.00    -0.027 NA
ATOM     11  N   UNL     1       5.617  -3.683   3.056  0.00  0.00    -0.337 N 
ATOM     12  H   UNL     1       5.472  -3.140   3.847  0.00  0.00    +0.144 HD
ATOM     13  H   UNL     1       6.163  -4.483   3.109  0.00  0.00    +0.144 HD
ENDROOT
BRANCH   2  14
ATOM     14  C   UNL     1       2.199   1.762   3.876  0.00  0.00    +0.285 C 
ATOM     15  O   UNL     1       1.586   2.307   2.978  0.00  0.00    -0.267 OA
ATOM     16  N   UNL     1       2.183   2.286   5.117  0.00  0.00    -0.202 N 
ATOM     17  H   UNL     1       2.673   1.851   5.833  0.00  0.00    +0.178 HD
BRANCH  16  18
ATOM     18  N   UNL     1       1.461   3.459   5.374  0.00  0.00    -0.187 NA
ATOM     19  C   UNL     1       1.371   3.914   6.588  0.00  0.00    +0.142 C 
BRANCH  19  20
ATOM     20  C   UNL     1       2.138   3.280   7.670  0.00  0.00    +0.044 A 
ATOM     21  C   UNL     1       1.465   2.765   8.861  0.00  0.00    -0.006 A 
ATOM     22  C   UNL     1       0.076   2.856   9.011  0.00  0.00    +0.009 A 
ATOM     23  C   UNL     1      -0.513   2.364  10.138  0.00  0.00    +0.001 A 
ATOM     24  C   UNL     1       0.248   1.770  11.142  0.00  0.00    +0.001 A 
ATOM     25  C   UNL     1       1.601   1.665  11.027  0.00  0.00    +0.008 A 
ATOM     26  C   UNL     1       2.242   2.163   9.879  0.00  0.00    -0.017 A 
ATOM     27  C   UNL     1       3.637   2.072   9.726  0.00  0.00    +0.012 A 
ATOM     28  C   UNL     1       4.247   2.556   8.611  0.00  0.00    +0.046 A 
ATOM     29  C   UNL     1       3.524   3.152   7.579  0.00  0.00    +0.126 A 
BRANCH  29  30
ATOM     30  O   UNL     1       4.174   3.617   6.481  0.00  0.00    -0.506 OA
ATOM     31  H   UNL     1       4.393   4.558   6.523  0.00  0.00    +0.292 HD
ENDBRANCH  29  30
ENDBRANCH  19  20
ENDBRANCH  16  18
ENDBRANCH   2  14
BRANCH   1  32
ATOM     32  C   UNL     1       2.412   0.328   1.105  0.00  0.00    -0.019 C 
BRANCH  32  39
ATOM     33  C   UNL     1       0.338   1.758  -0.135  0.00  0.00    -0.013 C 
ATOM     34  C   UNL     1       0.406   0.231  -0.204  0.00  0.00    -0.071 C 
ATOM     35  C   UNL     1      -1.012  -0.340  -0.280  0.00  0.00    -0.016 C 
ATOM     36  C   UNL     1      -0.938  -1.868  -0.349  0.00  0.00    -0.003 C 
ATOM     37  C   UNL     1      -0.167  -2.388   0.868  0.00  0.00    -0.019 C 
ATOM     38  C   UNL     1       1.219  -1.741   0.901  0.00  0.00    -0.078 C 
ATOM     39  N   UNL     1       1.080  -0.283   0.995  0.00  0.00    +0.385 N 
ATOM     40  H   UNL     1       0.536  -0.049   1.811  0.00  0.00    -0.081 HD
ENDBRANCH  32  39
ENDBRANCH   1  32
TORSDOF 6
