REMARK  Name = ZINC12489673
REMARK  9 active torsions:
REMARK  status: ('A' for Active; 'I' for Inactive)
REMARK    1  A    between atoms: C_4  and  C_7
REMARK    2  A    between atoms: C_7  and  C_9
REMARK    3  A    between atoms: C_7  and  N_19
REMARK    4  A    between atoms: N_11  and  C_12
REMARK    5  A    between atoms: C_12  and  C_13
REMARK    6  A    between atoms: N_19  and  C_20
REMARK    7  A    between atoms: C_27  and  C_29
REMARK    8  A    between atoms: C_29  and  N_30
REMARK    9  A    between atoms: C_31  and  C_33
REMARK                            x       y       z     vdW  Elec       q    Type
REMARK                         _______ _______ _______ _____ _____    ______ ____
ROOT
ATOM      1  N   UNL     1      -0.458   1.578   2.427  0.00  0.00    -0.254 N 
ATOM      2  C   UNL     1      -1.199   1.062   1.427  0.00  0.00    +0.238 C 
ATOM      3  O   UNL     1      -2.272   0.551   1.668  0.00  0.00    -0.274 OA
ENDROOT
BRANCH   1   4
ATOM      4  C   UNL     1       0.729   2.261   2.138  0.00  0.00    +0.039 A 
ATOM      5  C   UNL     1       0.806   3.635   2.330  0.00  0.00    +0.023 A 
ATOM      6  C   UNL     1       1.980   4.306   2.049  0.00  0.00    +0.003 A 
ATOM      7  C   UNL     1       3.076   3.613   1.567  0.00  0.00    +0.020 A 
ATOM      8  C   UNL     1       3.001   2.246   1.369  0.00  0.00    +0.043 A 
ATOM      9  C   UNL     1       1.830   1.568   1.654  0.00  0.00    +0.043 A 
ATOM     10 CL   UNL     1       4.379   1.381   0.763  0.00  0.00    -0.083 Cl
ENDBRANCH   1   4
BRANCH   1  11
ATOM     11  C   UNL     1      -0.894   1.424   3.817  0.00  0.00    +0.197 C 
BRANCH  11  15
ATOM     12  C   UNL     1       1.714   3.629   6.383  0.00  0.00    +0.000 A 
ATOM     13  C   UNL     1       0.352   3.869   6.410  0.00  0.00    +0.000 A 
ATOM     14  C   UNL     1      -0.491   3.155   5.580  0.00  0.00    +0.006 A 
ATOM     15  C   UNL     1       0.026   2.202   4.722  0.00  0.00    -0.018 A 
ATOM     16  C   UNL     1       1.386   1.960   4.698  0.00  0.00    +0.006 A 
ATOM     17  C   UNL     1       2.231   2.677   5.525  0.00  0.00    +0.000 A 
ENDBRANCH  11  15
BRANCH  11  18
ATOM     18  C   UNL     1      -0.857  -0.034   4.197  0.00  0.00    +0.239 C 
ATOM     19  O   UNL     1      -0.501  -0.862   3.386  0.00  0.00    -0.273 OA
ATOM     20  N   UNL     1      -1.220  -0.417   5.437  0.00  0.00    -0.311 N 
ATOM     21  H   UNL     1      -1.505   0.246   6.085  0.00  0.00    +0.149 HD
BRANCH  20  22
ATOM     22  C   UNL     1      -1.184  -1.834   5.806  0.00  0.00    +0.135 C 
BRANCH  22  23
ATOM     23  C   UNL     1      -1.640  -1.995   7.257  0.00  0.00    +0.135 C 
ATOM     24  C   UNL     1      -1.606  -3.483   7.655  0.00  0.00    +0.035 C 
ATOM     25  C   UNL     1      -0.642  -3.530   8.866  0.00  0.00    +0.031 C 
ATOM     26  C   UNL     1      -0.665  -2.060   9.357  0.00  0.00    +0.160 C 
ATOM     27  O   UNL     1      -0.739  -1.297   8.133  0.00  0.00    -0.375 OA
ENDBRANCH  22  23
ENDBRANCH  20  22
ENDBRANCH  11  18
ENDBRANCH   1  11
BRANCH   2  28
ATOM     28  C   UNL     1      -0.694   1.121   0.008  0.00  0.00    +0.201 C 
BRANCH  28  29
ATOM     29  N   UNL     1      -1.621   0.402  -0.870  0.00  0.00    -0.302 N 
ATOM     30  C   UNL     1      -1.372   0.322  -2.192  0.00  0.00    +0.251 C 
ATOM     31  O   UNL     1      -0.377   0.847  -2.657  0.00  0.00    -0.270 OA
ATOM     32  H   UNL     1      -2.413  -0.017  -0.499  0.00  0.00    +0.150 HD
BRANCH  30  33
ATOM     33  C   UNL     1      -2.299  -0.398  -3.070  0.00  0.00    +0.074 A 
ATOM     34  C   UNL     1      -2.229  -0.596  -4.440  0.00  0.00    +0.021 A 
ATOM     35  C   UNL     1      -3.242  -1.317  -5.021  0.00  0.00    +0.008 A 
ATOM     36  C   UNL     1      -4.247  -1.795  -4.240  0.00  0.00    +0.046 A 
ATOM     37  S   UNL     1      -3.807  -1.255  -2.653  0.00  0.00    -0.092 S 
ENDBRANCH  30  33
ENDBRANCH  28  29
ENDBRANCH   2  28
TORSDOF 9
