REMARK  Name = ZINC13033660
REMARK  10 active torsions:
REMARK  status: ('A' for Active; 'I' for Inactive)
REMARK    1  A    between atoms: C_1  and  C_2
REMARK    2  A    between atoms: C_2  and  C_3
REMARK    3  A    between atoms: C_2  and  C_4
REMARK    4  A    between atoms: C_2  and  N_5
REMARK    5  A    between atoms: C_6  and  C_10
REMARK    6  A    between atoms: C_10  and  N_62
REMARK    7  A    between atoms: C_11  and  C_12
REMARK    8  A    between atoms: C_11  and  N_62
REMARK    9  A    between atoms: C_19  and  C_20
REMARK   10  A    between atoms: C_19  and  N_62
REMARK                            x       y       z     vdW  Elec       q    Type
REMARK                         _______ _______ _______ _____ _____    ______ ____
ROOT
ATOM      1  N   UNL     1      -1.236   1.316   0.698  0.00  0.00    +0.390 N 
ATOM      2  H   UNL     1      -1.728   2.184   0.455  0.00  0.00    -0.080 HD
ENDROOT
BRANCH   1   3
ATOM      3  C   UNL     1      -0.306   0.969  -0.397  0.00  0.00    +0.001 C 
BRANCH   3   5
ATOM      4  N   UNL     1      -1.214   1.884  -2.598  0.00  0.00    -0.226 N 
ATOM      5  C   UNL     1      -1.079   0.900  -1.690  0.00  0.00    +0.136 A 
ATOM      6  N   UNL     1      -1.744  -0.131  -2.150  0.00  0.00    -0.115 NA
ATOM      7  N   UNL     1      -2.268   0.205  -3.278  0.00  0.00    -0.023 NA
ATOM      8  N   UNL     1      -1.947   1.421  -3.553  0.00  0.00    -0.043 NA
BRANCH   4  10
ATOM      9  C   UNL     1       0.889   3.134  -2.587  0.00  0.00    +0.036 C 
ATOM     10  C   UNL     1      -0.637   3.228  -2.517  0.00  0.00    +0.059 C 
ATOM     11  C   UNL     1      -1.149   4.074  -3.684  0.00  0.00    +0.036 C 
ATOM     12  C   UNL     1      -1.047   3.881  -1.196  0.00  0.00    +0.036 C 
ENDBRANCH   4  10
ENDBRANCH   3   5
ENDBRANCH   1   3
BRANCH   1  13
ATOM     13  C   UNL     1      -2.229   0.236   0.878  0.00  0.00    -0.042 C 
BRANCH  13  14
ATOM     14  C   UNL     1      -3.361   0.756   1.728  0.00  0.00    -0.064 A 
ATOM     15  C   UNL     1      -3.373   0.508   3.088  0.00  0.00    +0.004 A 
ATOM     16  C   UNL     1      -4.408   0.988   3.868  0.00  0.00    +0.038 A 
ATOM     17  C   UNL     1      -5.437   1.708   3.286  0.00  0.00    +0.123 A 
ATOM     18  C   UNL     1      -5.426   1.951   1.923  0.00  0.00    +0.038 A 
ATOM     19  C   UNL     1      -4.388   1.475   1.145  0.00  0.00    +0.004 A 
ATOM     20  F   UNL     1      -6.451   2.174   4.047  0.00  0.00    -0.205 F 
ENDBRANCH  13  14
ENDBRANCH   1  13
BRANCH   1  21
ATOM     21  C   UNL     1      -0.484   1.525   1.952  0.00  0.00    -0.036 C 
BRANCH  21  22
ATOM     22  C   UNL     1       0.359   2.766   1.812  0.00  0.00    +0.001 A 
ATOM     23  C   UNL     1      -0.119   3.961   2.244  0.00  0.00    +0.017 A 
ATOM     24  C   UNL     1       0.726   5.146   2.099  0.00  0.00    +0.002 A 
ATOM     25  C   UNL     1       0.287   6.404   2.530  0.00  0.00    +0.059 A 
ATOM     26  C   UNL     1       1.103   7.504   2.376  0.00  0.00    +0.163 A 
ATOM     27  C   UNL     1       2.365   7.367   1.791  0.00  0.00    +0.164 A 
ATOM     28  C   UNL     1       2.807   6.128   1.361  0.00  0.00    +0.075 A 
ATOM     29  C   UNL     1       1.997   5.010   1.508  0.00  0.00    +0.053 A 
ATOM     30  N   UNL     1       2.421   3.767   1.084  0.00  0.00    -0.322 N 
ATOM     31  H   UNL     1       3.297   3.674   0.677  0.00  0.00    +0.169 HD
ATOM     32  C   UNL     1       1.639   2.683   1.227  0.00  0.00    +0.251 A 
ATOM     33  O   UNL     1       2.047   1.601   0.841  0.00  0.00    -0.268 OA
ATOM     34  O   UNL     1       3.179   8.448   1.639  0.00  0.00    -0.485 OA
ATOM     35  C   UNL     1       2.563   9.736   1.736  0.00  0.00    +0.270 C 
ATOM     36  C   UNL     1       1.650   9.742   2.969  0.00  0.00    +0.270 C 
ATOM     37  O   UNL     1       0.660   8.721   2.798  0.00  0.00    -0.485 OA
ENDBRANCH  21  22
ENDBRANCH   1  21
TORSDOF 7
