REMARK  Name = ZINC38626573
REMARK  14 active torsions:
REMARK  status: ('A' for Active; 'I' for Inactive)
REMARK    1  A    between atoms: C_1  and  C_2
REMARK    2  A    between atoms: C_2  and  O_3
REMARK    3  A    between atoms: O_3  and  C_4
REMARK    4  A    between atoms: C_4  and  C_6
REMARK    5  A    between atoms: C_8  and  N_20
REMARK    6  A    between atoms: C_11  and  O_18
REMARK    7  A    between atoms: C_12  and  O_16
REMARK    8  A    between atoms: O_16  and  C_17
REMARK    9  A    between atoms: O_18  and  C_19
REMARK   10  A    between atoms: C_21  and  C_23
REMARK   11  A    between atoms: C_23  and  C_25
REMARK   12  A    between atoms: C_23  and  N_26
REMARK   13  A    between atoms: C_28  and  C_35
REMARK   14  A    between atoms: C_31  and  C_34
REMARK                            x       y       z     vdW  Elec       q    Type
REMARK                         _______ _______ _______ _____ _____    ______ ____
ROOT
ATOM      1  C   UNL     1       0.488  -3.683  -4.011  0.00  0.00    +0.234 C 
ATOM      2  C   UNL     1       0.102  -2.385  -3.338  0.00  0.00    +0.053 C 
ATOM      3  C   UNL     1       0.390  -2.555  -1.999  0.00  0.00    +0.021 A 
ATOM      4  C   UNL     1       0.249  -1.699  -0.876  0.00  0.00    +0.061 A 
ATOM      5  C   UNL     1       0.621  -2.135   0.353  0.00  0.00    +0.162 A 
ATOM      6  C   UNL     1       1.148  -3.426   0.546  0.00  0.00    +0.163 A 
ATOM      7  C   UNL     1       1.310  -4.295  -0.488  0.00  0.00    +0.075 A 
ATOM      8  C   UNL     1       0.942  -3.907  -1.799  0.00  0.00    +0.049 A 
ATOM      9  N   UNL     1       0.998  -4.556  -2.949  0.00  0.00    -0.367 N 
ATOM     10  H   UNL     1       1.324  -5.461  -3.071  0.00  0.00    +0.161 HD
ENDROOT
BRANCH   2  11
ATOM     11  N   UNL     1      -0.423  -1.274  -3.933  0.00  0.00    -0.288 N 
ATOM     12  C   UNL     1      -0.771  -1.307  -5.235  0.00  0.00    +0.203 C 
ATOM     13  O   UNL     1      -0.715  -2.350  -5.851  0.00  0.00    -0.277 OA
ATOM     14  H   UNL     1      -0.545  -0.461  -3.419  0.00  0.00    +0.155 HD
BRANCH  12  15
ATOM     15  C   UNL     1      -1.230  -0.048  -5.924  0.00  0.00    +0.016 C 
ATOM     16  C   UNL     1      -0.013   0.722  -6.443  0.00  0.00    -0.004 C 
BRANCH  15  17
ATOM     17  N   UNL     1      -2.104  -0.398  -7.052  0.00  0.00    +0.387 N 
ATOM     18  C   UNL     1      -2.457   0.819  -7.792  0.00  0.00    -0.075 C 
ATOM     19  C   UNL     1      -3.301   0.451  -9.014  0.00  0.00    -0.031 C 
ATOM     20  C   UNL     1      -4.579  -0.254  -8.551  0.00  0.00    +0.003 C 
ATOM     21  C   UNL     1      -4.199  -1.481  -7.717  0.00  0.00    -0.031 C 
ATOM     22  C   UNL     1      -3.321  -1.042  -6.543  0.00  0.00    -0.075 C 
ATOM     23  C   UNL     1      -5.468  -2.150  -7.185  0.00  0.00    +0.005 C 
ATOM     24  C   UNL     1      -3.668   1.722  -9.783  0.00  0.00    +0.005 C 
ATOM     25  H   UNL     1      -1.620  -1.035  -7.667  0.00  0.00    -0.081 HD
ENDBRANCH  15  17
ENDBRANCH  12  15
ENDBRANCH   2  11
BRANCH   1  26
ATOM     26  C   UNL     1       1.561  -3.436  -5.040  0.00  0.00    +0.336 C 
ATOM     27  O   UNL     1       2.710  -3.296  -4.692  0.00  0.00    -0.248 OA
BRANCH  26  28
ATOM     28  O   UNL     1       1.241  -3.371  -6.342  0.00  0.00    -0.463 OA
BRANCH  28  30
ATOM     29  C   UNL     1       1.755  -3.093  -8.687  0.00  0.00    +0.048 C 
ATOM     30  C   UNL     1       2.309  -3.134  -7.261  0.00  0.00    +0.229 C 
ENDBRANCH  28  30
ENDBRANCH  26  28
ENDBRANCH   1  26
BRANCH   6  31
ATOM     31  O   UNL     1       1.506  -3.813   1.796  0.00  0.00    -0.491 OA
ATOM     32  C   UNL     1       2.036  -5.133   1.940  0.00  0.00    +0.277 C 
ENDBRANCH   6  31
BRANCH   5  33
ATOM     33  O   UNL     1       0.481  -1.306   1.423  0.00  0.00    -0.491 OA
ATOM     34  C   UNL     1      -0.059  -0.007   1.171  0.00  0.00    +0.277 C 
ENDBRANCH   5  33
TORSDOF 8
