REMARK  Name = ZINC48288097
REMARK  9 active torsions:
REMARK  status: ('A' for Active; 'I' for Inactive)
REMARK    1  A    between atoms: C_1  and  C_2
REMARK    2  A    between atoms: N_5  and  C_8
REMARK    3  A    between atoms: C_8  and  C_10
REMARK    4  A    between atoms: C_8  and  C_29
REMARK    5  A    between atoms: C_10  and  N_11
REMARK    6  A    between atoms: N_11  and  S_12
REMARK    7  A    between atoms: S_12  and  C_15
REMARK    8  A    between atoms: C_18  and  S_21
REMARK    9  A    between atoms: S_21  and  N_24
REMARK                            x       y       z     vdW  Elec       q    Type
REMARK                         _______ _______ _______ _____ _____    ______ ____
ROOT
ATOM      1  N   UNL     1       1.256  -3.634   2.781  0.00  0.00    -0.191 NA
ATOM      2  H   UNL     1       1.615  -3.216   1.983  0.00  0.00    +0.148 HD
ENDROOT
BRANCH   1   3
ATOM      3  S   UNL     1       2.127  -3.612   4.189  0.00  0.00    +0.058 S 
ATOM      4  O   UNL     1       3.347  -2.943   3.902  0.00  0.00    -0.153 OA
ATOM      5  O   UNL     1       1.239  -3.174   5.209  0.00  0.00    -0.153 OA
BRANCH   3   6
ATOM      6  C   UNL     1       2.545  -5.281   4.569  0.00  0.00    +0.105 A 
ATOM      7  C   UNL     1       1.694  -6.049   5.341  0.00  0.00    +0.030 A 
ATOM      8  C   UNL     1       2.022  -7.358   5.639  0.00  0.00    +0.030 A 
ATOM      9  C   UNL     1       3.202  -7.900   5.164  0.00  0.00    +0.106 A 
ATOM     10  C   UNL     1       4.053  -7.133   4.391  0.00  0.00    +0.030 A 
ATOM     11  C   UNL     1       3.723  -5.825   4.090  0.00  0.00    +0.030 A 
BRANCH   9  12
ATOM     12  S   UNL     1       3.621  -9.569   5.544  0.00  0.00    +0.061 S 
ATOM     13  O   UNL     1       5.035  -9.667   5.437  0.00  0.00    -0.153 OA
ATOM     14  O   UNL     1       2.922  -9.902   6.736  0.00  0.00    -0.153 OA
BRANCH  12  15
ATOM     15  N   UNL     1       2.989 -10.518   4.344  0.00  0.00    -0.177 NA
ATOM     16  C   UNL     1       1.646 -11.117   4.343  0.00  0.00    +0.109 C 
ATOM     17  C   UNL     1       1.510 -11.934   3.041  0.00  0.00    +0.018 C 
ATOM     18  C   UNL     1       2.985 -12.213   2.649  0.00  0.00    +0.018 C 
ATOM     19  C   UNL     1       3.677 -10.898   3.096  0.00  0.00    +0.109 C 
ENDBRANCH  12  15
ENDBRANCH   9  12
ENDBRANCH   3   6
ENDBRANCH   1   3
BRANCH   1  20
ATOM     20  C   UNL     1      -0.056  -4.284   2.741  0.00  0.00    +0.095 C 
BRANCH  20  21
ATOM     21  C   UNL     1      -0.816  -3.825   1.495  0.00  0.00    -0.022 C 
BRANCH  21  26
ATOM     22  C   UNL     1      -6.399  -4.986   1.466  0.00  0.00    +0.007 C 
ATOM     23  C   UNL     1      -5.055  -4.255   1.459  0.00  0.00    -0.018 C 
ATOM     24  C   UNL     1      -4.244  -4.688   0.234  0.00  0.00    -0.015 C 
ATOM     25  C   UNL     1      -2.870  -4.014   0.275  0.00  0.00    -0.078 C 
ATOM     26  N   UNL     1      -2.162  -4.411   1.498  0.00  0.00    +0.385 N 
ATOM     27  C   UNL     1      -2.899  -3.936   2.676  0.00  0.00    -0.078 C 
ATOM     28  C   UNL     1      -4.273  -4.607   2.727  0.00  0.00    -0.015 C 
ATOM     29  H   UNL     1      -2.089  -5.417   1.531  0.00  0.00    -0.081 HD
ENDBRANCH  21  26
BRANCH  21  30
ATOM     30  C   UNL     1      -0.075  -4.273   0.262  0.00  0.00    -0.060 A 
ATOM     31  C   UNL     1      -0.205  -5.574  -0.188  0.00  0.00    +0.002 A 
ATOM     32  C   UNL     1       0.474  -5.986  -1.319  0.00  0.00    +0.000 A 
ATOM     33  C   UNL     1       1.283  -5.096  -2.002  0.00  0.00    +0.000 A 
ATOM     34  C   UNL     1       1.412  -3.795  -1.553  0.00  0.00    +0.000 A 
ATOM     35  C   UNL     1       0.730  -3.382  -0.424  0.00  0.00    +0.002 A 
ENDBRANCH  21  30
ENDBRANCH  20  21
ENDBRANCH   1  20
TORSDOF 8
