REMARK  Name = ZINC10957474
REMARK  5 active torsions:
REMARK  status: ('A' for Active; 'I' for Inactive)
REMARK    1  A    between atoms: C_1  and  C_2
REMARK    2  A    between atoms: C_4  and  C_14
REMARK    3  A    between atoms: C_14  and  O_16
REMARK    4  A    between atoms: O_16  and  C_17
REMARK    5  A    between atoms: C_17  and  C_18
REMARK                            x       y       z     vdW  Elec       q    Type
REMARK                         _______ _______ _______ _____ _____    ______ ____
ROOT
ATOM      1  C   UNL     1       1.229   2.979  -1.520  0.00  0.00    +0.258 C 
ATOM      2  O   UNL     1       1.484   2.850  -0.341  0.00  0.00    -0.271 OA
ATOM      3  N   UNL     1       0.119   2.414  -2.035  0.00  0.00    -0.252 N 
ATOM      4  C   UNL     1      -0.385   2.803  -3.288  0.00  0.00    +0.059 A 
ATOM      5  C   UNL     1      -0.203   4.088  -3.765  0.00  0.00    +0.025 A 
ATOM      6  C   UNL     1      -0.722   4.441  -4.998  0.00  0.00    +0.002 A 
ATOM      7  C   UNL     1      -1.421   3.514  -5.750  0.00  0.00    +0.002 A 
ATOM      8  C   UNL     1      -1.601   2.226  -5.280  0.00  0.00    +0.025 A 
ATOM      9  C   UNL     1      -1.079   1.861  -4.050  0.00  0.00    +0.055 A 
ATOM     10  N   UNL     1      -1.225   0.555  -3.569  0.00  0.00    -0.282 N 
ATOM     11  C   UNL     1      -1.020   0.280  -2.264  0.00  0.00    +0.241 C 
ATOM     12  O   UNL     1      -1.166  -0.854  -1.858  0.00  0.00    -0.273 OA
ATOM     13  C   UNL     1      -0.611   1.367  -1.310  0.00  0.00    +0.118 C 
ATOM     14  C   UNL     1       0.271   0.791  -0.194  0.00  0.00    +0.036 C 
ATOM     15  C   UNL     1      -0.468   1.065   1.133  0.00  0.00    +0.003 C 
ATOM     16  C   UNL     1      -1.389   2.270   0.813  0.00  0.00    +0.003 C 
ATOM     17  C   UNL     1      -1.854   1.973  -0.635  0.00  0.00    +0.036 C 
ATOM     18  H   UNL     1      -1.474  -0.158  -4.178  0.00  0.00    +0.155 HD
ENDROOT
BRANCH   1  19
ATOM     19  C   UNL     1       2.153   3.772  -2.409  0.00  0.00    +0.328 C 
BRANCH  19  20
ATOM     20  O   UNL     1       3.363   4.102  -1.677  0.00  0.00    -0.453 OA
BRANCH  20  21
ATOM     21  C   UNL     1       4.296   4.811  -2.331  0.00  0.00    +0.352 C 
ATOM     22  O   UNL     1       4.108   5.146  -3.477  0.00  0.00    -0.246 OA
BRANCH  21  25
ATOM     23  C   UNL     1       4.594   7.410  -1.013  0.00  0.00    +0.056 C 
ATOM     24  C   UNL     1       5.275   6.149  -0.476  0.00  0.00    +0.222 C 
ATOM     25  C   UNL     1       5.579   5.191  -1.636  0.00  0.00    +0.321 C 
ATOM     26  O   UNL     1       6.446   5.863  -2.556  0.00  0.00    -0.470 OA
ATOM     27  C   UNL     1       7.508   6.526  -2.022  0.00  0.00    +0.163 A 
ATOM     28  C   UNL     1       8.568   6.886  -2.841  0.00  0.00    +0.049 A 
ATOM     29  C   UNL     1       9.651   7.562  -2.315  0.00  0.00    +0.004 A 
ATOM     30  C   UNL     1       9.682   7.883  -0.970  0.00  0.00    +0.004 A 
ATOM     31  C   UNL     1       8.630   7.526  -0.148  0.00  0.00    +0.049 A 
ATOM     32  C   UNL     1       7.540   6.846  -0.670  0.00  0.00    +0.163 A 
ATOM     33  O   UNL     1       6.513   6.499   0.152  0.00  0.00    -0.481 OA
ENDBRANCH  21  25
ENDBRANCH  20  21
ENDBRANCH  19  20
ENDBRANCH   1  19
TORSDOF 4
