REMARK  Name = ZINC10775621
REMARK  6 active torsions:
REMARK  status: ('A' for Active; 'I' for Inactive)
REMARK    1  A    between atoms: C_1  and  N_54
REMARK    2  A    between atoms: C_7  and  N_12
REMARK    3  A    between atoms: C_8  and  C_9
REMARK    4  A    between atoms: C_13  and  C_15
REMARK    5  A    between atoms: N_21  and  S_22
REMARK    6  A    between atoms: S_22  and  C_25
REMARK                            x       y       z     vdW  Elec       q    Type
REMARK                         _______ _______ _______ _____ _____    ______ ____
ROOT
ATOM      1  N   UNL     1       0.813  -6.282   1.958  0.00  0.00    -0.278 N 
ATOM      2  C   UNL     1       1.912  -6.457   2.718  0.00  0.00    +0.236 C 
ATOM      3  O   UNL     1       2.597  -5.503   3.022  0.00  0.00    -0.274 OA
ATOM      4  H   UNL     1       0.265  -7.044   1.715  0.00  0.00    +0.155 HD
ENDROOT
BRANCH   1  11
ATOM      5  C   UNL     1      -0.665   0.924  -0.449  0.00  0.00    -0.096 C 
ATOM      6  C   UNL     1      -1.925  -1.123  -0.155  0.00  0.00    -0.074 C 
ATOM      7  C   UNL     1      -1.879  -2.631  -0.416  0.00  0.00    +0.018 C 
ATOM      8  C   UNL     1      -0.754  -3.224   0.424  0.00  0.00    -0.027 A 
ATOM      9  C   UNL     1       0.207  -2.421   0.934  0.00  0.00    -0.021 A 
ATOM     10  S   UNL     1       1.279  -3.511   1.825  0.00  0.00    -0.079 S 
ATOM     11  C   UNL     1       0.466  -5.011   1.523  0.00  0.00    +0.084 A 
ATOM     12  C   UNL     1      -0.617  -4.633   0.740  0.00  0.00    +0.068 A 
ATOM     13  C   UNL     1       0.309  -0.938   0.763  0.00  0.00    -0.036 C 
ATOM     14  N   UNL     1      -0.579  -0.549  -0.359  0.00  0.00    +0.381 N 
ATOM     15  H   UNL     1      -0.189  -0.914  -1.236  0.00  0.00    -0.082 HD
BRANCH  12  16
ATOM     16  C   UNL     1      -1.585  -5.620   0.253  0.00  0.00    +0.244 C 
ATOM     17  O   UNL     1      -1.408  -6.169  -0.819  0.00  0.00    -0.270 OA
ATOM     18  N   UNL     1      -2.672  -5.920   0.992  0.00  0.00    -0.325 N 
ATOM     19  H   UNL     1      -2.813  -5.483   1.846  0.00  0.00    +0.145 HD
ATOM     20  H   UNL     1      -3.312  -6.574   0.669  0.00  0.00    +0.145 HD
ENDBRANCH  12  16
ENDBRANCH   1  11
BRANCH   2  21
ATOM     21  C   UNL     1       2.288  -7.837   3.191  0.00  0.00    +0.166 C 
ATOM     22  C   UNL     1       3.652  -8.224   2.610  0.00  0.00    +0.030 C 
ATOM     23  C   UNL     1       4.093  -9.565   3.203  0.00  0.00    +0.003 C 
ATOM     24  C   UNL     1       4.234  -9.431   4.721  0.00  0.00    +0.017 C 
ATOM     25  C   UNL     1       2.877  -9.058   5.325  0.00  0.00    +0.110 C 
ATOM     26  N   UNL     1       2.375  -7.849   4.657  0.00  0.00    -0.164 NA
BRANCH  26  27
ATOM     27  S   UNL     1       1.920  -6.524   5.540  0.00  0.00    +0.068 S 
ATOM     28  O   UNL     1       1.018  -5.785   4.728  0.00  0.00    -0.152 OA
ATOM     29  O   UNL     1       1.567  -6.998   6.833  0.00  0.00    -0.152 OA
BRANCH  27  30
ATOM     30  C   UNL     1       3.352  -5.518   5.746  0.00  0.00    +0.144 A 
ATOM     31  C   UNL     1       3.735  -4.425   5.043  0.00  0.00    +0.038 A 
ATOM     32  C   UNL     1       4.910  -3.784   5.388  0.00  0.00    +0.030 A 
ATOM     33  C   UNL     1       5.650  -4.275   6.414  0.00  0.00    +0.080 A 
ATOM     34  S   UNL     1       4.678  -5.680   6.931  0.00  0.00    -0.057 S 
ATOM     35 CL   UNL     1       7.152  -3.688   7.057  0.00  0.00    -0.076 Cl
ENDBRANCH  27  30
ENDBRANCH  26  27
ENDBRANCH   2  21
TORSDOF 5
