REMARK  Name = ZINC63083988
REMARK  6 active torsions:
REMARK  status: ('A' for Active; 'I' for Inactive)
REMARK    1  A    between atoms: C_1  and  N_2
REMARK    2  A    between atoms: C_7  and  N_21
REMARK    3  A    between atoms: C_9  and  C_11
REMARK    4  A    between atoms: C_11  and  S_12
REMARK    5  A    between atoms: S_12  and  C_13
REMARK    6  A    between atoms: C_17  and  N_19
REMARK                            x       y       z     vdW  Elec       q    Type
REMARK                         _______ _______ _______ _____ _____    ______ ____
ROOT
ATOM      1  C   UNL     1      -0.002  -1.260  -4.748  0.00  0.00    +0.153 C 
ENDROOT
BRANCH   1  10
ATOM      2  C   UNL     1      -0.018   1.461   0.010  0.00  0.00    +0.174 C 
ATOM      3  N   UNL     1       0.002  -0.004   0.002  0.00  0.00    -0.249 N 
ATOM      4  C   UNL     1       0.008  -0.797  -1.107  0.00  0.00    +0.163 A 
ATOM      5  C   UNL     1       0.028  -2.128  -0.648  0.00  0.00    +0.078 A 
ATOM      6  C   UNL     1       0.034  -2.080   0.763  0.00  0.00    +0.148 A 
ATOM      7  N   UNL     1       0.025  -0.831   1.132  0.00  0.00    -0.177 NA
ATOM      8  C   UNL     1       0.038  -3.163  -1.603  0.00  0.00    +0.131 A 
ATOM      9  N   UNL     1       0.027  -2.834  -2.891  0.00  0.00    -0.216 NA
ATOM     10  C   UNL     1       0.009  -1.569  -3.273  0.00  0.00    +0.144 A 
ATOM     11  N   UNL     1      -0.001  -0.570  -2.419  0.00  0.00    -0.212 NA
BRANCH   8  12
ATOM     12  N   UNL     1       0.058  -4.487  -1.212  0.00  0.00    -0.342 N 
ATOM     13  H   UNL     1       0.066  -4.714  -0.269  0.00  0.00    +0.144 HD
ATOM     14  H   UNL     1       0.064  -5.190  -1.880  0.00  0.00    +0.144 HD
ENDBRANCH   8  12
ENDBRANCH   1  10
BRANCH   1  15
ATOM     15  S   UNL     1      -1.716  -1.160  -5.333  0.00  0.00    -0.078 S 
BRANCH  15  16
ATOM     16  C   UNL     1      -1.560  -0.798  -7.051  0.00  0.00    +0.192 A 
ATOM     17  N   UNL     1      -0.350  -0.678  -7.577  0.00  0.00    -0.207 NA
ATOM     18  C   UNL     1      -0.194  -0.406  -8.871  0.00  0.00    +0.122 A 
ATOM     19  C   UNL     1      -1.322  -0.247  -9.671  0.00  0.00    +0.086 A 
ATOM     20  C   UNL     1      -2.576  -0.381  -9.082  0.00  0.00    +0.122 A 
ATOM     21  N   UNL     1      -2.656  -0.659  -7.783  0.00  0.00    -0.207 NA
ATOM     22  N   UNL     1       1.075  -0.281  -9.414  0.00  0.00    -0.343 N 
ATOM     23  H   UNL     1       1.857  -0.392  -8.851  0.00  0.00    +0.144 HD
ATOM     24  H   UNL     1       1.181  -0.082 -10.358  0.00  0.00    +0.144 HD
BRANCH  20  25
ATOM     25  N   UNL     1      -3.728  -0.231  -9.840  0.00  0.00    -0.343 N 
ATOM     26  H   UNL     1      -3.662  -0.032 -10.787  0.00  0.00    +0.144 HD
ATOM     27  H   UNL     1      -4.598  -0.326  -9.423  0.00  0.00    +0.144 HD
ENDBRANCH  20  25
ENDBRANCH  15  16
ENDBRANCH   1  15
TORSDOF 5
