REMARK  Name = ZINC09014187
REMARK  2 active torsions:
REMARK  status: ('A' for Active; 'I' for Inactive)
REMARK    1  A    between atoms: N_23  and  C_26
REMARK    2  A    between atoms: C_30  and  N_32
REMARK                            x       y       z     vdW  Elec       q    Type
REMARK                         _______ _______ _______ _____ _____    ______ ____
ROOT
ATOM      1  C   UNL     1      -5.107   6.071   4.559  0.00  0.00    +0.001 A 
ATOM      2  C   UNL     1      -6.041   6.033   3.539  0.00  0.00    +0.001 A 
ATOM      3  C   UNL     1      -5.870   5.178   2.466  0.00  0.00    +0.012 A 
ATOM      4  C   UNL     1      -4.750   4.346   2.405  0.00  0.00    +0.027 A 
ATOM      5  C   UNL     1      -3.799   4.386   3.444  0.00  0.00    +0.027 A 
ATOM      6  C   UNL     1      -3.992   5.256   4.519  0.00  0.00    +0.012 A 
ATOM      7  C   UNL     1      -2.712   3.428   3.163  0.00  0.00    +0.162 C 
ATOM      8  O   UNL     1      -1.739   3.219   3.855  0.00  0.00    -0.293 OA
ATOM      9  C   UNL     1      -3.040   2.762   1.856  0.00  0.00    +0.075 C 
ATOM     10  C   UNL     1      -4.339   3.358   1.389  0.00  0.00    +0.162 C 
ATOM     11  O   UNL     1      -4.936   3.080   0.371  0.00  0.00    -0.293 OA
ATOM     12  C   UNL     1      -3.160   1.242   2.025  0.00  0.00    +0.091 C 
ATOM     13  C   UNL     1      -1.786   0.683   1.568  0.00  0.00    +0.074 C 
ATOM     14  C   UNL     1      -0.960   1.920   1.163  0.00  0.00    -0.054 C 
ATOM     15  C   UNL     1      -2.472   2.650  -0.492  0.00  0.00    -0.076 C 
ATOM     16  C   UNL     1      -1.240   2.137  -1.265  0.00  0.00    -0.020 C 
ATOM     17  C   UNL     1      -0.262   1.644  -0.181  0.00  0.00    -0.016 C 
ATOM     18  C   UNL     1      -2.127  -0.119   0.333  0.00  0.00    +0.228 C 
ATOM     19  O   UNL     1      -1.332  -0.733  -0.346  0.00  0.00    -0.275 OA
ATOM     20  N   UNL     1      -3.444  -0.045   0.105  0.00  0.00    -0.210 N 
ATOM     21  C   UNL     1      -4.121   0.692   0.994  0.00  0.00    +0.229 C 
ATOM     22  O   UNL     1      -5.317   0.887   0.976  0.00  0.00    -0.275 OA
ATOM     23  N   UNL     1      -1.964   2.918   0.864  0.00  0.00    +0.396 N 
ATOM     24  H   UNL     1      -1.566   3.864   0.914  0.00  0.00    -0.079 HD
ENDROOT
BRANCH  20  25
ATOM     25  C   UNL     1      -4.064  -0.688  -0.976  0.00  0.00    +0.046 A 
ATOM     26  C   UNL     1      -4.115  -2.074  -1.024  0.00  0.00    +0.024 A 
ATOM     27  C   UNL     1      -4.727  -2.704  -2.090  0.00  0.00    +0.004 A 
ATOM     28  C   UNL     1      -5.287  -1.956  -3.108  0.00  0.00    +0.033 A 
ATOM     29  C   UNL     1      -5.238  -0.575  -3.063  0.00  0.00    +0.128 A 
ATOM     30  C   UNL     1      -4.632   0.061  -1.997  0.00  0.00    +0.056 A 
BRANCH  29  31
ATOM     31  N   UNL     1      -5.840   0.223  -4.155  0.00  0.00    +0.056 N 
ATOM     32  O   UNL     1      -6.378  -0.337  -5.093  0.00  0.00    -0.126 OA
ATOM     33  O   UNL     1      -5.796   1.440  -4.115  0.00  0.00    -0.126 OA
ENDBRANCH  29  31
ENDBRANCH  20  25
TORSDOF 2
