REMARK  Name = ZINC01990576
REMARK  13 active torsions:
REMARK  status: ('A' for Active; 'I' for Inactive)
REMARK    1  A    between atoms: C_1  and  C_2
REMARK    2  A    between atoms: C_2  and  C_3
REMARK    3  A    between atoms: C_3  and  C_4
REMARK    4  A    between atoms: C_7  and  O_11
REMARK    5  A    between atoms: O_11  and  C_12
REMARK    6  A    between atoms: C_12  and  C_13
REMARK    7  A    between atoms: N_15  and  C_16
REMARK    8  A    between atoms: C_17  and  C_28
REMARK    9  A    between atoms: C_18  and  C_21
REMARK   10  A    between atoms: C_24  and  C_27
REMARK   11  A    between atoms: C_28  and  O_30
REMARK   12  A    between atoms: O_30  and  C_31
REMARK   13  A    between atoms: C_31  and  C_32
REMARK                            x       y       z     vdW  Elec       q    Type
REMARK                         _______ _______ _______ _____ _____    ______ ____
ROOT
ATOM      1  C   UNL     1      -1.259  -2.829   1.181  0.00  0.00    +0.086 A 
ATOM      2  C   UNL     1      -1.248  -2.095   0.003  0.00  0.00    +0.095 A 
ATOM      3  C   UNL     1      -1.290  -2.848  -1.236  0.00  0.00    +0.005 A 
ATOM      4  C   UNL     1      -1.340  -4.200  -1.127  0.00  0.00    +0.056 A 
ATOM      5  S   UNL     1      -1.333  -4.469   0.633  0.00  0.00    -0.080 S 
ENDROOT
BRANCH   3   6
ATOM      6  C   UNL     1      -1.277  -2.175  -2.557  0.00  0.00    -0.017 A 
ATOM      7  C   UNL     1      -2.168  -1.136  -2.821  0.00  0.00    +0.009 A 
ATOM      8  C   UNL     1      -2.150  -0.510  -4.051  0.00  0.00    +0.004 A 
ATOM      9  C   UNL     1      -1.255  -0.918  -5.024  0.00  0.00    -0.050 A 
ATOM     10  C   UNL     1      -0.372  -1.952  -4.769  0.00  0.00    +0.004 A 
ATOM     11  C   UNL     1      -0.378  -2.582  -3.542  0.00  0.00    +0.009 A 
ATOM     12  C   UNL     1      -1.244  -0.235  -6.367  0.00  0.00    +0.044 C 
ENDBRANCH   3   6
BRANCH   1  15
ATOM     13  C   UNL     1      -1.241  -3.230   3.514  0.00  0.00    +0.255 C 
ATOM     14  O   UNL     1      -1.290  -4.423   3.300  0.00  0.00    -0.272 OA
ATOM     15  N   UNL     1      -1.222  -2.360   2.485  0.00  0.00    -0.277 N 
ATOM     16  H   UNL     1      -1.178  -1.278   2.679  0.00  0.00    +0.155 HD
BRANCH  13  17
ATOM     17  C   UNL     1      -1.200  -2.720   4.932  0.00  0.00    +0.325 C 
BRANCH  17  18
ATOM     18  O   UNL     1      -1.230  -3.826   5.837  0.00  0.00    -0.482 OA
BRANCH  18  22
ATOM     19  C   UNL     1      -1.139  -2.951   9.868  0.00  0.00    -0.046 A 
ATOM     20  C   UNL     1      -1.112  -1.927   8.938  0.00  0.00    +0.007 A 
ATOM     21  C   UNL     1      -1.142  -2.218   7.588  0.00  0.00    +0.047 A 
ATOM     22  C   UNL     1      -1.199  -3.538   7.165  0.00  0.00    +0.135 A 
ATOM     23  C   UNL     1      -1.231  -4.563   8.099  0.00  0.00    +0.060 A 
ATOM     24  C   UNL     1      -1.195  -4.267   9.449  0.00  0.00    +0.022 A 
ATOM     25 BR   UNL     1      -1.316  -6.363   7.527  0.00  0.00    -0.047 Br
BRANCH  19  26
ATOM     26  C   UNL     1      -1.106  -2.630  11.340  0.00  0.00    +0.035 C 
BRANCH  26  28
ATOM     27  C   UNL     1      -2.503  -2.141  13.353  0.00  0.00    +0.004 C 
ATOM     28  C   UNL     1      -2.536  -2.466  11.858  0.00  0.00    +0.001 C 
ENDBRANCH  26  28
ENDBRANCH  19  26
ENDBRANCH  18  22
ENDBRANCH  17  18
ENDBRANCH  13  17
ENDBRANCH   1  15
BRANCH   2  29
ATOM     29  C   UNL     1      -1.191  -0.633   0.010  0.00  0.00    +0.342 C 
ATOM     30  O   UNL     1      -2.220   0.016   0.023  0.00  0.00    -0.245 OA
BRANCH  29  31
ATOM     31  O   UNL     1       0.002  -0.004   0.002  0.00  0.00    -0.461 OA
BRANCH  31  32
ATOM     32  C   UNL     1      -0.018   1.448   0.010  0.00  0.00    +0.229 C 
ATOM     33  C   UNL     1       1.418   1.977  -0.001  0.00  0.00    +0.048 C 
ENDBRANCH  31  32
ENDBRANCH  29  31
ENDBRANCH   2  29
TORSDOF 10
