REMARK  Name = ZINC10040082
REMARK  13 active torsions:
REMARK  status: ('A' for Active; 'I' for Inactive)
REMARK    1  A    between atoms: C_1  and  C_2
REMARK    2  A    between atoms: C_2  and  C_3
REMARK    3  A    between atoms: C_2  and  C_4
REMARK    4  A    between atoms: C_4  and  C_6
REMARK    5  A    between atoms: C_4  and  N_24
REMARK    6  A    between atoms: N_8  and  N_9
REMARK    7  A    between atoms: C_10  and  C_11
REMARK    8  A    between atoms: C_13  and  O_22
REMARK    9  A    between atoms: C_14  and  O_18
REMARK   10  A    between atoms: O_18  and  C_19
REMARK   11  A    between atoms: C_19  and  C_20
REMARK   12  A    between atoms: O_22  and  C_23
REMARK   13  A    between atoms: C_25  and  C_27
REMARK                            x       y       z     vdW  Elec       q    Type
REMARK                         _______ _______ _______ _____ _____    ______ ____
ROOT
ATOM      1  C   UNL     1       5.008   5.831  -0.286  0.00  0.00    +0.253 C 
ATOM      2  O   UNL     1       3.925   6.134  -0.740  0.00  0.00    -0.272 OA
ATOM      3  N   UNL     1       6.021   6.719  -0.310  0.00  0.00    -0.205 N 
ATOM      4  H   UNL     1       6.865   6.505   0.117  0.00  0.00    +0.177 HD
ENDROOT
BRANCH   3   5
ATOM      5  N   UNL     1       5.856   7.954  -0.952  0.00  0.00    -0.188 NA
ATOM      6  C   UNL     1       6.831   8.809  -0.975  0.00  0.00    +0.138 C 
BRANCH   6   7
ATOM      7  C   UNL     1       6.657  10.108  -1.650  0.00  0.00    -0.000 A 
ATOM      8  C   UNL     1       7.704  11.033  -1.671  0.00  0.00    +0.059 A 
ATOM      9  C   UNL     1       7.538  12.247  -2.310  0.00  0.00    +0.164 A 
ATOM     10  C   UNL     1       6.324  12.552  -2.923  0.00  0.00    +0.182 A 
ATOM     11  C   UNL     1       5.281  11.636  -2.898  0.00  0.00    +0.087 A 
ATOM     12  C   UNL     1       5.442  10.419  -2.266  0.00  0.00    +0.033 A 
ATOM     13 CL   UNL     1       3.772  12.021  -3.663  0.00  0.00    -0.080 Cl
BRANCH   9  14
ATOM     14  O   UNL     1       8.557  13.147  -2.337  0.00  0.00    -0.491 OA
ATOM     15  C   UNL     1       9.773  12.769  -1.689  0.00  0.00    +0.277 C 
ENDBRANCH   9  14
BRANCH  10  16
ATOM     16  O   UNL     1       6.161  13.748  -3.547  0.00  0.00    -0.474 OA
BRANCH  16  17
ATOM     17  C   UNL     1       5.661  14.829  -2.757  0.00  0.00    +0.317 C 
BRANCH  17  18
ATOM     18  C   UNL     1       5.550  16.037  -3.591  0.00  0.00    -0.065 C 
ATOM     19  C   UNL     1       5.461  17.000  -4.257  0.00  0.00    +0.007 C 
ENDBRANCH  17  18
ENDBRANCH  16  17
ENDBRANCH  10  16
ENDBRANCH   6   7
ENDBRANCH   3   5
BRANCH   1  20
ATOM     20  C   UNL     1       5.222   4.461   0.304  0.00  0.00    +0.163 C 
BRANCH  20  21
ATOM     21  N   UNL     1       4.167   3.558  -0.164  0.00  0.00    -0.300 N 
ATOM     22  C   UNL     1       4.388   2.229  -0.208  0.00  0.00    +0.245 C 
ATOM     23  O   UNL     1       5.463   1.780   0.140  0.00  0.00    -0.270 OA
ATOM     24  H   UNL     1       3.310   3.916  -0.442  0.00  0.00    +0.150 HD
BRANCH  22  25
ATOM     25  C   UNL     1       3.324   1.318  -0.680  0.00  0.00    +0.038 A 
ATOM     26  C   UNL     1       2.089   1.832  -1.081  0.00  0.00    +0.014 A 
ATOM     27  C   UNL     1       1.100   0.977  -1.520  0.00  0.00    +0.022 A 
ATOM     28  C   UNL     1       1.329  -0.388  -1.564  0.00  0.00    +0.059 A 
ATOM     29  C   UNL     1       2.553  -0.904  -1.169  0.00  0.00    +0.060 A 
ATOM     30  C   UNL     1       3.551  -0.058  -0.727  0.00  0.00    +0.034 A 
ATOM     31 CL   UNL     1       2.832  -2.616  -1.228  0.00  0.00    -0.082 Cl
ATOM     32 CL   UNL     1       0.078  -1.457  -2.118  0.00  0.00    -0.082 Cl
ENDBRANCH  22  25
ENDBRANCH  20  21
BRANCH  20  34
ATOM     33  C   UNL     1       3.776   4.979   2.275  0.00  0.00    +0.009 C 
ATOM     34  C   UNL     1       5.176   4.550   1.831  0.00  0.00    +0.012 C 
ATOM     35  C   UNL     1       5.505   3.182   2.432  0.00  0.00    +0.009 C 
ENDBRANCH  20  34
ENDBRANCH   1  20
TORSDOF 10
