REMARK  Name = ZINC04709684
REMARK  5 active torsions:
REMARK  status: ('A' for Active; 'I' for Inactive)
REMARK    1  A    between atoms: C_3  and  N_8
REMARK    2  A    between atoms: C_11  and  C_18
REMARK    3  A    between atoms: C_13  and  C_16
REMARK    4  A    between atoms: C_14  and  N_15
REMARK    5  A    between atoms: C_21  and  N_23
REMARK                            x       y       z     vdW  Elec       q    Type
REMARK                         _______ _______ _______ _____ _____    ______ ____
ROOT
ATOM      1  N   UNL     1      -1.230   3.008   0.134  0.00  0.00    -0.260 N 
ATOM      2  C   UNL     1      -2.092   3.458   1.097  0.00  0.00    +0.024 C 
ATOM      3  C   UNL     1      -3.363   3.007   1.149  0.00  0.00    +0.026 C 
ATOM      4  C   UNL     1      -3.875   2.015   0.135  0.00  0.00    +0.104 C 
ATOM      5  C   UNL     1      -2.743   1.325  -0.567  0.00  0.00    +0.077 C 
ATOM      6  C   UNL     1      -1.487   1.840  -0.548  0.00  0.00    +0.107 C 
ATOM      7  C   UNL     1      -4.248   3.447   2.149  0.00  0.00    +0.162 C 
ATOM      8  O   UNL     1      -5.389   3.029   2.162  0.00  0.00    -0.292 OA
ATOM      9  C   UNL     1      -3.808   4.424   3.205  0.00  0.00    +0.080 C 
ATOM     10  C   UNL     1      -2.303   4.263   3.438  0.00  0.00    +0.014 C 
ATOM     11  C   UNL     1      -1.582   4.461   2.103  0.00  0.00    +0.052 C 
ENDROOT
BRANCH   1  14
ATOM     12  C   UNL     1       2.255   4.184   0.180  0.00  0.00    +0.005 A 
ATOM     13  C   UNL     1       1.120   3.454   0.475  0.00  0.00    +0.024 A 
ATOM     14  C   UNL     1      -0.078   3.747  -0.164  0.00  0.00    +0.042 A 
ATOM     15  C   UNL     1      -0.131   4.769  -1.102  0.00  0.00    +0.062 A 
ATOM     16  C   UNL     1       1.007   5.500  -1.390  0.00  0.00    +0.125 A 
ATOM     17  C   UNL     1       2.200   5.205  -0.750  0.00  0.00    +0.038 A 
ATOM     18  F   UNL     1       0.957   6.498  -2.299  0.00  0.00    -0.205 F 
ENDBRANCH   1  14
BRANCH   4  19
ATOM     19  C   UNL     1      -4.719   2.739  -0.882  0.00  0.00    +0.005 A 
ATOM     20  C   UNL     1      -6.031   2.570  -1.179  0.00  0.00    +0.014 A 
ATOM     21  C   UNL     1      -6.604   3.360  -2.158  0.00  0.00    +0.041 A 
ATOM     22  C   UNL     1      -5.834   4.272  -2.800  0.00  0.00    +0.164 A 
ATOM     23  S   UNL     1      -4.249   4.037  -2.014  0.00  0.00    -0.068 S 
BRANCH  22  24
ATOM     24  N   UNL     1      -6.210   5.217  -3.876  0.00  0.00    +0.063 N 
ATOM     25  O   UNL     1      -7.354   5.239  -4.295  0.00  0.00    -0.126 OA
ATOM     26  O   UNL     1      -5.377   5.974  -4.341  0.00  0.00    -0.126 OA
ENDBRANCH  22  24
ENDBRANCH   4  19
BRANCH   6  27
ATOM     27  N   UNL     1      -0.469   1.191  -1.205  0.00  0.00    -0.345 N 
ATOM     28  H   UNL     1      -0.664   0.418  -1.758  0.00  0.00    +0.144 HD
ATOM     29  H   UNL     1       0.444   1.508  -1.119  0.00  0.00    +0.144 HD
ENDBRANCH   6  27
BRANCH   5  30
ATOM     30  C   UNL     1      -2.992   0.102  -1.269  0.00  0.00    +0.099 C 
ATOM     31  N   UNL     1      -3.189  -0.868  -1.827  0.00  0.00    -0.191 NA
ENDBRANCH   5  30
TORSDOF 5
