REMARK  Name = ZINC11911965
REMARK  14 active torsions:
REMARK  status: ('A' for Active; 'I' for Inactive)
REMARK    1  A    between atoms: C_1  and  C_2
REMARK    2  A    between atoms: C_7  and  C_8
REMARK    3  A    between atoms: C_8  and  C_19
REMARK    4  A    between atoms: N_12  and  C_15
REMARK    5  A    between atoms: C_15  and  C_16
REMARK    6  A    between atoms: C_16  and  N_71
REMARK    7  A    between atoms: C_17  and  N_71
REMARK    8  A    between atoms: C_18  and  N_71
REMARK    9  A    between atoms: C_19  and  C_20
REMARK   10  A    between atoms: N_22  and  C_23
REMARK   11  A    between atoms: N_22  and  C_24
REMARK   12  A    between atoms: C_24  and  C_25
REMARK   13  A    between atoms: C_30  and  C_36
REMARK   14  A    between atoms: C_31  and  C_35
REMARK                            x       y       z     vdW  Elec       q    Type
REMARK                         _______ _______ _______ _____ _____    ______ ____
ROOT
ATOM      1  C   UNL     1      -2.170   1.587   2.889  0.00  0.00    +0.089 C 
ATOM      2  C   UNL     1      -1.322   2.875   2.840  0.00  0.00    +0.117 C 
ATOM      3  C   UNL     1      -0.415   2.658   1.648  0.00  0.00    +0.223 C 
ATOM      4  O   UNL     1       0.424   3.438   1.253  0.00  0.00    -0.275 OA
ATOM      5  N   UNL     1      -0.689   1.468   1.098  0.00  0.00    -0.243 N 
ATOM      6  C   UNL     1      -1.657   0.780   1.717  0.00  0.00    +0.233 C 
ATOM      7  O   UNL     1      -2.058  -0.316   1.389  0.00  0.00    -0.274 OA
ENDROOT
BRANCH   1  14
ATOM      8  C   UNL     1      -2.914   2.806   5.401  0.00  0.00    +0.044 C 
ATOM      9  C   UNL     1      -2.295   1.432   5.384  0.00  0.00    -0.046 A 
ATOM     10  C   UNL     1      -2.088   0.753   6.570  0.00  0.00    +0.003 A 
ATOM     11  C   UNL     1      -1.515  -0.505   6.556  0.00  0.00    +0.000 A 
ATOM     12  C   UNL     1      -1.153  -1.085   5.354  0.00  0.00    +0.000 A 
ATOM     13  C   UNL     1      -1.365  -0.409   4.168  0.00  0.00    +0.005 A 
ATOM     14  C   UNL     1      -1.939   0.849   4.183  0.00  0.00    -0.029 A 
ENDBRANCH   1  14
BRANCH   5  15
ATOM     15  C   UNL     1       0.016   0.960  -0.081  0.00  0.00    +0.098 C 
BRANCH  15  16
ATOM     16  C   UNL     1      -0.724   1.398  -1.347  0.00  0.00    -0.060 C 
BRANCH  16  19
ATOM     17  C   UNL     1      -0.072  -0.579  -2.583  0.00  0.00    -0.097 C 
ATOM     18  C   UNL     1      -0.555   1.481  -3.761  0.00  0.00    -0.097 C 
ATOM     19  N   UNL     1       0.010   0.896  -2.527  0.00  0.00    +0.377 N 
ATOM     20  H   UNL     1       0.996   1.172  -2.449  0.00  0.00    -0.083 HD
ENDBRANCH  16  19
ENDBRANCH  15  16
ENDBRANCH   5  15
BRANCH   1  21
ATOM     21  C   UNL     1      -3.655   1.910   2.713  0.00  0.00    +0.117 C 
BRANCH  21  22
ATOM     22  C   UNL     1      -3.866   2.593   1.386  0.00  0.00    +0.217 C 
ATOM     23  O   UNL     1      -2.922   2.801   0.654  0.00  0.00    -0.276 OA
ATOM     24  N   UNL     1      -5.105   2.972   1.013  0.00  0.00    -0.297 N 
ATOM     25  C   UNL     1      -6.245   2.720   1.898  0.00  0.00    +0.132 C 
BRANCH  24  26
ATOM     26  C   UNL     1      -5.311   3.636  -0.276  0.00  0.00    +0.181 C 
BRANCH  26  27
ATOM     27  C   UNL     1      -5.582   2.600  -1.337  0.00  0.00    +0.126 A 
ATOM     28  N   UNL     1      -6.819   2.205  -1.742  0.00  0.00    -0.341 N 
ATOM     29  H   UNL     1      -7.693   2.544  -1.395  0.00  0.00    +0.167 HD
ATOM     30  C   UNL     1      -6.644   1.249  -2.723  0.00  0.00    +0.067 A 
ATOM     31  C   UNL     1      -7.509   0.491  -3.499  0.00  0.00    +0.031 A 
ATOM     32  C   UNL     1      -6.999  -0.403  -4.416  0.00  0.00    -0.045 A 
ATOM     33  C   UNL     1      -5.627  -0.550  -4.567  0.00  0.00    -0.045 A 
ATOM     34  C   UNL     1      -4.760   0.187  -3.811  0.00  0.00    +0.033 A 
ATOM     35  C   UNL     1      -5.255   1.100  -2.875  0.00  0.00    +0.089 A 
ATOM     36  N   UNL     1      -4.667   1.958  -2.002  0.00  0.00    -0.231 NA
ATOM     37  C   UNL     1      -5.088  -1.533  -5.574  0.00  0.00    +0.044 C 
ATOM     38  C   UNL     1      -7.937  -1.227  -5.261  0.00  0.00    +0.044 C 
ENDBRANCH  26  27
ENDBRANCH  24  26
ENDBRANCH  21  22
ENDBRANCH   1  21
TORSDOF 8
