REMARK  Name = ZINC16026661
REMARK  11 active torsions:
REMARK  status: ('A' for Active; 'I' for Inactive)
REMARK    1  A    between atoms: C_1  and  C_2
REMARK    2  A    between atoms: C_2  and  O_3
REMARK    3  A    between atoms: O_3  and  C_4
REMARK    4  A    between atoms: C_4  and  C_6
REMARK    5  A    between atoms: C_9  and  N_12
REMARK    6  A    between atoms: C_13  and  C_15
REMARK    7  A    between atoms: C_18  and  C_31
REMARK    8  A    between atoms: C_23  and  C_30
REMARK    9  A    between atoms: C_31  and  C_32
REMARK   10  A    between atoms: C_32  and  C_33
REMARK   11  A    between atoms: C_32  and  C_34
REMARK                            x       y       z     vdW  Elec       q    Type
REMARK                         _______ _______ _______ _____ _____    ______ ____
ROOT
ATOM      1  C   UNL     1      -0.222   5.846   1.138  0.00  0.00    +0.076 C 
ATOM      2  C   UNL     1      -1.143   6.806   0.345  0.00  0.00    -0.004 C 
ATOM      3  C   UNL     1      -0.404   6.955  -1.009  0.00  0.00    -0.069 C 
ATOM      4  C   UNL     1       0.592   5.109   0.068  0.00  0.00    +0.049 C 
ATOM      5  C   UNL     1       0.415   3.619   0.183  0.00  0.00    -0.027 A 
ATOM      6  C   UNL     1      -0.680   2.789   0.104  0.00  0.00    +0.008 A 
ATOM      7  C   UNL     1      -0.524   1.422   0.251  0.00  0.00    -0.050 A 
ATOM      8  C   UNL     1       0.733   0.894   0.486  0.00  0.00    +0.005 A 
ATOM      9  C   UNL     1       1.832   1.723   0.567  0.00  0.00    +0.024 A 
ATOM     10  C   UNL     1       1.684   3.100   0.416  0.00  0.00    +0.036 A 
ATOM     11  N   UNL     1       2.627   4.129   0.456  0.00  0.00    -0.286 N 
ATOM     12  C   UNL     1       2.069   5.338   0.262  0.00  0.00    +0.211 C 
ATOM     13  O   UNL     1       2.643   6.406   0.246  0.00  0.00    -0.277 OA
ATOM     14  C   UNL     1      -1.721   0.511   0.158  0.00  0.00    +0.044 C 
ATOM     15  H   UNL     1       3.575   3.988   0.606  0.00  0.00    +0.155 HD
ATOM     16  N   UNL     1       0.149   5.609  -1.226  0.00  0.00    +0.394 N 
ATOM     17  H   UNL     1       0.943   5.656  -1.875  0.00  0.00    -0.083 HD
ATOM     18  H   UNL     1      -0.574   4.991  -1.613  0.00  0.00    -0.083 HD
ENDROOT
BRANCH   1  20
ATOM     19  N   UNL     1      -0.495   4.216   2.978  0.00  0.00    -0.285 N 
ATOM     20  C   UNL     1      -1.046   4.869   1.936  0.00  0.00    +0.220 C 
ATOM     21  O   UNL     1      -2.205   4.669   1.639  0.00  0.00    -0.275 OA
ATOM     22  H   UNL     1       0.410   4.424   3.256  0.00  0.00    +0.155 HD
BRANCH  19  26
ATOM     23  C   UNL     1      -2.682   1.309   5.008  0.00  0.00    +0.059 A 
ATOM     24  C   UNL     1      -1.305   1.150   4.825  0.00  0.00    +0.017 A 
ATOM     25  C   UNL     1      -0.586   2.113   4.154  0.00  0.00    +0.024 A 
ATOM     26  C   UNL     1      -1.227   3.243   3.657  0.00  0.00    +0.033 A 
ATOM     27  C   UNL     1      -2.597   3.408   3.842  0.00  0.00    +0.024 A 
ATOM     28  C   UNL     1      -3.324   2.447   4.507  0.00  0.00    +0.017 A 
BRANCH  23  29
ATOM     29  C   UNL     1      -3.457   0.280   5.726  0.00  0.00    +0.339 C 
ATOM     30  O   UNL     1      -2.898  -0.708   6.159  0.00  0.00    -0.245 OA
BRANCH  29  31
ATOM     31  O   UNL     1      -4.784   0.435   5.901  0.00  0.00    -0.461 OA
BRANCH  31  33
ATOM     32  C   UNL     1      -6.968  -0.268   6.716  0.00  0.00    +0.048 C 
ATOM     33  C   UNL     1      -5.481  -0.618   6.617  0.00  0.00    +0.229 C 
ENDBRANCH  31  33
ENDBRANCH  29  31
ENDBRANCH  23  29
ENDBRANCH  19  26
ENDBRANCH   1  20
BRANCH   3  34
ATOM     34  C   UNL     1      -1.384   7.342  -2.118  0.00  0.00    -0.013 C 
BRANCH  34  35
ATOM     35  C   UNL     1      -0.626   7.491  -3.439  0.00  0.00    -0.019 C 
ATOM     36  C   UNL     1      -1.621   7.754  -4.571  0.00  0.00    +0.007 C 
ATOM     37  C   UNL     1       0.352   8.663  -3.337  0.00  0.00    +0.007 C 
ENDBRANCH  34  35
ENDBRANCH   3  34
TORSDOF 7
