REMARK  Name = ZINC14129546
REMARK  11 active torsions:
REMARK  status: ('A' for Active; 'I' for Inactive)
REMARK    1  A    between atoms: C_1  and  C_2
REMARK    2  A    between atoms: C_3  and  C_16
REMARK    3  A    between atoms: C_4  and  C_15
REMARK    4  A    between atoms: N_5  and  C_7
REMARK    5  A    between atoms: C_16  and  N_64
REMARK    6  A    between atoms: C_17  and  N_64
REMARK    7  A    between atoms: C_18  and  C_20
REMARK    8  A    between atoms: C_18  and  C_21
REMARK    9  A    between atoms: C_18  and  N_64
REMARK   10  A    between atoms: N_23  and  C_24
REMARK   11  A    between atoms: C_25  and  C_32
REMARK                            x       y       z     vdW  Elec       q    Type
REMARK                         _______ _______ _______ _____ _____    ______ ____
ROOT
ATOM      1  C   UNL     1       4.996   8.190   0.010  0.00  0.00    +0.016 C 
ATOM      2  C   UNL     1       4.371   9.453  -0.586  0.00  0.00    -0.004 C 
ENDROOT
BRANCH   1   3
ATOM      3  C   UNL     1       6.465   8.151  -0.324  0.00  0.00    +0.204 C 
ATOM      4  O   UNL     1       6.916   7.226  -0.966  0.00  0.00    -0.277 OA
ATOM      5  N   UNL     1       7.277   9.143   0.091  0.00  0.00    -0.281 N 
ATOM      6  H   UNL     1       6.917   9.882   0.605  0.00  0.00    +0.155 HD
BRANCH   5   7
ATOM      7  C   UNL     1       8.629   9.106  -0.216  0.00  0.00    +0.084 A 
ATOM      8  C   UNL     1       9.612  10.022   0.118  0.00  0.00    +0.068 A 
ATOM      9  C   UNL     1      10.976   9.746  -0.333  0.00  0.00    -0.023 A 
ATOM     10  C   UNL     1      11.126   8.610  -1.038  0.00  0.00    -0.004 A 
ATOM     11  S   UNL     1       9.498   7.901  -1.103  0.00  0.00    -0.077 S 
ATOM     12  C   UNL     1      12.552   8.397  -1.468  0.00  0.00    +0.043 C 
ATOM     13  C   UNL     1      13.219   9.781  -1.304  0.00  0.00    +0.010 C 
ATOM     14  C   UNL     1      12.341  10.425  -0.213  0.00  0.00    +0.037 C 
BRANCH   8  15
ATOM     15  C   UNL     1       9.298  11.225   0.895  0.00  0.00    +0.244 C 
ATOM     16  O   UNL     1       9.355  11.196   2.111  0.00  0.00    -0.270 OA
ATOM     17  N   UNL     1       8.945  12.362   0.264  0.00  0.00    -0.325 N 
ATOM     18  H   UNL     1       8.899  12.385  -0.705  0.00  0.00    +0.145 HD
ATOM     19  H   UNL     1       8.737  13.158   0.778  0.00  0.00    +0.145 HD
ENDBRANCH   8  15
ENDBRANCH   5   7
ENDBRANCH   1   3
BRANCH   1  21
ATOM     20  C   UNL     1       4.463   6.973  -2.014  0.00  0.00    -0.095 C 
ATOM     21  N   UNL     1       4.348   6.981  -0.540  0.00  0.00    +0.388 N 
ATOM     22  H   UNL     1       4.818   6.150  -0.164  0.00  0.00    -0.081 HD
BRANCH  21  23
ATOM     23  C   UNL     1       2.924   6.948  -0.145  0.00  0.00    -0.039 C 
BRANCH  23  26
ATOM     24  C   UNL     1       1.514   6.245  -2.895  0.00  0.00    +0.068 C 
ATOM     25  C   UNL     1       1.722   5.299  -1.740  0.00  0.00    +0.062 A 
ATOM     26  C   UNL     1       2.345   5.610  -0.527  0.00  0.00    -0.021 A 
ATOM     27  C   UNL     1       2.335   4.497   0.243  0.00  0.00    +0.038 A 
ATOM     28  N   UNL     1       1.728   3.517  -0.458  0.00  0.00    -0.263 N 
ATOM     29  N   UNL     1       1.357   4.043  -1.702  0.00  0.00    -0.176 NA
ATOM     30  C   UNL     1       2.901   4.375   1.635  0.00  0.00    +0.065 C 
BRANCH  28  31
ATOM     31  C   UNL     1       1.502   2.144  -0.001  0.00  0.00    +0.130 C 
ATOM     32  C   UNL     1       2.180   1.157  -0.966  0.00  0.00    +0.051 C 
ATOM     33  C   UNL     1       1.686  -0.282  -0.682  0.00  0.00    +0.168 C 
ATOM     34  S   UNL     1       0.002  -0.004   0.002  0.00  0.00    -0.029 S 
ATOM     35  O   UNL     1      -0.036  -0.474   1.342  0.00  0.00    -0.174 OA
ATOM     36  O   UNL     1      -0.961  -0.474  -0.931  0.00  0.00    -0.174 OA
ATOM     37  C   UNL     1      -0.023   1.838   0.012  0.00  0.00    +0.192 C 
ENDBRANCH  28  31
ENDBRANCH  23  26
ENDBRANCH  21  23
ENDBRANCH   1  21
TORSDOF 7
