REMARK  Name = ZINC06134191
REMARK  9 active torsions:
REMARK  status: ('A' for Active; 'I' for Inactive)
REMARK    1  A    between atoms: C_1  and  C_2
REMARK    2  A    between atoms: C_2  and  O_3
REMARK    3  A    between atoms: O_3  and  C_4
REMARK    4  A    between atoms: C_11  and  C_16
REMARK    5  A    between atoms: C_16  and  C_18
REMARK    6  A    between atoms: C_16  and  N_71
REMARK    7  A    between atoms: N_22  and  C_23
REMARK    8  A    between atoms: C_23  and  C_24
REMARK    9  A    between atoms: N_32  and  C_35
REMARK                            x       y       z     vdW  Elec       q    Type
REMARK                         _______ _______ _______ _____ _____    ______ ____
ROOT
ATOM      1  C   UNL     1       3.512   0.638  -0.028  0.00  0.00    +0.039 C 
ENDROOT
BRANCH   1   9
ATOM      2  C   UNL     1       6.384   1.258   5.431  0.00  0.00    +0.121 A 
ATOM      3  C   UNL     1       6.112  -0.029   5.890  0.00  0.00    +0.047 A 
ATOM      4  C   UNL     1       5.397  -0.914   5.114  0.00  0.00    +0.030 A 
ATOM      5  C   UNL     1       4.941  -0.527   3.859  0.00  0.00    +0.049 A 
ATOM      6  C   UNL     1       5.213   0.772   3.391  0.00  0.00    +0.002 A 
ATOM      7  C   UNL     1       5.940   1.663   4.188  0.00  0.00    +0.055 A 
ATOM      8  C   UNL     1       4.726   1.167   2.068  0.00  0.00    +0.017 A 
ATOM      9  C   UNL     1       4.027   0.263   1.338  0.00  0.00    +0.011 A 
ATOM     10  C   UNL     1       3.775  -1.025   1.855  0.00  0.00    +0.251 A 
ATOM     11  O   UNL     1       3.139  -1.821   1.185  0.00  0.00    -0.268 OA
ATOM     12  N   UNL     1       4.223  -1.400   3.066  0.00  0.00    -0.322 N 
ATOM     13  H   UNL     1       4.033  -2.324   3.398  0.00  0.00    +0.169 HD
BRANCH   2  14
ATOM     14  O   UNL     1       7.091   2.119   6.210  0.00  0.00    -0.492 OA
BRANCH  14  16
ATOM     15  C   UNL     1       8.295   2.738   8.212  0.00  0.00    +0.048 C 
ATOM     16  C   UNL     1       7.521   1.637   7.484  0.00  0.00    +0.225 C 
ENDBRANCH  14  16
ENDBRANCH   2  14
ENDBRANCH   1   9
BRANCH   1  22
ATOM     17  C   UNL     1       5.460  -0.427  -0.995  0.00  0.00    -0.058 C 
ATOM     18  C   UNL     1       5.915  -1.506  -1.981  0.00  0.00    +0.086 C 
ATOM     19  N   UNL     1       5.431  -1.171  -3.327  0.00  0.00    -0.333 N 
ATOM     20  C   UNL     1       3.965  -1.079  -3.349  0.00  0.00    +0.086 C 
ATOM     21  C   UNL     1       3.509  -0.001  -2.364  0.00  0.00    -0.058 C 
ATOM     22  N   UNL     1       3.983  -0.361  -1.010  0.00  0.00    +0.391 N 
ATOM     23  H   UNL     1       3.605  -1.281  -0.758  0.00  0.00    -0.080 HD
BRANCH  19  24
ATOM     24  C   UNL     1       5.889  -2.096  -4.268  0.00  0.00    +0.030 A 
ATOM     25  C   UNL     1       4.983  -2.788  -5.062  0.00  0.00    +0.023 A 
ATOM     26  C   UNL     1       5.439  -3.698  -5.995  0.00  0.00    +0.002 A 
ATOM     27  C   UNL     1       6.796  -3.931  -6.131  0.00  0.00    +0.000 A 
ATOM     28  C   UNL     1       7.700  -3.248  -5.338  0.00  0.00    +0.002 A 
ATOM     29  C   UNL     1       7.251  -2.332  -4.407  0.00  0.00    +0.023 A 
ENDBRANCH  19  24
ENDBRANCH   1  22
BRANCH   1  30
ATOM     30  C   UNL     1       2.005   0.637  -0.014  0.00  0.00    +0.143 A 
ATOM     31  N   UNL     1       1.223  -0.415  -0.012  0.00  0.00    -0.115 NA
ATOM     32  N   UNL     1       0.002  -0.004   0.002  0.00  0.00    -0.023 NA
ATOM     33  N   UNL     1      -0.015   1.283   0.009  0.00  0.00    -0.044 NA
ATOM     34  N   UNL     1       1.200   1.716  -0.000  0.00  0.00    -0.228 N 
BRANCH  34  35
ATOM     35  C   UNL     1       1.625   3.118   0.003  0.00  0.00    +0.178 C 
BRANCH  35  36
ATOM     36  C   UNL     1       1.787   3.599   1.446  0.00  0.00    +0.140 C 
ATOM     37  C   UNL     1       2.288   5.064   1.472  0.00  0.00    +0.035 C 
ATOM     38  C   UNL     1       1.773   5.528   2.862  0.00  0.00    +0.031 C 
ATOM     39  C   UNL     1       0.447   4.749   2.996  0.00  0.00    +0.160 C 
ATOM     40  O   UNL     1       0.512   3.627   2.108  0.00  0.00    -0.375 OA
ENDBRANCH  35  36
ENDBRANCH  34  35
ENDBRANCH   1  30
TORSDOF 8
