REMARK  Name = ZINC54154880
REMARK  6 active torsions:
REMARK  status: ('A' for Active; 'I' for Inactive)
REMARK    1  A    between atoms: C_1  and  C_2
REMARK    2  A    between atoms: C_2  and  C_4
REMARK    3  A    between atoms: C_2  and  C_19
REMARK    4  A    between atoms: C_4  and  N_5
REMARK    5  A    between atoms: C_6  and  C_8
REMARK    6  A    between atoms: N_20  and  O_21
REMARK                            x       y       z     vdW  Elec       q    Type
REMARK                         _______ _______ _______ _____ _____    ______ ____
ROOT
ATOM      1  N   UNL     1      -0.008  -0.140   2.444  0.00  0.00    -0.311 N 
ATOM      2  C   UNL     1       0.457  -0.484   3.661  0.00  0.00    +0.250 C 
ATOM      3  O   UNL     1       1.499  -1.102   3.762  0.00  0.00    -0.270 OA
ATOM      4  H   UNL     1      -0.840   0.353   2.364  0.00  0.00    +0.149 HD
ENDROOT
BRANCH   2   5
ATOM      5  C   UNL     1      -0.298  -0.111   4.871  0.00  0.00    +0.113 A 
ATOM      6  C   UNL     1      -1.267  -0.978   5.391  0.00  0.00    +0.176 A 
ATOM      7  C   UNL     1      -1.971  -0.622   6.526  0.00  0.00    +0.197 A 
ATOM      8  C   UNL     1      -1.720   0.592   7.150  0.00  0.00    +0.199 A 
ATOM      9  C   UNL     1      -0.762   1.456   6.640  0.00  0.00    +0.197 A 
ATOM     10  C   UNL     1      -0.046   1.109   5.509  0.00  0.00    +0.176 A 
ATOM     11  F   UNL     1       0.891   1.949   5.017  0.00  0.00    -0.201 F 
ATOM     12  F   UNL     1      -0.524   2.636   7.253  0.00  0.00    -0.199 F 
ATOM     13  F   UNL     1      -2.412   0.933   8.259  0.00  0.00    -0.199 F 
ATOM     14  F   UNL     1      -2.906  -1.458   7.029  0.00  0.00    -0.199 F 
ATOM     15  F   UNL     1      -1.513  -2.159   4.784  0.00  0.00    -0.201 F 
ENDBRANCH   2   5
BRANCH   1  16
ATOM     16  C   UNL     1       0.742  -0.511   1.242  0.00  0.00    +0.115 C 
BRANCH  16  18
ATOM     17  C   UNL     1      -0.019   1.526   0.010  0.00  0.00    +0.017 C 
ATOM     18  C   UNL     1       0.002  -0.004   0.002  0.00  0.00    +0.069 C 
BRANCH  18  19
ATOM     19  C   UNL     1       0.707  -0.490  -1.238  0.00  0.00    +0.136 C 
ATOM     20  N   UNL     1       1.575   0.266  -1.826  0.00  0.00    -0.076 NA
ATOM     21  N   UNL     1       0.428  -1.740  -1.744  0.00  0.00    -0.344 N 
ATOM     22  H   UNL     1      -0.224  -2.307  -1.303  0.00  0.00    +0.144 HD
ATOM     23  H   UNL     1       0.882  -2.053  -2.542  0.00  0.00    +0.144 HD
BRANCH  20  24
ATOM     24  O   UNL     1       2.237  -0.191  -2.991  0.00  0.00    -0.408 OA
ATOM     25  H   UNL     1       2.868   0.443  -3.359  0.00  0.00    +0.328 HD
ENDBRANCH  20  24
ENDBRANCH  18  19
ENDBRANCH  16  18
ENDBRANCH   1  16
TORSDOF 5
