REMARK  Name = ZINC08424359
REMARK  9 active torsions:
REMARK  status: ('A' for Active; 'I' for Inactive)
REMARK    1  A    between atoms: C_1  and  C_2
REMARK    2  A    between atoms: C_3  and  C_30
REMARK    3  A    between atoms: C_4  and  C_23
REMARK    4  A    between atoms: C_6  and  C_21
REMARK    5  A    between atoms: C_7  and  S_9
REMARK    6  A    between atoms: S_9  and  C_10
REMARK    7  A    between atoms: C_10  and  C_11
REMARK    8  A    between atoms: N_13  and  C_14
REMARK    9  A    between atoms: C_30  and  C_32
REMARK                            x       y       z     vdW  Elec       q    Type
REMARK                         _______ _______ _______ _____ _____    ______ ____
ROOT
ATOM      1  C   UNL     1       0.653  10.010   1.156  0.00  0.00    +0.061 C 
ATOM      2  C   UNL     1       2.091   9.690   0.839  0.00  0.00    +0.013 C 
ATOM      3  C   UNL     1       3.032  10.645   0.986  0.00  0.00    +0.024 C 
ATOM      4  C   UNL     1       4.478  10.382   0.675  0.00  0.00    +0.098 C 
ATOM      5  C   UNL     1       4.745   8.905   0.596  0.00  0.00    +0.069 C 
ATOM      6  C   UNL     1       3.730   8.011   0.459  0.00  0.00    +0.080 C 
ATOM      7  N   UNL     1       2.421   8.439   0.408  0.00  0.00    -0.312 N 
ATOM      8  H   UNL     1       1.642   7.767   0.018  0.00  0.00    +0.152 HD
ENDROOT
BRANCH   4   9
ATOM      9  C   UNL     1       4.827  11.025  -0.642  0.00  0.00    -0.016 A 
ATOM     10  C   UNL     1       4.067  10.758  -1.765  0.00  0.00    +0.006 A 
ATOM     11  C   UNL     1       4.384  11.352  -2.972  0.00  0.00    +0.000 A 
ATOM     12  C   UNL     1       5.469  12.205  -3.059  0.00  0.00    +0.001 A 
ATOM     13  C   UNL     1       6.233  12.469  -1.938  0.00  0.00    +0.020 A 
ATOM     14  C   UNL     1       5.912  11.879  -0.729  0.00  0.00    +0.045 A 
ATOM     15 CL   UNL     1       6.871  12.210   0.680  0.00  0.00    -0.083 Cl
ENDBRANCH   4   9
BRANCH   3  16
ATOM     16  C   UNL     1       2.651  11.917   1.440  0.00  0.00    +0.159 C 
ATOM     17  O   UNL     1       1.504  12.120   1.789  0.00  0.00    -0.293 OA
ATOM     18  C   UNL     1       3.663  13.032   1.497  0.00  0.00    +0.091 C 
ENDBRANCH   3  16
BRANCH   5  19
ATOM     19  C   UNL     1       6.094   8.431   0.661  0.00  0.00    +0.098 C 
ATOM     20  N   UNL     1       7.165   8.055   0.713  0.00  0.00    -0.191 NA
ENDBRANCH   5  19
BRANCH   6  21
ATOM     21  S   UNL     1       4.091   6.290   0.354  0.00  0.00    -0.100 S 
BRANCH  21  22
ATOM     22  C   UNL     1       2.414   5.626   0.198  0.00  0.00    +0.171 C 
BRANCH  22  23
ATOM     23  C   UNL     1       2.476   4.124   0.090  0.00  0.00    +0.227 C 
ATOM     24  O   UNL     1       3.549   3.558   0.116  0.00  0.00    -0.275 OA
ATOM     25  N   UNL     1       1.340   3.410  -0.035  0.00  0.00    -0.285 N 
ATOM     26  H   UNL     1       0.375   3.926  -0.145  0.00  0.00    +0.155 HD
BRANCH  25  27
ATOM     27  C   UNL     1       1.389   2.011  -0.025  0.00  0.00    +0.033 A 
ATOM     28  C   UNL     1       2.338   1.353   0.746  0.00  0.00    +0.024 A 
ATOM     29  C   UNL     1       2.383  -0.027   0.754  0.00  0.00    +0.017 A 
ATOM     30  C   UNL     1       1.483  -0.755  -0.005  0.00  0.00    +0.018 A 
ATOM     31  C   UNL     1       0.537  -0.102  -0.774  0.00  0.00    +0.017 A 
ATOM     32  C   UNL     1       0.487   1.278  -0.786  0.00  0.00    +0.024 A 
ATOM     33 BR   UNL     1       1.548  -2.644   0.009  0.00  0.00    -0.050 Br
ENDBRANCH  25  27
ENDBRANCH  22  23
ENDBRANCH  21  22
ENDBRANCH   6  21
TORSDOF 7
