REMARK  Name = ZINC35957089
REMARK  8 active torsions:
REMARK  status: ('A' for Active; 'I' for Inactive)
REMARK    1  A    between atoms: C_1  and  C_2
REMARK    2  A    between atoms: C_5  and  O_8
REMARK    3  A    between atoms: O_8  and  C_9
REMARK    4  A    between atoms: C_9  and  C_10
REMARK    5  A    between atoms: C_12  and  C_15
REMARK    6  A    between atoms: N_17  and  C_18
REMARK    7  A    between atoms: C_24  and  N_26
REMARK    8  A    between atoms: C_27  and  C_29
REMARK                            x       y       z     vdW  Elec       q    Type
REMARK                         _______ _______ _______ _____ _____    ______ ____
ROOT
ATOM      1  C   UNL     1       2.028  -9.327   0.620  0.00  0.00    +0.263 C 
ATOM      2  O   UNL     1       1.796 -10.510   0.457  0.00  0.00    -0.269 OA
ATOM      3  N   UNL     1       3.303  -8.892   0.677  0.00  0.00    -0.305 N 
ATOM      4  H   UNL     1       3.488  -7.949   0.807  0.00  0.00    +0.149 HD
ENDROOT
BRANCH   3   5
ATOM      5  C   UNL     1       4.408  -9.844   0.544  0.00  0.00    +0.093 C 
ATOM      6  C   UNL     1       4.708 -10.073  -0.939  0.00  0.00    +0.024 C 
ATOM      7  C   UNL     1       5.863 -11.067  -1.078  0.00  0.00    +0.002 C 
ATOM      8  C   UNL     1       7.106 -10.504  -0.387  0.00  0.00    +0.002 C 
ATOM      9  C   UNL     1       6.807 -10.275   1.095  0.00  0.00    +0.024 C 
ATOM     10  C   UNL     1       5.652  -9.281   1.235  0.00  0.00    +0.093 C 
BRANCH  10  11
ATOM     11  N   UNL     1       6.024  -8.009   0.610  0.00  0.00    -0.307 N 
ATOM     12  C   UNL     1       6.725  -7.094   1.308  0.00  0.00    +0.244 C 
ATOM     13  O   UNL     1       7.049  -7.324   2.457  0.00  0.00    -0.270 OA
ATOM     14  H   UNL     1       5.766  -7.825  -0.307  0.00  0.00    +0.149 HD
BRANCH  12  15
ATOM     15  C   UNL     1       7.101  -5.812   0.677  0.00  0.00    +0.037 A 
ATOM     16  C   UNL     1       6.726  -5.542  -0.640  0.00  0.00    +0.014 A 
ATOM     17  C   UNL     1       7.078  -4.343  -1.223  0.00  0.00    +0.021 A 
ATOM     18  C   UNL     1       7.804  -3.408  -0.504  0.00  0.00    +0.041 A 
ATOM     19  C   UNL     1       8.179  -3.669   0.803  0.00  0.00    +0.021 A 
ATOM     20  C   UNL     1       7.827  -4.862   1.399  0.00  0.00    +0.014 A 
ATOM     21 CL   UNL     1       8.245  -1.901  -1.245  0.00  0.00    -0.084 Cl
ENDBRANCH  12  15
ENDBRANCH  10  11
ENDBRANCH   3   5
BRANCH   1  24
ATOM     22  C   UNL     1       0.090  -6.277   1.043  0.00  0.00    +0.116 A 
ATOM     23  N   UNL     1       1.127  -7.062   0.933  0.00  0.00    -0.236 NA
ATOM     24  C   UNL     1       0.917  -8.370   0.754  0.00  0.00    +0.133 A 
ATOM     25  C   UNL     1      -0.392  -8.768   0.702  0.00  0.00    +0.080 A 
ATOM     26  S   UNL     1      -1.219  -7.320   0.909  0.00  0.00    -0.076 S 
BRANCH  22  27
ATOM     27  C   UNL     1       0.072  -4.785   1.249  0.00  0.00    +0.291 C 
BRANCH  27  28
ATOM     28  O   UNL     1       0.057  -4.129  -0.021  0.00  0.00    -0.485 OA
BRANCH  28  33
ATOM     29  C   UNL     1      -0.018   1.503   0.010  0.00  0.00    +0.044 C 
ATOM     30  C   UNL     1       0.002  -0.004   0.002  0.00  0.00    -0.050 A 
ATOM     31  C   UNL     1       0.006  -0.688  -1.200  0.00  0.00    +0.007 A 
ATOM     32  C   UNL     1       0.024  -2.069  -1.210  0.00  0.00    +0.046 A 
ATOM     33  C   UNL     1       0.039  -2.770  -0.013  0.00  0.00    +0.121 A 
ATOM     34  C   UNL     1       0.036  -2.082   1.191  0.00  0.00    +0.046 A 
ATOM     35  C   UNL     1       0.023  -0.701   1.196  0.00  0.00    +0.007 A 
ENDBRANCH  28  33
ENDBRANCH  27  28
ENDBRANCH  22  27
ENDBRANCH   1  24
TORSDOF 7
