REMARK  Name = ZINC13028813
REMARK  12 active torsions:
REMARK  status: ('A' for Active; 'I' for Inactive)
REMARK    1  A    between atoms: C_1  and  O_2
REMARK    2  A    between atoms: O_2  and  C_3
REMARK    3  A    between atoms: C_7  and  C_11
REMARK    4  A    between atoms: C_8  and  O_9
REMARK    5  A    between atoms: O_9  and  C_10
REMARK    6  A    between atoms: C_11  and  C_13
REMARK    7  A    between atoms: C_11  and  N_22
REMARK    8  A    between atoms: N_15  and  C_16
REMARK    9  A    between atoms: N_22  and  C_23
REMARK   10  A    between atoms: C_23  and  C_24
REMARK   11  A    between atoms: C_29  and  C_31
REMARK   12  A    between atoms: C_31  and  N_32
REMARK                            x       y       z     vdW  Elec       q    Type
REMARK                         _______ _______ _______ _____ _____    ______ ____
ROOT
ATOM      1  C   UNL     1      -5.758   3.224  -3.038  0.00  0.00    +0.196 C 
ENDROOT
BRANCH   1   6
ATOM      2  C   UNL     1      -8.122   6.128  -3.592  0.00  0.00    +0.162 A 
ATOM      3  C   UNL     1      -9.316   5.597  -3.132  0.00  0.00    +0.049 A 
ATOM      4  C   UNL     1      -9.355   4.303  -2.644  0.00  0.00    +0.004 A 
ATOM      5  C   UNL     1      -8.204   3.538  -2.615  0.00  0.00    +0.010 A 
ATOM      6  C   UNL     1      -7.010   4.062  -3.072  0.00  0.00    +0.027 A 
ATOM      7  C   UNL     1      -6.963   5.359  -3.557  0.00  0.00    +0.167 A 
BRANCH   2   9
ATOM      8  C   UNL     1      -9.309   8.132  -4.071  0.00  0.00    +0.277 C 
ATOM      9  O   UNL     1      -8.082   7.400  -4.071  0.00  0.00    -0.491 OA
ENDBRANCH   2   9
BRANCH   7  10
ATOM     10  O   UNL     1      -5.787   5.878  -4.003  0.00  0.00    -0.491 OA
ATOM     11  C   UNL     1      -5.535   5.801  -5.407  0.00  0.00    +0.277 C 
ENDBRANCH   7  10
ENDBRANCH   1   6
BRANCH   1  12
ATOM     12  C   UNL     1      -6.127   1.775  -2.848  0.00  0.00    +0.238 C 
ATOM     13  O   UNL     1      -6.005   1.256  -1.759  0.00  0.00    -0.273 OA
ATOM     14  N   UNL     1      -6.594   1.057  -3.888  0.00  0.00    -0.311 N 
ATOM     15  H   UNL     1      -6.629   1.452  -4.774  0.00  0.00    +0.149 HD
BRANCH  14  16
ATOM     16  C   UNL     1      -7.048  -0.321  -3.682  0.00  0.00    +0.073 C 
ATOM     17  C   UNL     1      -5.849  -1.269  -3.754  0.00  0.00    +0.022 C 
ATOM     18  C   UNL     1      -6.323  -2.708  -3.539  0.00  0.00    +0.002 C 
ATOM     19  C   UNL     1      -7.333  -3.080  -4.625  0.00  0.00    +0.000 C 
ATOM     20  C   UNL     1      -8.532  -2.132  -4.554  0.00  0.00    +0.002 C 
ATOM     21  C   UNL     1      -8.058  -0.693  -4.769  0.00  0.00    +0.022 C 
ENDBRANCH  14  16
ENDBRANCH   1  12
BRANCH   1  22
ATOM     22  N   UNL     1      -4.908   3.661  -1.928  0.00  0.00    -0.277 N 
ATOM     23  C   UNL     1      -3.628   4.016  -2.158  0.00  0.00    +0.238 C 
ATOM     24  O   UNL     1      -3.180   3.974  -3.284  0.00  0.00    -0.274 OA
BRANCH  22  25
ATOM     25  C   UNL     1      -5.449   3.712  -0.568  0.00  0.00    +0.183 C 
BRANCH  25  26
ATOM     26  C   UNL     1      -5.913   5.113  -0.264  0.00  0.00    +0.122 A 
ATOM     27  C   UNL     1      -7.174   5.567  -0.382  0.00  0.00    +0.046 A 
ATOM     28  C   UNL     1      -7.158   6.927   0.003  0.00  0.00    +0.041 A 
ATOM     29  C   UNL     1      -5.888   7.223   0.334  0.00  0.00    +0.195 A 
ATOM     30  O   UNL     1      -5.140   6.119   0.176  0.00  0.00    -0.466 OA
ENDBRANCH  25  26
ENDBRANCH  22  25
BRANCH  23  31
ATOM     31  C   UNL     1      -2.754   4.466  -1.016  0.00  0.00    +0.241 C 
BRANCH  31  32
ATOM     32  N   UNL     1      -1.419   4.793  -1.522  0.00  0.00    -0.235 N 
ATOM     33  C   UNL     1      -0.350   3.937  -1.640  0.00  0.00    +0.090 A 
ATOM     34  C   UNL     1      -0.158   2.588  -1.360  0.00  0.00    +0.029 A 
ATOM     35  C   UNL     1       1.060   2.013  -1.593  0.00  0.00    +0.002 A 
ATOM     36  C   UNL     1       2.107   2.761  -2.116  0.00  0.00    +0.002 A 
ATOM     37  C   UNL     1       1.942   4.085  -2.403  0.00  0.00    +0.032 A 
ATOM     38  C   UNL     1       0.705   4.700  -2.170  0.00  0.00    +0.113 A 
ATOM     39  N   UNL     1       0.251   5.956  -2.349  0.00  0.00    -0.129 NA
ATOM     40  N   UNL     1      -0.979   6.044  -1.982  0.00  0.00    -0.064 NA
ENDBRANCH  31  32
ENDBRANCH  23  31
ENDBRANCH   1  22
TORSDOF 10
