REMARK  Name = ZINC10861450
REMARK  8 active torsions:
REMARK  status: ('A' for Active; 'I' for Inactive)
REMARK    1  A    between atoms: C_1  and  C_2
REMARK    2  A    between atoms: C_15  and  C_17
REMARK    3  A    between atoms: C_17  and  C_19
REMARK    4  A    between atoms: C_17  and  S_20
REMARK    5  A    between atoms: S_20  and  C_21
REMARK    6  A    between atoms: N_25  and  C_26
REMARK    7  A    between atoms: C_29  and  O_32
REMARK    8  A    between atoms: O_32  and  C_33
REMARK                            x       y       z     vdW  Elec       q    Type
REMARK                         _______ _______ _______ _____ _____    ______ ____
ROOT
ATOM      1  C   UNL     1       3.546   2.093  -1.322  0.00  0.00    +0.008 C 
ATOM      2  C   UNL     1       2.194   1.398  -1.157  0.00  0.00    -0.009 C 
ATOM      3  C   UNL     1       1.421   2.037  -0.001  0.00  0.00    +0.008 C 
ATOM      4  C   UNL     1      -0.019   1.522   0.010  0.00  0.00    +0.037 C 
ATOM      5  C   UNL     1       0.002  -0.004   0.002  0.00  0.00    -0.023 A 
ATOM      6  C   UNL     1       1.113  -0.674  -0.386  0.00  0.00    -0.004 A 
ATOM      7  S   UNL     1       0.692  -2.393  -0.240  0.00  0.00    -0.073 S 
ATOM      8  C   UNL     1      -0.965  -2.210   0.338  0.00  0.00    +0.116 A 
ATOM      9  C   UNL     1      -1.139  -0.809   0.399  0.00  0.00    +0.075 A 
ATOM     10  C   UNL     1      -2.417  -0.330   0.843  0.00  0.00    +0.260 A 
ATOM     11  O   UNL     1      -2.669   0.859   0.931  0.00  0.00    -0.267 OA
ATOM     12  N   UNL     1      -3.325  -1.284   1.159  0.00  0.00    -0.309 N 
ATOM     13  H   UNL     1      -4.202  -1.005   1.464  0.00  0.00    +0.170 HD
ATOM     14  C   UNL     1      -3.065  -2.611   1.068  0.00  0.00    +0.124 A 
ATOM     15  N   UNL     1      -1.908  -3.088   0.665  0.00  0.00    -0.225 NA
ATOM     16  C   UNL     1       2.414  -0.088  -0.839  0.00  0.00    +0.046 C 
ENDROOT
BRANCH  14  17
ATOM     17  C   UNL     1      -4.152  -3.584   1.446  0.00  0.00    +0.117 C 
ATOM     18  C   UNL     1      -3.970  -4.009   2.905  0.00  0.00    +0.027 C 
BRANCH  17  19
ATOM     19  S   UNL     1      -5.767  -2.792   1.245  0.00  0.00    -0.073 S 
BRANCH  19  20
ATOM     20  C   UNL     1      -6.823  -4.158   1.596  0.00  0.00    +0.215 A 
ATOM     21  N   UNL     1      -6.445  -5.379   1.909  0.00  0.00    -0.101 NA
ATOM     22  N   UNL     1      -7.468  -6.131   2.103  0.00  0.00    -0.022 NA
ATOM     23  N   UNL     1      -8.556  -5.462   1.932  0.00  0.00    -0.038 NA
ATOM     24  N   UNL     1      -8.180  -4.149   1.601  0.00  0.00    -0.187 N 
BRANCH  24  25
ATOM     25  C   UNL     1      -9.025  -3.062   1.331  0.00  0.00    +0.070 A 
ATOM     26  C   UNL     1      -8.657  -1.782   1.721  0.00  0.00    +0.031 A 
ATOM     27  C   UNL     1      -9.487  -0.712   1.450  0.00  0.00    +0.048 A 
ATOM     28  C   UNL     1     -10.694  -0.918   0.798  0.00  0.00    +0.120 A 
ATOM     29  C   UNL     1     -11.065  -2.198   0.412  0.00  0.00    +0.048 A 
ATOM     30  C   UNL     1     -10.233  -3.268   0.678  0.00  0.00    +0.031 A 
BRANCH  28  31
ATOM     31  O   UNL     1     -11.514   0.135   0.537  0.00  0.00    -0.495 OA
ATOM     32  C   UNL     1     -11.069   1.424   0.962  0.00  0.00    +0.277 C 
ENDBRANCH  28  31
ENDBRANCH  24  25
ENDBRANCH  19  20
ENDBRANCH  17  19
ENDBRANCH  14  17
TORSDOF 5
