REMARK  Name = ZINC52569921
REMARK  11 active torsions:
REMARK  status: ('A' for Active; 'I' for Inactive)
REMARK    1  A    between atoms: C_1  and  C_2
REMARK    2  A    between atoms: C_7  and  C_9
REMARK    3  A    between atoms: C_11  and  O_22
REMARK    4  A    between atoms: C_14  and  C_15
REMARK    5  A    between atoms: C_19  and  C_20
REMARK    6  A    between atoms: O_22  and  C_23
REMARK    7  A    between atoms: C_23  and  C_24
REMARK    8  A    between atoms: C_24  and  C_26
REMARK    9  A    between atoms: C_24  and  N_39
REMARK   10  A    between atoms: C_26  and  C_27
REMARK   11  A    between atoms: C_35  and  C_37
REMARK                            x       y       z     vdW  Elec       q    Type
REMARK                         _______ _______ _______ _____ _____    ______ ____
ROOT
ATOM      1  C   UNL     1       3.953   2.208  -5.937  0.00  0.00    +0.032 A 
ATOM      2  C   UNL     1       4.738   1.652  -4.921  0.00  0.00    +0.061 A 
ATOM      3  C   UNL     1       5.852   2.352  -4.491  0.00  0.00    +0.160 A 
ATOM      4  C   UNL     1       6.158   3.582  -5.079  0.00  0.00    +0.159 A 
ATOM      5  N   UNL     1       5.399   4.085  -6.038  0.00  0.00    -0.228 NA
ATOM      6  C   UNL     1       4.325   3.445  -6.484  0.00  0.00    +0.086 A 
ATOM      7  N   UNL     1       7.276   4.288  -4.649  0.00  0.00    -0.340 N 
ATOM      8  H   UNL     1       7.838   3.926  -3.946  0.00  0.00    +0.144 HD
ATOM      9  H   UNL     1       7.494   5.143  -5.053  0.00  0.00    +0.144 HD
ENDROOT
BRANCH   1  16
ATOM     10  C   UNL     1       2.025   0.069 -10.674  0.00  0.00    +0.070 C 
ATOM     11  C   UNL     1       1.207  -0.008  -9.411  0.00  0.00    +0.087 A 
ATOM     12  C   UNL     1       1.590   0.500  -8.145  0.00  0.00    +0.131 A 
ATOM     13  C   UNL     1       0.535   0.214  -7.254  0.00  0.00    +0.175 A 
ATOM     14  N   UNL     1       0.626   0.581  -5.981  0.00  0.00    -0.233 NA
ATOM     15  C   UNL     1       1.699   1.210  -5.552  0.00  0.00    +0.141 A 
ATOM     16  C   UNL     1       2.751   1.499  -6.432  0.00  0.00    +0.092 A 
ATOM     17  N   UNL     1       2.674   1.138  -7.705  0.00  0.00    -0.240 NA
ATOM     18  N   UNL     1      -0.425  -0.438  -7.982  0.00  0.00    -0.259 N 
ATOM     19  N   UNL     1       0.028  -0.548  -9.302  0.00  0.00    -0.175 NA
ATOM     20  H   UNL     1      -1.273  -0.764  -7.642  0.00  0.00    +0.191 HD
ENDBRANCH   1  16
BRANCH   6  21
ATOM     21  C   UNL     1       3.508   4.046  -7.564  0.00  0.00    +0.042 A 
ATOM     22  C   UNL     1       2.087   4.408  -7.504  0.00  0.00    +0.051 A 
ATOM     23  C   UNL     1       1.782   4.916  -8.710  0.00  0.00    +0.196 A 
ATOM     24  O   UNL     1       2.878   4.892  -9.484  0.00  0.00    -0.467 OA
ATOM     25  C   UNL     1       3.921   4.381  -8.816  0.00  0.00    +0.111 A 
ATOM     26  C   UNL     1       5.315   4.204  -9.361  0.00  0.00    +0.087 C 
ENDBRANCH   6  21
BRANCH   3  27
ATOM     27  O   UNL     1       6.642   1.847  -3.506  0.00  0.00    -0.490 OA
BRANCH  27  28
ATOM     28  C   UNL     1       6.264   0.584  -2.954  0.00  0.00    +0.213 C 
BRANCH  28  29
ATOM     29  C   UNL     1       7.263   0.181  -1.868  0.00  0.00    -0.033 C 
BRANCH  29  30
ATOM     30  N   UNL     1       7.182   1.132  -0.751  0.00  0.00    +0.382 N 
ATOM     31  H   UNL     1       7.935   0.955  -0.103  0.00  0.00    -0.089 HD
ATOM     32  H   UNL     1       7.259   2.074  -1.106  0.00  0.00    -0.089 HD
ATOM     33  H   UNL     1       6.298   1.022  -0.279  0.00  0.00    -0.089 HD
ENDBRANCH  29  30
BRANCH  29  34
ATOM     34  C   UNL     1       6.931  -1.225  -1.365  0.00  0.00    +0.021 C 
BRANCH  34  35
ATOM     35  C   UNL     1       7.980  -1.666  -0.377  0.00  0.00    -0.026 C 
ATOM     36  C   UNL     1       7.921  -1.565   0.971  0.00  0.00    +0.000 A 
ATOM     37  C   UNL     1       6.903  -1.034   1.885  0.00  0.00    +0.010 A 
ATOM     38  C   UNL     1       7.134  -1.071   3.217  0.00  0.00    +0.001 A 
ATOM     39  C   UNL     1       8.319  -1.601   3.745  0.00  0.00    +0.002 A 
ATOM     40  C   UNL     1       9.301  -2.107   2.969  0.00  0.00    +0.026 A 
ATOM     41  C   UNL     1       9.164  -2.120   1.554  0.00  0.00    +0.044 A 
ATOM     42  N   UNL     1       9.960  -2.547   0.603  0.00  0.00    -0.366 N 
ATOM     43  C   UNL     1       9.309  -2.317  -0.691  0.00  0.00    +0.210 C 
ATOM     44  H   UNL     1      10.832  -2.951   0.735  0.00  0.00    +0.161 HD
BRANCH  43  45
ATOM     45  C   UNL     1       9.095  -3.595  -1.389  0.00  0.00    +0.092 C 
ATOM     46  N   UNL     1       8.931  -4.581  -1.928  0.00  0.00    -0.194 NA
ENDBRANCH  43  45
ENDBRANCH  34  35
ENDBRANCH  29  34
ENDBRANCH  28  29
ENDBRANCH  27  28
ENDBRANCH   3  27
TORSDOF 9
