REMARK  Name = ZINC22851591
REMARK  8 active torsions:
REMARK  status: ('A' for Active; 'I' for Inactive)
REMARK    1  A    between atoms: C_5  and  N_7
REMARK    2  A    between atoms: N_10  and  C_13
REMARK    3  A    between atoms: C_13  and  C_15
REMARK    4  A    between atoms: C_13  and  C_28
REMARK    5  A    between atoms: C_15  and  N_16
REMARK    6  A    between atoms: C_17  and  C_19
REMARK    7  A    between atoms: N_21  and  C_22
REMARK    8  A    between atoms: C_22  and  C_23
REMARK                            x       y       z     vdW  Elec       q    Type
REMARK                         _______ _______ _______ _____ _____    ______ ____
ROOT
ATOM      1  C   UNL     1      -2.605  -2.583  -0.048  0.00  0.00    +0.104 C 
ENDROOT
BRANCH   1   2
ATOM      2  C   UNL     1      -2.545  -4.063   0.229  0.00  0.00    -0.025 A 
ATOM      3  C   UNL     1      -2.331  -4.516   1.517  0.00  0.00    +0.009 A 
ATOM      4  C   UNL     1      -2.280  -5.873   1.777  0.00  0.00    +0.050 A 
ATOM      5  C   UNL     1      -2.432  -6.783   0.743  0.00  0.00    +0.166 A 
ATOM      6  C   UNL     1      -2.641  -6.327  -0.556  0.00  0.00    +0.167 A 
ATOM      7  C   UNL     1      -2.697  -4.965  -0.808  0.00  0.00    +0.054 A 
ATOM      8  O   UNL     1      -2.758  -7.406  -1.383  0.00  0.00    -0.453 OA
ATOM      9  C   UNL     1      -3.026  -8.526  -0.519  0.00  0.00    +0.466 C 
ATOM     10  O   UNL     1      -2.417  -8.147   0.730  0.00  0.00    -0.453 OA
ENDBRANCH   1   2
BRANCH   1  14
ATOM     11  N   UNL     1      -5.443  -0.330   2.123  0.00  0.00    -0.325 N 
ATOM     12  C   UNL     1      -4.081   0.208   2.006  0.00  0.00    +0.120 C 
ATOM     13  C   UNL     1      -3.372  -0.458   0.825  0.00  0.00    +0.104 C 
ATOM     14  N   UNL     1      -3.345  -1.913   1.030  0.00  0.00    -0.291 NA
ATOM     15  C   UNL     1      -4.707  -2.451   1.146  0.00  0.00    +0.104 C 
ATOM     16  C   UNL     1      -5.417  -1.785   2.328  0.00  0.00    +0.120 C 
BRANCH  11  21
ATOM     17  C   UNL     1      -7.052   2.307   4.117  0.00  0.00    +0.002 A 
ATOM     18  C   UNL     1      -7.541   1.571   5.181  0.00  0.00    +0.003 A 
ATOM     19  C   UNL     1      -7.335   0.204   5.233  0.00  0.00    +0.040 A 
ATOM     20  C   UNL     1      -6.640  -0.431   4.220  0.00  0.00    +0.144 A 
ATOM     21  C   UNL     1      -6.148   0.307   3.149  0.00  0.00    +0.065 A 
ATOM     22  C   UNL     1      -6.352   1.680   3.104  0.00  0.00    +0.026 A 
ATOM     23  F   UNL     1      -6.438  -1.766   4.271  0.00  0.00    -0.204 F 
ENDBRANCH  11  21
ENDBRANCH   1  14
BRANCH   1  24
ATOM     24  C   UNL     1      -1.185  -2.019  -0.119  0.00  0.00    +0.128 C 
BRANCH  24  25
ATOM     25  N   UNL     1      -0.475  -2.623  -1.250  0.00  0.00    -0.306 N 
ATOM     26  C   UNL     1       0.831  -2.355  -1.446  0.00  0.00    +0.299 C 
ATOM     27  O   UNL     1       1.420  -1.615  -0.686  0.00  0.00    -0.265 OA
ATOM     28  H   UNL     1      -1.009  -3.294  -1.939  0.00  0.00    +0.149 HD
BRANCH  26  29
ATOM     29  C   UNL     1       1.555  -2.971  -2.599  0.00  0.00    +0.299 C 
ATOM     30  O   UNL     1       0.968  -3.715  -3.357  0.00  0.00    -0.265 OA
ATOM     31  N   UNL     1       2.861  -2.704  -2.795  0.00  0.00    -0.300 N 
ATOM     32  H   UNL     1       3.395  -2.033  -2.106  0.00  0.00    +0.150 HD
BRANCH  31  33
ATOM     33  C   UNL     1       3.571  -3.307  -3.926  0.00  0.00    +0.179 C 
BRANCH  33  34
ATOM     34  C   UNL     1       5.007  -2.851  -3.920  0.00  0.00    +0.122 A 
ATOM     35  C   UNL     1       6.025  -3.467  -3.292  0.00  0.00    +0.046 A 
ATOM     36  C   UNL     1       7.186  -2.703  -3.548  0.00  0.00    +0.041 A 
ATOM     37  C   UNL     1       6.809  -1.666  -4.317  0.00  0.00    +0.195 A 
ATOM     38  O   UNL     1       5.489  -1.764  -4.544  0.00  0.00    -0.466 OA
ENDBRANCH  33  34
ENDBRANCH  31  33
ENDBRANCH  26  29
ENDBRANCH  24  25
ENDBRANCH   1  24
TORSDOF 8
