REMARK  Name = ZINC04222461
REMARK  13 active torsions:
REMARK  status: ('A' for Active; 'I' for Inactive)
REMARK    1  A    between atoms: C_1  and  C_2
REMARK    2  A    between atoms: C_5  and  O_36
REMARK    3  A    between atoms: C_7  and  C_33
REMARK    4  A    between atoms: C_7  and  C_34
REMARK    5  A    between atoms: C_17  and  C_19
REMARK    6  A    between atoms: C_23  and  C_25
REMARK    7  A    between atoms: C_25  and  C_26
REMARK    8  A    between atoms: N_28  and  C_29
REMARK    9  A    between atoms: C_29  and  C_30
REMARK   10  A    between atoms: C_30  and  N_74
REMARK   11  A    between atoms: C_31  and  N_74
REMARK   12  A    between atoms: C_32  and  N_74
REMARK   13  A    between atoms: C_34  and  O_35
REMARK                            x       y       z     vdW  Elec       q    Type
REMARK                         _______ _______ _______ _____ _____    ______ ____
ROOT
ATOM      1  C   UNL     1      -0.971   6.261  -6.402  0.00  0.00    +0.012 C 
ATOM      2  C   UNL     1      -2.255   6.718  -5.705  0.00  0.00    -0.019 C 
ATOM      3  C   UNL     1      -2.506   8.201  -5.997  0.00  0.00    +0.010 C 
ATOM      4  C   UNL     1      -2.740   8.433  -7.475  0.00  0.00    +0.032 C 
ATOM      5  C   UNL     1      -3.967   7.629  -7.917  0.00  0.00    +0.123 C 
ATOM      6  C   UNL     1      -3.691   6.145  -7.685  0.00  0.00    +0.021 C 
ATOM      7  C   UNL     1      -3.434   5.876  -6.199  0.00  0.00    +0.011 C 
ATOM      8  C   UNL     1      -3.081   4.384  -6.047  0.00  0.00    +0.049 C 
ATOM      9  C   UNL     1      -2.494   4.158  -4.699  0.00  0.00    +0.015 A 
ATOM     10  C   UNL     1      -2.037   5.092  -3.825  0.00  0.00    +0.058 A 
ATOM     11  N   UNL     1      -1.558   4.628  -2.673  0.00  0.00    -0.229 NA
ATOM     12  C   UNL     1      -1.519   3.341  -2.397  0.00  0.00    +0.165 A 
ATOM     13  S   UNL     1      -2.211   2.639  -3.829  0.00  0.00    -0.057 S 
ATOM     14  N   UNL     1      -1.050   2.707  -1.252  0.00  0.00    -0.264 N 
ATOM     15  C   UNL     1      -1.102   1.363  -1.157  0.00  0.00    +0.222 C 
ATOM     16  O   UNL     1      -1.558   0.708  -2.069  0.00  0.00    -0.275 OA
ATOM     17  C   UNL     1      -2.096   6.568  -4.186  0.00  0.00    +0.054 C 
ATOM     18  C   UNL     1      -4.899   5.327  -8.146  0.00  0.00    +0.016 C 
ATOM     19  H   UNL     1      -0.685   3.231  -0.522  0.00  0.00    +0.157 HD
ENDROOT
BRANCH  15  20
ATOM     20  C   UNL     1      -0.594   0.676   0.085  0.00  0.00    +0.075 C 
ATOM     21  C   UNL     1       0.930   0.468   0.094  0.00  0.00    +0.013 C 
ATOM     22  C   UNL     1       0.658  -0.915   0.709  0.00  0.00    +0.001 C 
ATOM     23  C   UNL     1      -0.724  -0.856   0.037  0.00  0.00    +0.013 C 
ENDBRANCH  15  20
BRANCH   5  24
ATOM     24  O   UNL     1      -4.216   7.859  -9.305  0.00  0.00    -0.391 OA
ATOM     25  H   UNL     1      -4.399   8.783  -9.524  0.00  0.00    +0.210 HD
ENDBRANCH   5  24
BRANCH  17  26
ATOM     26  C   UNL     1      -0.804   7.255  -3.738  0.00  0.00    +0.106 C 
BRANCH  26  27
ATOM     27  C   UNL     1      -0.743   7.276  -2.233  0.00  0.00    +0.214 C 
ATOM     28  O   UNL     1      -1.643   6.789  -1.582  0.00  0.00    -0.276 OA
ATOM     29  N   UNL     1       0.313   7.835  -1.609  0.00  0.00    -0.317 N 
ATOM     30  H   UNL     1       1.033   8.224  -2.129  0.00  0.00    +0.149 HD
BRANCH  29  31
ATOM     31  C   UNL     1       0.373   7.855  -0.145  0.00  0.00    +0.085 C 
BRANCH  31  32
ATOM     32  C   UNL     1       1.664   8.542   0.303  0.00  0.00    -0.061 C 
BRANCH  32  35
ATOM     33  C   UNL     1       1.846   7.202   2.311  0.00  0.00    -0.097 C 
ATOM     34  C   UNL     1       2.823   9.416   2.241  0.00  0.00    -0.097 C 
ATOM     35  N   UNL     1       1.700   8.574   1.780  0.00  0.00    +0.377 N 
ATOM     36  H   UNL     1       0.820   8.973   2.126  0.00  0.00    -0.083 HD
ENDBRANCH  32  35
ENDBRANCH  31  32
ENDBRANCH  29  31
ENDBRANCH  26  27
ENDBRANCH  17  26
BRANCH   6  37
ATOM     37  C   UNL     1      -2.460   5.730  -8.494  0.00  0.00    +0.165 C 
BRANCH  37  38
ATOM     38  O   UNL     1      -2.754   5.826  -9.890  0.00  0.00    -0.394 OA
ATOM     39  H   UNL     1      -2.017   5.577 -10.464  0.00  0.00    +0.209 HD
ENDBRANCH  37  38
ENDBRANCH   6  37
TORSDOF 9
