REMARK  Name = ZINC04134726
REMARK  3 active torsions:
REMARK  status: ('A' for Active; 'I' for Inactive)
REMARK    1  A    between atoms: C_2  and  C_8
REMARK    2  A    between atoms: N_10  and  C_11
REMARK    3  A    between atoms: C_12  and  C_21
REMARK                            x       y       z     vdW  Elec       q    Type
REMARK                         _______ _______ _______ _____ _____    ______ ____
ROOT
ATOM      1  C   UNL     1       2.353   1.226  -0.014  0.00  0.00    +0.085 A 
ATOM      2  C   UNL     1       3.635   1.753  -0.029  0.00  0.00    +0.068 A 
ATOM      3  C   UNL     1       4.752   0.818  -0.036  0.00  0.00    -0.023 A 
ATOM      4  C   UNL     1       4.402  -0.487  -0.044  0.00  0.00    -0.004 A 
ATOM      5  S   UNL     1       2.630  -0.484  -0.026  0.00  0.00    -0.077 S 
ATOM      6  C   UNL     1       5.309  -1.677  -0.077  0.00  0.00    +0.043 C 
ATOM      7  C   UNL     1       6.398  -1.514   0.992  0.00  0.00    +0.005 C 
ATOM      8  C   UNL     1       7.580  -0.780   0.367  0.00  0.00    +0.001 C 
ATOM      9  C   UNL     1       7.087   0.215  -0.681  0.00  0.00    +0.005 C 
ATOM     10  C   UNL     1       6.204   1.277  -0.033  0.00  0.00    +0.037 C 
ENDROOT
BRANCH   2  11
ATOM     11  C   UNL     1       3.859   3.201  -0.034  0.00  0.00    +0.244 C 
ATOM     12  O   UNL     1       3.964   3.804   1.018  0.00  0.00    -0.270 OA
ATOM     13  N   UNL     1       3.948   3.866  -1.203  0.00  0.00    -0.325 N 
ATOM     14  H   UNL     1       3.865   3.385  -2.041  0.00  0.00    +0.145 HD
ATOM     15  H   UNL     1       4.097   4.824  -1.206  0.00  0.00    +0.145 HD
ENDBRANCH   2  11
BRANCH   1  18
ATOM     16  C   UNL     1      -0.014   1.212   0.009  0.00  0.00    +0.251 C 
ATOM     17  O   UNL     1       0.002  -0.004   0.002  0.00  0.00    -0.270 OA
ATOM     18  N   UNL     1       1.143   1.902   0.001  0.00  0.00    -0.275 N 
ATOM     19  H   UNL     1       1.130   2.872   0.007  0.00  0.00    +0.156 HD
BRANCH  16  21
ATOM     20  C   UNL     1      -1.355   3.372   0.032  0.00  0.00    +0.042 A 
ATOM     21  C   UNL     1      -1.297   1.930   0.019  0.00  0.00    +0.064 A 
ATOM     22  C   UNL     1      -2.502   1.255   0.021  0.00  0.00    +0.091 A 
ATOM     23  S   UNL     1      -3.673   2.531   0.034  0.00  0.00    -0.064 S 
ATOM     24  C   UNL     1      -2.579   3.936   0.036  0.00  0.00    +0.080 A 
ATOM     25 CL   UNL     1      -2.989   5.623   0.048  0.00  0.00    -0.076 Cl
ATOM     26 CL   UNL     1      -2.777  -0.460   0.013  0.00  0.00    -0.075 Cl
ENDBRANCH  16  21
ENDBRANCH   1  18
TORSDOF 3
