REMARK  Name = ZINC02672795
REMARK  13 active torsions:
REMARK  status: ('A' for Active; 'I' for Inactive)
REMARK    1  A    between atoms: C_1  and  C_2
REMARK    2  A    between atoms: C_2  and  O_3
REMARK    3  A    between atoms: O_3  and  C_4
REMARK    4  A    between atoms: C_4  and  C_6
REMARK    5  A    between atoms: C_7  and  C_31
REMARK    6  A    between atoms: C_8  and  C_28
REMARK    7  A    between atoms: C_10  and  N_11
REMARK    8  A    between atoms: N_11  and  C_12
REMARK    9  A    between atoms: C_12  and  C_14
REMARK   10  A    between atoms: C_12  and  N_18
REMARK   11  A    between atoms: C_19  and  C_21
REMARK   12  A    between atoms: C_24  and  C_27
REMARK   13  A    between atoms: C_28  and  C_30
REMARK                            x       y       z     vdW  Elec       q    Type
REMARK                         _______ _______ _______ _____ _____    ______ ____
ROOT
ATOM      1  N   UNL     1      -3.984   2.533   2.705  0.00  0.00    -0.316 N 
ATOM      2  H   UNL     1      -4.646   2.428   2.004  0.00  0.00    +0.148 HD
ENDROOT
BRANCH   1   7
ATOM      3  C   UNL     1      -2.083   1.798   1.257  0.00  0.00    +0.091 A 
ATOM      4  C   UNL     1      -0.718   1.572   1.248  0.00  0.00    -0.017 A 
ATOM      5  C   UNL     1      -0.025   1.815   2.421  0.00  0.00    +0.060 A 
ATOM      6  S   UNL     1      -1.312   2.355   3.530  0.00  0.00    -0.070 S 
ATOM      7  C   UNL     1      -2.665   2.246   2.452  0.00  0.00    +0.082 A 
ATOM      8  C   UNL     1      -0.013   1.086   0.008  0.00  0.00    +0.046 C 
BRANCH   5   9
ATOM      9  C   UNL     1       1.353   1.672   2.675  0.00  0.00    +0.167 C 
ATOM     10  O   UNL     1       2.096   1.287   1.794  0.00  0.00    -0.292 OA
ATOM     11  C   UNL     1       1.905   1.995   4.040  0.00  0.00    +0.092 C 
ENDBRANCH   5   9
BRANCH   3  12
ATOM     12  C   UNL     1      -2.896   1.572   0.057  0.00  0.00    +0.342 C 
ATOM     13  O   UNL     1      -3.396   0.482  -0.142  0.00  0.00    -0.245 OA
BRANCH  12  14
ATOM     14  O   UNL     1      -3.089   2.574  -0.825  0.00  0.00    -0.461 OA
BRANCH  14  16
ATOM     15  C   UNL     1      -4.009   3.526  -2.868  0.00  0.00    +0.048 C 
ATOM     16  C   UNL     1      -3.904   2.278  -1.990  0.00  0.00    +0.229 C 
ENDBRANCH  14  16
ENDBRANCH  12  14
ENDBRANCH   3  12
ENDBRANCH   1   7
BRANCH   1  17
ATOM     17  C   UNL     1      -4.391   2.998   4.033  0.00  0.00    +0.211 C 
BRANCH  17  18
ATOM     18  C   UNL     1      -5.346   4.185   3.887  0.00  0.00    +0.225 C 
ATOM     19 CL   UNL     1      -6.803   3.673   2.957  0.00  0.00    -0.080 Cl
ATOM     20 CL   UNL     1      -5.846   4.758   5.521  0.00  0.00    -0.080 Cl
ATOM     21 CL   UNL     1      -4.513   5.522   3.010  0.00  0.00    -0.080 Cl
ENDBRANCH  17  18
BRANCH  17  22
ATOM     22  N   UNL     1      -5.067   1.912   4.745  0.00  0.00    -0.290 N 
ATOM     23  C   UNL     1      -4.429   1.253   5.733  0.00  0.00    +0.246 C 
ATOM     24  O   UNL     1      -3.293   1.562   6.033  0.00  0.00    -0.270 OA
ATOM     25  H   UNL     1      -5.975   1.666   4.505  0.00  0.00    +0.151 HD
BRANCH  23  26
ATOM     26  C   UNL     1      -5.112   0.157   6.452  0.00  0.00    +0.037 A 
ATOM     27  C   UNL     1      -6.420  -0.196   6.113  0.00  0.00    +0.013 A 
ATOM     28  C   UNL     1      -7.050  -1.223   6.785  0.00  0.00    +0.004 A 
ATOM     29  C   UNL     1      -6.392  -1.897   7.799  0.00  0.00    -0.050 A 
ATOM     30  C   UNL     1      -5.098  -1.549   8.142  0.00  0.00    +0.004 A 
ATOM     31  C   UNL     1      -4.455  -0.527   7.475  0.00  0.00    +0.013 A 
ATOM     32  C   UNL     1      -7.088  -3.014   8.532  0.00  0.00    +0.044 C 
ENDBRANCH  23  26
ENDBRANCH  17  22
ENDBRANCH   1  17
TORSDOF 9
