REMARK  Name = ZINC36528229
REMARK  15 active torsions:
REMARK  status: ('A' for Active; 'I' for Inactive)
REMARK    1  A    between atoms: C_1  and  C_2
REMARK    2  A    between atoms: C_2  and  C_3
REMARK    3  A    between atoms: C_3  and  C_4
REMARK    4  A    between atoms: C_4  and  C_5
REMARK    5  A    between atoms: C_5  and  C_6
REMARK    6  A    between atoms: C_6  and  C_8
REMARK    7  A    between atoms: C_6  and  N_22
REMARK    8  A    between atoms: N_10  and  C_11
REMARK    9  A    between atoms: C_11  and  S_12
REMARK   10  A    between atoms: S_12  and  C_15
REMARK   11  A    between atoms: C_18  and  C_21
REMARK   12  A    between atoms: N_22  and  C_23
REMARK   13  A    between atoms: C_24  and  C_26
REMARK   14  A    between atoms: C_28  and  N_35
REMARK   15  A    between atoms: C_30  and  N_32
REMARK                            x       y       z     vdW  Elec       q    Type
REMARK                         _______ _______ _______ _____ _____    ______ ____
ROOT
ATOM      1  C   UNL     1       1.480  -4.033  -2.594  0.00  0.00    +0.162 C 
ENDROOT
BRANCH   1   2
ATOM      2  C   UNL     1       2.249  -4.519  -3.796  0.00  0.00    +0.235 C 
ATOM      3  O   UNL     1       1.708  -5.230  -4.615  0.00  0.00    -0.274 OA
ATOM      4  N   UNL     1       3.539  -4.162  -3.959  0.00  0.00    -0.295 N 
ATOM      5  H   UNL     1       3.972  -3.594  -3.304  0.00  0.00    +0.150 HD
BRANCH   4   6
ATOM      6  C   UNL     1       4.286  -4.634  -5.128  0.00  0.00    +0.278 C 
BRANCH   6   7
ATOM      7  S   UNL     1       4.224  -3.377  -6.434  0.00  0.00    +0.013 S 
ATOM      8  O   UNL     1       4.997  -3.792  -7.551  0.00  0.00    -0.168 OA
ATOM      9  O   UNL     1       2.890  -2.917  -6.607  0.00  0.00    -0.168 OA
BRANCH   7  10
ATOM     10  C   UNL     1       5.094  -1.994  -5.773  0.00  0.00    +0.090 A 
ATOM     11  C   UNL     1       4.415  -1.030  -5.052  0.00  0.00    +0.027 A 
ATOM     12  C   UNL     1       5.099   0.054  -4.534  0.00  0.00    +0.005 A 
ATOM     13  C   UNL     1       6.461   0.174  -4.737  0.00  0.00    -0.050 A 
ATOM     14  C   UNL     1       7.140  -0.790  -5.458  0.00  0.00    +0.005 A 
ATOM     15  C   UNL     1       6.457  -1.877  -5.972  0.00  0.00    +0.027 A 
ATOM     16  C   UNL     1       7.205   1.357  -4.173  0.00  0.00    +0.044 C 
ENDBRANCH   7  10
ENDBRANCH   6   7
ENDBRANCH   4   6
ENDBRANCH   1   2
BRANCH   1  17
ATOM     17  N   UNL     1       0.112  -4.554  -2.646  0.00  0.00    -0.289 N 
ATOM     18  C   UNL     1      -0.755  -4.222  -3.779  0.00  0.00    +0.133 C 
ATOM     19  C   UNL     1      -0.348  -5.340  -1.652  0.00  0.00    +0.247 C 
ATOM     20  O   UNL     1       0.331  -5.529  -0.663  0.00  0.00    -0.270 OA
BRANCH  19  21
ATOM     21  C   UNL     1      -1.681  -5.971  -1.766  0.00  0.00    +0.041 A 
ATOM     22  C   UNL     1      -2.147  -6.404  -3.008  0.00  0.00    +0.046 A 
ATOM     23  C   UNL     1      -3.391  -6.992  -3.107  0.00  0.00    +0.129 A 
ATOM     24  C   UNL     1      -4.176  -7.153  -1.979  0.00  0.00    +0.065 A 
ATOM     25  C   UNL     1      -3.719  -6.726  -0.745  0.00  0.00    +0.129 A 
ATOM     26  C   UNL     1      -2.475  -6.141  -0.631  0.00  0.00    +0.046 A 
BRANCH  25  27
ATOM     27  N   UNL     1      -4.565  -6.902   0.457  0.00  0.00    +0.057 N 
ATOM     28  O   UNL     1      -5.654  -7.419   0.360  0.00  0.00    -0.126 OA
ATOM     29  O   UNL     1      -4.167  -6.529   1.536  0.00  0.00    -0.126 OA
ENDBRANCH  25  27
BRANCH  23  30
ATOM     30  N   UNL     1      -3.888  -7.452  -4.424  0.00  0.00    +0.057 N 
ATOM     31  O   UNL     1      -3.204  -7.312  -5.410  0.00  0.00    -0.126 OA
ATOM     32  O   UNL     1      -4.978  -7.968  -4.512  0.00  0.00    -0.126 OA
ENDBRANCH  23  30
ENDBRANCH  19  21
ENDBRANCH   1  17
BRANCH   1  33
ATOM     33  C   UNL     1       1.444  -2.504  -2.595  0.00  0.00    +0.032 C 
BRANCH  33  34
ATOM     34  C   UNL     1       0.773  -2.009  -1.313  0.00  0.00    +0.002 C 
BRANCH  34  35
ATOM     35  C   UNL     1       0.737  -0.479  -1.314  0.00  0.00    -0.000 C 
BRANCH  35  37
ATOM     36  C   UNL     1       0.029   1.546  -0.033  0.00  0.00    +0.004 C 
ATOM     37  C   UNL     1       0.065   0.016  -0.031  0.00  0.00    -0.003 C 
ENDBRANCH  35  37
ENDBRANCH  34  35
ENDBRANCH  33  34
ENDBRANCH   1  33
TORSDOF 12
