REMARK  Name = ZINC39755230
REMARK  10 active torsions:
REMARK  status: ('A' for Active; 'I' for Inactive)
REMARK    1  A    between atoms: C_1  and  C_2
REMARK    2  A    between atoms: C_2  and  C_4
REMARK    3  A    between atoms: C_2  and  N_28
REMARK    4  A    between atoms: C_7  and  S_15
REMARK    5  A    between atoms: N_8  and  C_9
REMARK    6  A    between atoms: S_15  and  C_16
REMARK    7  A    between atoms: C_16  and  C_17
REMARK    8  A    between atoms: N_19  and  C_20
REMARK    9  A    between atoms: C_20  and  C_21
REMARK   10  A    between atoms: C_29  and  C_31
REMARK                            x       y       z     vdW  Elec       q    Type
REMARK                         _______ _______ _______ _____ _____    ______ ____
ROOT
ATOM      1  C   UNL     1       0.731  -0.503   1.223  0.00  0.00    +0.159 A 
ATOM      2  N   UNL     1       0.272  -0.523   2.442  0.00  0.00    -0.131 NA
ATOM      3  N   UNL     1       1.153  -1.013   3.239  0.00  0.00    -0.122 NA
ATOM      4  C   UNL     1       2.233  -1.336   2.567  0.00  0.00    +0.197 A 
ATOM      5  N   UNL     1       1.996  -1.026   1.256  0.00  0.00    -0.273 N 
ENDROOT
BRANCH   5   6
ATOM      6  C   UNL     1       2.869  -1.204   0.172  0.00  0.00    +0.050 A 
ATOM      7  C   UNL     1       2.542  -2.089  -0.846  0.00  0.00    +0.026 A 
ATOM      8  C   UNL     1       3.403  -2.262  -1.912  0.00  0.00    +0.002 A 
ATOM      9  C   UNL     1       4.589  -1.554  -1.966  0.00  0.00    +0.000 A 
ATOM     10  C   UNL     1       4.918  -0.671  -0.954  0.00  0.00    +0.002 A 
ATOM     11  C   UNL     1       4.058  -0.490   0.112  0.00  0.00    +0.026 A 
ENDBRANCH   5   6
BRANCH   1  13
ATOM     12  C   UNL     1      -0.019   1.526   0.010  0.00  0.00    +0.036 C 
ATOM     13  C   UNL     1       0.002  -0.004   0.002  0.00  0.00    +0.139 C 
BRANCH  13  14
ATOM     14  N   UNL     1      -1.372  -0.511   0.012  0.00  0.00    -0.299 N 
ATOM     15  C   UNL     1      -2.051  -0.643  -1.145  0.00  0.00    +0.280 C 
ATOM     16  O   UNL     1      -1.522  -0.340  -2.198  0.00  0.00    -0.267 OA
ATOM     17  H   UNL     1      -1.794  -0.752   0.852  0.00  0.00    +0.150 HD
BRANCH  15  18
ATOM     18  C   UNL     1      -3.427  -1.150  -1.134  0.00  0.00    +0.189 A 
ATOM     19  C   UNL     1      -4.221  -1.337  -2.229  0.00  0.00    +0.054 A 
ATOM     20  C   UNL     1      -5.447  -1.835  -1.758  0.00  0.00    +0.042 A 
ATOM     21  C   UNL     1      -5.347  -1.929  -0.414  0.00  0.00    +0.196 A 
ATOM     22  O   UNL     1      -4.127  -1.520  -0.042  0.00  0.00    -0.458 OA
ENDBRANCH  15  18
ENDBRANCH  13  14
ENDBRANCH   1  13
BRANCH   4  23
ATOM     23  S   UNL     1       3.707  -2.043   3.227  0.00  0.00    -0.076 S 
BRANCH  23  24
ATOM     24  C   UNL     1       3.360  -2.202   5.001  0.00  0.00    +0.173 C 
BRANCH  24  25
ATOM     25  C   UNL     1       4.556  -2.801   5.694  0.00  0.00    +0.224 C 
ATOM     26  O   UNL     1       5.545  -3.093   5.055  0.00  0.00    -0.275 OA
ATOM     27  N   UNL     1       4.527  -3.014   7.025  0.00  0.00    -0.310 N 
ATOM     28  H   UNL     1       3.737  -2.781   7.536  0.00  0.00    +0.149 HD
BRANCH  27  29
ATOM     29  C   UNL     1       5.690  -3.597   7.699  0.00  0.00    +0.141 C 
BRANCH  29  30
ATOM     30  C   UNL     1       5.402  -3.729   9.172  0.00  0.00    -0.012 A 
ATOM     31  C   UNL     1       5.891  -2.788  10.059  0.00  0.00    +0.006 A 
ATOM     32  C   UNL     1       5.627  -2.909  11.411  0.00  0.00    +0.000 A 
ATOM     33  C   UNL     1       4.875  -3.972  11.876  0.00  0.00    +0.001 A 
ATOM     34  C   UNL     1       4.386  -4.913  10.991  0.00  0.00    +0.020 A 
ATOM     35  C   UNL     1       4.645  -4.789   9.637  0.00  0.00    +0.046 A 
ATOM     36 CL   UNL     1       4.025  -5.968   8.523  0.00  0.00    -0.083 Cl
ENDBRANCH  29  30
ENDBRANCH  27  29
ENDBRANCH  24  25
ENDBRANCH  23  24
ENDBRANCH   4  23
TORSDOF 9
