REMARK  Name = ZINC23259233
REMARK  6 active torsions:
REMARK  status: ('A' for Active; 'I' for Inactive)
REMARK    1  A    between atoms: C_3  and  C_6
REMARK    2  A    between atoms: C_6  and  N_7
REMARK    3  A    between atoms: N_7  and  C_8
REMARK    4  A    between atoms: C_18  and  C_20
REMARK    5  A    between atoms: C_20  and  N_21
REMARK    6  A    between atoms: C_25  and  C_27
REMARK                            x       y       z     vdW  Elec       q    Type
REMARK                         _______ _______ _______ _____ _____    ______ ____
ROOT
ATOM      1  N   UNL     1      -3.605  -0.746   0.016  0.00  0.00    -0.268 N 
ATOM      2  C   UNL     1      -3.593  -2.090  -0.096  0.00  0.00    +0.204 C 
ATOM      3  O   UNL     1      -2.537  -2.687  -0.105  0.00  0.00    -0.277 OA
ENDROOT
BRANCH   1   4
ATOM      4  C   UNL     1      -2.400  -0.032   0.021  0.00  0.00    +0.040 A 
ATOM      5  C   UNL     1      -1.979   0.611   1.177  0.00  0.00    +0.027 A 
ATOM      6  C   UNL     1      -0.792   1.319   1.181  0.00  0.00    +0.051 A 
ATOM      7  C   UNL     1      -0.016   1.385   0.033  0.00  0.00    +0.162 A 
ATOM      8  C   UNL     1      -0.435   0.740  -1.125  0.00  0.00    +0.164 A 
ATOM      9  C   UNL     1      -1.627   0.033  -1.130  0.00  0.00    +0.073 A 
ATOM     10  O   UNL     1       0.314   0.793  -2.261  0.00  0.00    -0.485 OA
ATOM     11  C   UNL     1       1.310   1.819  -2.328  0.00  0.00    +0.270 C 
ATOM     12  C   UNL     1       2.080   1.828  -1.000  0.00  0.00    +0.270 C 
ATOM     13  O   UNL     1       1.149   2.089   0.056  0.00  0.00    -0.485 OA
ENDBRANCH   1   4
BRANCH   1  14
ATOM     14  C   UNL     1      -4.880  -0.033   0.132  0.00  0.00    +0.156 C 
BRANCH  14  17
ATOM     15  C   UNL     1      -6.515   0.153  -3.304  0.00  0.00    +0.008 A 
ATOM     16  C   UNL     1      -6.181  -0.383  -2.074  0.00  0.00    +0.013 A 
ATOM     17  C   UNL     1      -5.380   0.328  -1.243  0.00  0.00    +0.007 A 
ATOM     18  S   UNL     1      -5.079   1.807  -2.197  0.00  0.00    -0.100 S 
ATOM     19  C   UNL     1      -6.032   1.373  -3.642  0.00  0.00    +0.045 A 
ENDBRANCH  14  17
ENDBRANCH   1  14
BRANCH   2  20
ATOM     20  C   UNL     1      -4.889  -2.849  -0.208  0.00  0.00    +0.020 C 
BRANCH  20  21
ATOM     21  N   UNL     1      -4.607  -4.286  -0.317  0.00  0.00    +0.390 N 
ATOM     22  C   UNL     1      -4.090  -4.821   0.956  0.00  0.00    -0.077 C 
ATOM     23  C   UNL     1      -5.024  -5.975   1.379  0.00  0.00    -0.020 C 
ATOM     24  C   UNL     1      -5.683  -6.400   0.041  0.00  0.00    -0.013 C 
ATOM     25  C   UNL     1      -5.826  -5.039  -0.684  0.00  0.00    -0.037 C 
ATOM     26  H   UNL     1      -3.846  -4.402  -1.103  0.00  0.00    -0.080 HD
BRANCH  25  27
ATOM     27  C   UNL     1      -5.888  -5.243  -2.176  0.00  0.00    -0.057 A 
ATOM     28  C   UNL     1      -4.735  -5.540  -2.880  0.00  0.00    +0.006 A 
ATOM     29  C   UNL     1      -4.788  -5.732  -4.247  0.00  0.00    +0.049 A 
ATOM     30  C   UNL     1      -5.996  -5.616  -4.919  0.00  0.00    +0.162 A 
ATOM     31  C   UNL     1      -7.154  -5.314  -4.212  0.00  0.00    +0.162 A 
ATOM     32  C   UNL     1      -7.095  -5.127  -2.839  0.00  0.00    +0.051 A 
ATOM     33  O   UNL     1      -8.351  -5.204  -4.850  0.00  0.00    -0.485 OA
ATOM     34  C   UNL     1      -8.310  -5.029  -6.270  0.00  0.00    +0.270 C 
ATOM     35  C   UNL     1      -7.315  -6.044  -6.850  0.00  0.00    +0.270 C 
ATOM     36  O   UNL     1      -6.031  -5.796  -6.267  0.00  0.00    -0.485 OA
ENDBRANCH  25  27
ENDBRANCH  20  21
ENDBRANCH   2  20
TORSDOF 6
