REMARK  Name = ZINC36528585
REMARK  16 active torsions:
REMARK  status: ('A' for Active; 'I' for Inactive)
REMARK    1  A    between atoms: C_1  and  C_2
REMARK    2  A    between atoms: C_2  and  C_3
REMARK    3  A    between atoms: C_2  and  C_4
REMARK    4  A    between atoms: C_2  and  C_5
REMARK    5  A    between atoms: C_5  and  C_6
REMARK    6  A    between atoms: C_6  and  C_7
REMARK    7  A    between atoms: C_6  and  C_8
REMARK    8  A    between atoms: C_6  and  N_9
REMARK    9  A    between atoms: C_10  and  C_12
REMARK   10  A    between atoms: C_12  and  C_14
REMARK   11  A    between atoms: C_12  and  N_27
REMARK   12  A    between atoms: C_14  and  C_15
REMARK   13  A    between atoms: C_14  and  C_21
REMARK   14  A    between atoms: N_27  and  C_28
REMARK   15  A    between atoms: C_29  and  C_31
REMARK   16  A    between atoms: C_36  and  O_37
REMARK                            x       y       z     vdW  Elec       q    Type
REMARK                         _______ _______ _______ _____ _____    ______ ____
ROOT
ATOM      1  C   UNL     1       5.454  -0.011  -4.559  0.00  0.00    +0.173 C 
ENDROOT
BRANCH   1   3
ATOM      2  N   UNL     1       3.184  -0.460  -3.685  0.00  0.00    -0.309 N 
ATOM      3  C   UNL     1       4.391   0.109  -3.498  0.00  0.00    +0.235 C 
ATOM      4  O   UNL     1       4.623   0.718  -2.475  0.00  0.00    -0.274 OA
ATOM      5  H   UNL     1       3.035  -1.044  -4.445  0.00  0.00    +0.149 HD
BRANCH   2   6
ATOM      6  C   UNL     1       2.095  -0.195  -2.741  0.00  0.00    +0.030 C 
ATOM      7  C   UNL     1       2.134   1.274  -2.317  0.00  0.00    +0.031 C 
ATOM      8  C   UNL     1       2.261  -1.086  -1.509  0.00  0.00    +0.031 C 
BRANCH   6   9
ATOM      9  C   UNL     1       0.753  -0.497  -3.412  0.00  0.00    +0.031 C 
BRANCH   9  11
ATOM     10  C   UNL     1       1.469  -0.955  -5.762  0.00  0.00    +0.010 C 
ATOM     11  C   UNL     1       0.766   0.046  -4.843  0.00  0.00    -0.036 C 
ATOM     12  C   UNL     1       1.512   1.381  -4.876  0.00  0.00    +0.010 C 
ATOM     13  C   UNL     1      -0.673   0.254  -5.322  0.00  0.00    +0.010 C 
ENDBRANCH   9  11
ENDBRANCH   6   9
ENDBRANCH   2   6
ENDBRANCH   1   3
BRANCH   1  14
ATOM     14  N   UNL     1       6.166   1.263  -4.685  0.00  0.00    -0.288 N 
ATOM     15  C   UNL     1       6.878   1.820  -3.532  0.00  0.00    +0.133 C 
ATOM     16  C   UNL     1       6.165   1.922  -5.860  0.00  0.00    +0.251 C 
ATOM     17  O   UNL     1       5.632   1.428  -6.835  0.00  0.00    -0.270 OA
BRANCH  16  18
ATOM     18  C   UNL     1       6.811   3.245  -5.964  0.00  0.00    +0.078 A 
ATOM     19  C   UNL     1       8.131   3.417  -5.540  0.00  0.00    +0.017 A 
ATOM     20  C   UNL     1       8.729   4.655  -5.641  0.00  0.00    +0.001 A 
ATOM     21  C   UNL     1       8.027   5.730  -6.160  0.00  0.00    +0.004 A 
ATOM     22  C   UNL     1       6.722   5.573  -6.583  0.00  0.00    +0.046 A 
ATOM     23  C   UNL     1       6.106   4.334  -6.495  0.00  0.00    +0.129 A 
BRANCH  23  24
ATOM     24  O   UNL     1       4.826   4.177  -6.914  0.00  0.00    -0.506 OA
ATOM     25  H   UNL     1       4.164   4.338  -6.228  0.00  0.00    +0.292 HD
ENDBRANCH  23  24
ENDBRANCH  16  18
ENDBRANCH   1  14
BRANCH   1  26
ATOM     26  C   UNL     1       6.442  -1.112  -4.169  0.00  0.00    +0.078 C 
BRANCH  26  27
ATOM     27  C   UNL     1       5.690  -2.388  -3.890  0.00  0.00    -0.038 A 
ATOM     28  C   UNL     1       5.415  -3.267  -4.921  0.00  0.00    +0.004 A 
ATOM     29  C   UNL     1       4.725  -4.437  -4.665  0.00  0.00    +0.000 A 
ATOM     30  C   UNL     1       4.310  -4.728  -3.379  0.00  0.00    +0.000 A 
ATOM     31  C   UNL     1       4.585  -3.849  -2.349  0.00  0.00    +0.000 A 
ATOM     32  C   UNL     1       5.279  -2.681  -2.603  0.00  0.00    +0.004 A 
ENDBRANCH  26  27
BRANCH  26  33
ATOM     33  C   UNL     1       7.414  -1.338  -5.298  0.00  0.00    -0.038 A 
ATOM     34  C   UNL     1       7.060  -1.003  -6.592  0.00  0.00    +0.004 A 
ATOM     35  C   UNL     1       7.952  -1.211  -7.628  0.00  0.00    +0.000 A 
ATOM     36  C   UNL     1       9.197  -1.753  -7.370  0.00  0.00    +0.000 A 
ATOM     37  C   UNL     1       9.551  -2.087  -6.077  0.00  0.00    +0.000 A 
ATOM     38  C   UNL     1       8.661  -1.875  -5.040  0.00  0.00    +0.004 A 
ENDBRANCH  26  33
ENDBRANCH   1  26
TORSDOF 10
