REMARK  Name = ZINC20240625
REMARK  10 active torsions:
REMARK  status: ('A' for Active; 'I' for Inactive)
REMARK    1  A    between atoms: C_4  and  C_7
REMARK    2  A    between atoms: C_7  and  C_8
REMARK    3  A    between atoms: N_11  and  C_14
REMARK    4  A    between atoms: C_14  and  C_15
REMARK    5  A    between atoms: C_18  and  C_21
REMARK    6  A    between atoms: N_23  and  N_24
REMARK    7  A    between atoms: C_25  and  C_26
REMARK    8  A    between atoms: C_29  and  O_32
REMARK    9  A    between atoms: O_32  and  C_33
REMARK   10  A    between atoms: C_33  and  C_35
REMARK                            x       y       z     vdW  Elec       q    Type
REMARK                         _______ _______ _______ _____ _____    ______ ____
ROOT
ATOM      1  C   UNL     1       6.739  -4.130   4.903  0.00  0.00    -0.064 A 
ATOM      2  C   UNL     1       6.746  -5.513   4.866  0.00  0.00    +0.002 A 
ATOM      3  C   UNL     1       7.941  -6.198   4.774  0.00  0.00    +0.013 A 
ATOM      4  C   UNL     1       9.143  -5.491   4.718  0.00  0.00    +0.038 A 
ATOM      5  C   UNL     1       9.129  -4.096   4.756  0.00  0.00    +0.013 A 
ATOM      6  C   UNL     1       7.927  -3.424   4.843  0.00  0.00    +0.002 A 
ENDROOT
BRANCH   4   7
ATOM      7  C   UNL     1      10.427  -6.218   4.620  0.00  0.00    +0.263 C 
ATOM      8  O   UNL     1      10.436  -7.433   4.588  0.00  0.00    -0.268 OA
ATOM      9  N   UNL     1      11.586  -5.533   4.567  0.00  0.00    -0.203 N 
ATOM     10  H   UNL     1      11.579  -4.563   4.593  0.00  0.00    +0.178 HD
BRANCH   9  11
ATOM     11  N   UNL     1      12.803  -6.222   4.474  0.00  0.00    -0.187 NA
ATOM     12  C   UNL     1      13.920  -5.562   4.422  0.00  0.00    +0.138 C 
BRANCH  12  13
ATOM     13  C   UNL     1      15.200  -6.287   4.325  0.00  0.00    -0.005 A 
ATOM     14  C   UNL     1      15.213  -7.683   4.281  0.00  0.00    +0.013 A 
ATOM     15  C   UNL     1      16.412  -8.356   4.190  0.00  0.00    +0.047 A 
ATOM     16  C   UNL     1      17.606  -7.649   4.141  0.00  0.00    +0.132 A 
ATOM     17  C   UNL     1      17.598  -6.260   4.183  0.00  0.00    +0.047 A 
ATOM     18  C   UNL     1      16.403  -5.579   4.269  0.00  0.00    +0.013 A 
BRANCH  16  19
ATOM     19  O   UNL     1      18.786  -8.316   4.051  0.00  0.00    -0.422 OA
BRANCH  19  20
ATOM     20  C   UNL     1      19.062  -8.960   2.900  0.00  0.00    +0.344 C 
ATOM     21  O   UNL     1      18.318  -8.846   1.947  0.00  0.00    -0.245 OA
BRANCH  20  22
ATOM     22  C   UNL     1      20.271  -9.804   2.798  0.00  0.00    +0.059 A 
ATOM     23  C   UNL     1      21.125  -9.941   3.894  0.00  0.00    +0.015 A 
ATOM     24  C   UNL     1      22.252 -10.731   3.791  0.00  0.00    +0.001 A 
ATOM     25  C   UNL     1      22.536 -11.385   2.606  0.00  0.00    +0.000 A 
ATOM     26  C   UNL     1      21.693 -11.254   1.516  0.00  0.00    +0.001 A 
ATOM     27  C   UNL     1      20.560 -10.472   1.607  0.00  0.00    +0.015 A 
ENDBRANCH  20  22
ENDBRANCH  19  20
ENDBRANCH  16  19
ENDBRANCH  12  13
ENDBRANCH   9  11
ENDBRANCH   4   7
BRANCH   1  28
ATOM     28  C   UNL     1       5.430  -3.390   5.003  0.00  0.00    -0.043 C 
BRANCH  28  32
ATOM     29  C   UNL     1       3.945  -1.373   1.556  0.00  0.00    -0.010 C 
ATOM     30  C   UNL     1       3.014  -2.293   2.349  0.00  0.00    -0.015 C 
ATOM     31  C   UNL     1       3.587  -2.504   3.752  0.00  0.00    -0.078 C 
ATOM     32  N   UNL     1       4.917  -3.118   3.654  0.00  0.00    +0.382 N 
ATOM     33  C   UNL     1       5.835  -2.209   2.957  0.00  0.00    -0.078 C 
ATOM     34  C   UNL     1       5.348  -1.987   1.523  0.00  0.00    -0.015 C 
ATOM     35  H   UNL     1       4.849  -3.985   3.141  0.00  0.00    -0.081 HD
BRANCH  29  36
ATOM     36  C   UNL     1       3.420  -1.221   0.127  0.00  0.00    +0.038 C 
BRANCH  36  40
ATOM     37  C   UNL     1      -0.339   0.808   0.198  0.00  0.00    +0.000 A 
ATOM     38  C   UNL     1       0.835   1.530   0.091  0.00  0.00    +0.000 A 
ATOM     39  C   UNL     1       2.051   0.874   0.068  0.00  0.00    +0.003 A 
ATOM     40  C   UNL     1       2.094  -0.505   0.153  0.00  0.00    -0.047 A 
ATOM     41  C   UNL     1       0.920  -1.228   0.261  0.00  0.00    +0.003 A 
ATOM     42  C   UNL     1      -0.296  -0.571   0.282  0.00  0.00    +0.000 A 
ENDBRANCH  36  40
ENDBRANCH  29  36
ENDBRANCH  28  32
ENDBRANCH   1  28
TORSDOF 10
