REMARK  Name = ZINC15774152
REMARK  2 active torsions:
REMARK  status: ('A' for Active; 'I' for Inactive)
REMARK    1  A    between atoms: N_19  and  C_20
REMARK    2  A    between atoms: C_20  and  C_21
REMARK                            x       y       z     vdW  Elec       q    Type
REMARK                         _______ _______ _______ _____ _____    ______ ____
ROOT
ATOM      1  C   UNL     1      -1.234   1.750   0.011  0.00  0.00    +0.001 A 
ATOM      2  C   UNL     1      -0.023   1.077  -0.002  0.00  0.00    +0.004 A 
ATOM      3  C   UNL     1       1.170   1.775  -0.010  0.00  0.00    +0.046 A 
ATOM      4  C   UNL     1       1.157   3.159   0.001  0.00  0.00    +0.135 A 
ATOM      5  C   UNL     1      -0.070   3.842   0.019  0.00  0.00    +0.078 A 
ATOM      6  C   UNL     1      -1.265   3.130   0.027  0.00  0.00    +0.017 A 
ATOM      7  C   UNL     1      -0.043   5.319   0.030  0.00  0.00    +0.250 C 
ATOM      8  O   UNL     1      -1.035   5.963   0.310  0.00  0.00    -0.270 OA
ATOM      9  N   UNL     1       1.124   5.930  -0.281  0.00  0.00    -0.274 N 
ATOM     10  C   UNL     1       2.286   5.136  -0.685  0.00  0.00    +0.181 C 
ATOM     11  O   UNL     1       2.303   3.881  -0.004  0.00  0.00    -0.468 OA
ATOM     12  C   UNL     1       2.230   4.890  -2.196  0.00  0.00    +0.088 C 
ATOM     13  C   UNL     1       2.190   6.236  -2.927  0.00  0.00    +0.115 C 
ATOM     14  N   UNL     1       3.337   7.045  -2.493  0.00  0.00    -0.285 N 
ATOM     15  C   UNL     1       3.540   7.266  -1.055  0.00  0.00    +0.115 C 
ATOM     16  C   UNL     1       3.566   5.909  -0.346  0.00  0.00    +0.088 C 
ATOM     17  C   UNL     1       4.186   7.574  -3.397  0.00  0.00    +0.302 C 
ATOM     18  O   UNL     1       4.062   7.306  -4.576  0.00  0.00    -0.253 OA
ATOM     19  N   UNL     1       5.171   8.399  -2.993  0.00  0.00    -0.297 N 
ATOM     20  H   UNL     1       1.190   6.896  -0.236  0.00  0.00    +0.153 HD
ATOM     21  H   UNL     1       5.315   8.556  -2.046  0.00  0.00    +0.150 HD
ENDROOT
BRANCH  19  22
ATOM     22  C   UNL     1       6.025   9.060  -3.983  0.00  0.00    +0.137 C 
BRANCH  22  23
ATOM     23  C   UNL     1       7.055   9.935  -3.265  0.00  0.00    +0.135 C 
ATOM     24  C   UNL     1       7.954  10.641  -4.299  0.00  0.00    +0.035 C 
ATOM     25  C   UNL     1       7.756  12.148  -4.007  0.00  0.00    +0.031 C 
ATOM     26  C   UNL     1       7.229  12.130  -2.550  0.00  0.00    +0.160 C 
ATOM     27  O   UNL     1       6.385  10.957  -2.508  0.00  0.00    -0.375 OA
ENDBRANCH  22  23
ENDBRANCH  19  22
TORSDOF 2
