REMARK  Name = ZINC25479876
REMARK  10 active torsions:
REMARK  status: ('A' for Active; 'I' for Inactive)
REMARK    1  A    between atoms: C_1  and  C_2
REMARK    2  A    between atoms: C_4  and  O_30
REMARK    3  A    between atoms: C_5  and  C_11
REMARK    4  A    between atoms: C_7  and  C_8
REMARK    5  A    between atoms: C_8  and  C_9
REMARK    6  A    between atoms: C_8  and  C_10
REMARK    7  A    between atoms: C_11  and  N_12
REMARK    8  A    between atoms: N_15  and  S_18
REMARK    9  A    between atoms: S_18  and  C_21
REMARK   10  A    between atoms: C_26  and  N_27
REMARK                            x       y       z     vdW  Elec       q    Type
REMARK                         _______ _______ _______ _____ _____    ______ ____
ROOT
ATOM      1  N   UNL     1      -1.732   3.399   1.081  0.00  0.00    -0.296 NA
ATOM      2  C   UNL     1      -1.556   2.243   0.191  0.00  0.00    +0.102 C 
ATOM      3  C   UNL     1      -1.175   2.735  -1.209  0.00  0.00    +0.125 C 
ATOM      4  N   UNL     1      -2.174   3.720  -1.651  0.00  0.00    -0.174 NA
ATOM      5  C   UNL     1      -2.499   4.834  -0.748  0.00  0.00    +0.125 C 
ATOM      6  C   UNL     1      -2.834   4.261   0.632  0.00  0.00    +0.102 C 
ENDROOT
BRANCH   4   7
ATOM      7  S   UNL     1      -2.912   3.578  -3.127  0.00  0.00    +0.063 S 
ATOM      8  O   UNL     1      -3.208   4.897  -3.562  0.00  0.00    -0.153 OA
ATOM      9  O   UNL     1      -2.119   2.682  -3.893  0.00  0.00    -0.153 OA
BRANCH   7  10
ATOM     10  C   UNL     1      -4.459   2.777  -2.860  0.00  0.00    +0.136 A 
ATOM     11  C   UNL     1      -4.731   2.188  -1.639  0.00  0.00    +0.031 A 
ATOM     12  C   UNL     1      -5.947   1.564  -1.428  0.00  0.00    +0.002 A 
ATOM     13  C   UNL     1      -6.886   1.521  -2.442  0.00  0.00    +0.002 A 
ATOM     14  C   UNL     1      -6.612   2.105  -3.664  0.00  0.00    +0.035 A 
ATOM     15  C   UNL     1      -5.398   2.733  -3.873  0.00  0.00    +0.152 A 
BRANCH  15  16
ATOM     16  N   UNL     1      -5.105   3.359  -5.182  0.00  0.00    +0.058 N 
ATOM     17  O   UNL     1      -5.971   3.421  -6.036  0.00  0.00    -0.126 OA
ATOM     18  O   UNL     1      -3.997   3.812  -5.405  0.00  0.00    -0.126 OA
ENDBRANCH  15  16
ENDBRANCH   7  10
ENDBRANCH   4   7
BRANCH   1  19
ATOM     19  C   UNL     1      -1.934   2.967   2.471  0.00  0.00    +0.123 C 
BRANCH  19  24
ATOM     20  C   UNL     1       2.952   0.626   4.492  0.00  0.00    +0.044 C 
ATOM     21  C   UNL     1       1.680   1.239   3.966  0.00  0.00    -0.044 A 
ATOM     22  C   UNL     1       1.563   2.612   3.869  0.00  0.00    +0.049 A 
ATOM     23  C   UNL     1       0.395   3.175   3.379  0.00  0.00    +0.122 A 
ATOM     24  C   UNL     1      -0.660   2.358   2.998  0.00  0.00    +0.008 A 
ATOM     25  C   UNL     1      -0.539   0.986   3.097  0.00  0.00    +0.012 A 
ATOM     26  C   UNL     1       0.630   0.426   3.580  0.00  0.00    -0.041 A 
BRANCH  26  27
ATOM     27  C   UNL     1       0.759  -1.071   3.687  0.00  0.00    +0.013 C 
ATOM     28  C   UNL     1      -0.339  -1.614   4.603  0.00  0.00    +0.012 C 
ATOM     29  C   UNL     1       0.619  -1.695   2.297  0.00  0.00    +0.012 C 
ENDBRANCH  26  27
BRANCH  23  30
ATOM     30  O   UNL     1       0.280   4.526   3.277  0.00  0.00    -0.506 OA
ATOM     31  H   UNL     1      -0.647   4.971   2.888  0.00  0.00    +0.292 HD
ENDBRANCH  23  30
ENDBRANCH  19  24
ENDBRANCH   1  19
TORSDOF 7
