REMARK  Name = ZINC42015660
REMARK  5 active torsions:
REMARK  status: ('A' for Active; 'I' for Inactive)
REMARK    1  A    between atoms: C_1  and  C_2
REMARK    2  A    between atoms: C_7  and  N_8
REMARK    3  A    between atoms: C_9  and  C_13
REMARK    4  A    between atoms: C_15  and  N_20
REMARK    5  A    between atoms: C_17  and  N_19
REMARK                            x       y       z     vdW  Elec       q    Type
REMARK                         _______ _______ _______ _____ _____    ______ ____
ROOT
ATOM      1  N   UNL     1       0.554   0.177   2.353  0.00  0.00    -0.192 N 
ATOM      2  C   UNL     1       0.378  -0.337   3.604  0.00  0.00    +0.187 A 
ATOM      3  N   UNL     1      -0.000   0.660   4.377  0.00  0.00    -0.108 NA
ATOM      4  N   UNL     1      -0.072   1.750   3.703  0.00  0.00    -0.022 NA
ATOM      5  N   UNL     1       0.253   1.545   2.473  0.00  0.00    -0.039 NA
ENDROOT
BRANCH   1  12
ATOM      6  C   UNL     1      -1.037   0.445   0.009  0.00  0.00    +0.046 C 
ATOM      7  C   UNL     1       0.207  -0.406   0.033  0.00  0.00    -0.022 A 
ATOM      8  C   UNL     1       0.606  -1.078  -1.105  0.00  0.00    +0.043 A 
ATOM      9  C   UNL     1       1.749  -1.859  -1.084  0.00  0.00    +0.124 A 
ATOM     10  C   UNL     1       2.494  -1.968   0.079  0.00  0.00    +0.040 A 
ATOM     11  C   UNL     1       2.097  -1.298   1.219  0.00  0.00    +0.031 A 
ATOM     12  C   UNL     1       0.955  -0.509   1.198  0.00  0.00    +0.072 A 
ATOM     13  F   UNL     1       2.138  -2.516  -2.199  0.00  0.00    -0.205 F 
ENDBRANCH   1  12
BRANCH   2  14
ATOM     14  C   UNL     1       0.574  -1.745   4.014  0.00  0.00    +0.025 A 
ATOM     15  C   UNL     1       0.354  -2.776   3.100  0.00  0.00    +0.034 A 
ATOM     16  C   UNL     1       0.538  -4.095   3.488  0.00  0.00    +0.027 A 
ATOM     17  C   UNL     1       0.941  -4.390   4.783  0.00  0.00    +0.045 A 
ATOM     18  C   UNL     1       1.161  -3.366   5.695  0.00  0.00    +0.027 A 
ATOM     19  C   UNL     1       0.984  -2.045   5.312  0.00  0.00    +0.034 A 
BRANCH  18  20
ATOM     20  N   UNL     1       1.565  -3.667   6.998  0.00  0.00    -0.358 N 
ATOM     21  H   UNL     1       1.693  -4.591   7.265  0.00  0.00    +0.142 HD
ATOM     22  H   UNL     1       1.719  -2.952   7.635  0.00  0.00    +0.142 HD
ENDBRANCH  18  20
BRANCH  16  23
ATOM     23  N   UNL     1       0.317  -5.128   2.573  0.00  0.00    -0.358 N 
ATOM     24  H   UNL     1       0.035  -4.922   1.668  0.00  0.00    +0.142 HD
ATOM     25  H   UNL     1       0.446  -6.051   2.844  0.00  0.00    +0.142 HD
ENDBRANCH  16  23
ENDBRANCH   2  14
TORSDOF 4
