REMARK  Name = ZINC14228814
REMARK  7 active torsions:
REMARK  status: ('A' for Active; 'I' for Inactive)
REMARK    1  A    between atoms: C_7  and  C_11
REMARK    2  A    between atoms: C_11  and  C_13
REMARK    3  A    between atoms: C_11  and  C_30
REMARK    4  A    between atoms: C_13  and  N_14
REMARK    5  A    between atoms: C_15  and  C_17
REMARK    6  A    between atoms: C_17  and  N_18
REMARK    7  A    between atoms: C_19  and  C_21
REMARK                            x       y       z     vdW  Elec       q    Type
REMARK                         _______ _______ _______ _____ _____    ______ ____
ROOT
ATOM      1  C   UNL     1       8.418  -5.030   4.983  0.00  0.00    +0.117 C 
ENDROOT
BRANCH   1   2
ATOM      2  N   UNL     1       8.213  -3.671   4.476  0.00  0.00    -0.313 N 
ATOM      3  C   UNL     1       7.042  -3.337   3.897  0.00  0.00    +0.230 C 
ATOM      4  O   UNL     1       6.159  -4.162   3.796  0.00  0.00    -0.274 OA
ATOM      5  H   UNL     1       8.919  -3.011   4.556  0.00  0.00    +0.149 HD
BRANCH   3   6
ATOM      6  C   UNL     1       6.831  -1.939   3.375  0.00  0.00    +0.200 C 
BRANCH   6   7
ATOM      7  N   UNL     1       5.489  -1.831   2.797  0.00  0.00    -0.303 N 
ATOM      8  C   UNL     1       5.076  -0.664   2.265  0.00  0.00    +0.245 C 
ATOM      9  O   UNL     1       5.817   0.300   2.265  0.00  0.00    -0.270 OA
ATOM     10  H   UNL     1       4.898  -2.600   2.797  0.00  0.00    +0.150 HD
BRANCH   8  11
ATOM     11  C   UNL     1       3.724  -0.555   1.683  0.00  0.00    +0.040 A 
ATOM     12  C   UNL     1       2.871  -1.662   1.682  0.00  0.00    +0.017 A 
ATOM     13  C   UNL     1       1.609  -1.558   1.138  0.00  0.00    +0.050 A 
ATOM     14  C   UNL     1       1.181  -0.356   0.590  0.00  0.00    +0.166 A 
ATOM     15  C   UNL     1       2.028   0.752   0.588  0.00  0.00    +0.167 A 
ATOM     16  C   UNL     1       3.294   0.654   1.131  0.00  0.00    +0.062 A 
ATOM     17  O   UNL     1       1.376   1.797  -0.001  0.00  0.00    -0.453 OA
ATOM     18  C   UNL     1      -0.017   1.435   0.010  0.00  0.00    +0.466 C 
ATOM     19  O   UNL     1       0.002  -0.004   0.002  0.00  0.00    -0.453 OA
ENDBRANCH   8  11
ENDBRANCH   6   7
ENDBRANCH   3   6
ENDBRANCH   1   2
BRANCH   1  20
ATOM     20  C   UNL     1       9.819  -5.142   5.586  0.00  0.00    +0.069 C 
BRANCH  20  27
ATOM     21  C   UNL     1      13.035  -8.312   4.327  0.00  0.00    +0.001 A 
ATOM     22  C   UNL     1      12.882  -9.527   4.981  0.00  0.00    +0.002 A 
ATOM     23  C   UNL     1      11.867  -9.710   5.894  0.00  0.00    +0.026 A 
ATOM     24  C   UNL     1      10.985  -8.669   6.165  0.00  0.00    +0.047 A 
ATOM     25  C   UNL     1      11.140  -7.442   5.495  0.00  0.00    +0.003 A 
ATOM     26  C   UNL     1      12.180  -7.276   4.578  0.00  0.00    +0.010 A 
ATOM     27  C   UNL     1      10.076  -6.569   5.997  0.00  0.00    -0.013 A 
ATOM     28  C   UNL     1       9.370  -7.284   6.887  0.00  0.00    +0.088 A 
ATOM     29  N   UNL     1       9.898  -8.541   7.001  0.00  0.00    -0.360 N 
ATOM     30  H   UNL     1       9.558  -9.238   7.583  0.00  0.00    +0.165 HD
ENDBRANCH  20  27
BRANCH  20  31
ATOM     31  C   UNL     1       9.919  -4.247   6.794  0.00  0.00    -0.020 A 
ATOM     32  C   UNL     1       9.075  -4.441   7.871  0.00  0.00    +0.006 A 
ATOM     33  C   UNL     1       9.167  -3.620   8.979  0.00  0.00    +0.000 A 
ATOM     34  C   UNL     1      10.103  -2.603   9.011  0.00  0.00    +0.001 A 
ATOM     35  C   UNL     1      10.948  -2.407   7.935  0.00  0.00    +0.020 A 
ATOM     36  C   UNL     1      10.860  -3.233   6.827  0.00  0.00    +0.045 A 
ATOM     37 CL   UNL     1      11.926  -2.992   5.478  0.00  0.00    -0.083 Cl
ENDBRANCH  20  31
ENDBRANCH   1  20
TORSDOF 7
