REMARK  Name = ZINC42015233
REMARK  5 active torsions:
REMARK  status: ('A' for Active; 'I' for Inactive)
REMARK    1  A    between atoms: C_1  and  C_2
REMARK    2  A    between atoms: C_4  and  N_9
REMARK    3  A    between atoms: C_10  and  C_14
REMARK    4  A    between atoms: C_16  and  N_21
REMARK    5  A    between atoms: C_18  and  N_20
REMARK                            x       y       z     vdW  Elec       q    Type
REMARK                         _______ _______ _______ _____ _____    ______ ____
ROOT
ATOM      1  N   UNL     1       0.192  -2.666  -2.505  0.00  0.00    -0.193 N 
ATOM      2  C   UNL     1       0.734  -3.897  -2.732  0.00  0.00    +0.187 A 
ATOM      3  N   UNL     1       0.278  -4.306  -3.897  0.00  0.00    -0.108 NA
ATOM      4  N   UNL     1      -0.503  -3.426  -4.410  0.00  0.00    -0.022 NA
ATOM      5  N   UNL     1      -0.613  -2.408  -3.628  0.00  0.00    -0.039 NA
ENDROOT
BRANCH   1   9
ATOM      6  C   UNL     1      -1.661   0.329   0.928  0.00  0.00    +0.045 C 
ATOM      7  C   UNL     1      -0.491  -0.377   0.294  0.00  0.00    -0.034 A 
ATOM      8  C   UNL     1      -0.689  -1.190  -0.805  0.00  0.00    +0.032 A 
ATOM      9  C   UNL     1       0.390  -1.840  -1.390  0.00  0.00    +0.070 A 
ATOM     10  C   UNL     1       1.666  -1.671  -0.867  0.00  0.00    +0.029 A 
ATOM     11  C   UNL     1       1.858  -0.857   0.232  0.00  0.00    +0.017 A 
ATOM     12  C   UNL     1       0.782  -0.206   0.809  0.00  0.00    +0.021 A 
ATOM     13 BR   UNL     1       1.050   0.913   2.309  0.00  0.00    -0.050 Br
ENDBRANCH   1   9
BRANCH   2  14
ATOM     14  C   UNL     1       1.659  -4.631  -1.840  0.00  0.00    +0.025 A 
ATOM     15  C   UNL     1       2.618  -5.487  -2.379  0.00  0.00    +0.034 A 
ATOM     16  C   UNL     1       3.483  -6.174  -1.540  0.00  0.00    +0.027 A 
ATOM     17  C   UNL     1       3.395  -6.009  -0.164  0.00  0.00    +0.045 A 
ATOM     18  C   UNL     1       2.441  -5.158   0.376  0.00  0.00    +0.027 A 
ATOM     19  C   UNL     1       1.576  -4.464  -0.458  0.00  0.00    +0.034 A 
BRANCH  18  20
ATOM     20  N   UNL     1       2.355  -4.995   1.761  0.00  0.00    -0.358 N 
ATOM     21  H   UNL     1       2.961  -5.477   2.345  0.00  0.00    +0.142 HD
ATOM     22  H   UNL     1       1.688  -4.401   2.139  0.00  0.00    +0.142 HD
ENDBRANCH  18  20
BRANCH  16  23
ATOM     23  N   UNL     1       4.444  -7.032  -2.080  0.00  0.00    -0.358 N 
ATOM     24  H   UNL     1       4.506  -7.148  -3.041  0.00  0.00    +0.142 HD
ATOM     25  H   UNL     1       5.049  -7.513  -1.494  0.00  0.00    +0.142 HD
ENDBRANCH  16  23
ENDBRANCH   2  14
TORSDOF 4
