REMARK  Name = ZINC38610106
REMARK  7 active torsions:
REMARK  status: ('A' for Active; 'I' for Inactive)
REMARK    1  A    between atoms: C_1  and  C_2
REMARK    2  A    between atoms: C_2  and  C_4
REMARK    3  A    between atoms: C_2  and  N_22
REMARK    4  A    between atoms: N_6  and  C_7
REMARK    5  A    between atoms: C_15  and  C_17
REMARK    6  A    between atoms: C_17  and  O_19
REMARK    7  A    between atoms: O_19  and  C_20
REMARK                            x       y       z     vdW  Elec       q    Type
REMARK                         _______ _______ _______ _____ _____    ______ ____
ROOT
ATOM      1  C   UNL     1       1.424   0.361   1.403  0.00  0.00    +0.203 C 
ATOM      2  O   UNL     1       0.592  -0.354   1.919  0.00  0.00    -0.277 OA
ATOM      3  N   UNL     1       2.655   0.461   1.945  0.00  0.00    -0.288 N 
ATOM      4  H   UNL     1       3.303   1.075   1.565  0.00  0.00    +0.155 HD
ENDROOT
BRANCH   3   5
ATOM      5  C   UNL     1       2.987  -0.299   3.026  0.00  0.00    +0.053 C 
ATOM      6  C   UNL     1       4.235  -0.415   3.613  0.00  0.00    +0.019 A 
ATOM      7  C   UNL     1       5.490   0.169   3.313  0.00  0.00    +0.031 A 
ATOM      8  C   UNL     1       6.571  -0.132   4.075  0.00  0.00    +0.042 A 
ATOM      9  C   UNL     1       6.481  -1.012   5.159  0.00  0.00    +0.022 A 
ATOM     10  C   UNL     1       5.313  -1.607   5.503  0.00  0.00    +0.027 A 
ATOM     11  C   UNL     1       4.137  -1.341   4.754  0.00  0.00    +0.045 A 
ATOM     12  N   UNL     1       2.903  -1.785   4.882  0.00  0.00    -0.367 N 
ATOM     13  C   UNL     1       2.068  -1.185   3.836  0.00  0.00    +0.234 C 
ATOM     14 CL   UNL     1       8.103   0.591   3.696  0.00  0.00    -0.084 Cl
ATOM     15  H   UNL     1       2.596  -2.405   5.561  0.00  0.00    +0.161 HD
BRANCH  13  16
ATOM     16  C   UNL     1       0.967  -0.362   4.455  0.00  0.00    +0.335 C 
ATOM     17  O   UNL     1       1.206   0.354   5.399  0.00  0.00    -0.248 OA
BRANCH  16  18
ATOM     18  O   UNL     1      -0.278  -0.426   3.959  0.00  0.00    -0.466 OA
ATOM     19  C   UNL     1      -1.272   0.381   4.595  0.00  0.00    +0.280 C 
ENDBRANCH  16  18
ENDBRANCH  13  16
ENDBRANCH   3   5
BRANCH   1  21
ATOM     20  C   UNL     1       0.580   2.528   0.544  0.00  0.00    -0.004 C 
ATOM     21  C   UNL     1       1.084   1.137   0.157  0.00  0.00    +0.016 C 
BRANCH  21  22
ATOM     22  N   UNL     1       0.037   0.427  -0.591  0.00  0.00    +0.387 N 
ATOM     23  C   UNL     1      -0.297   1.187  -1.801  0.00  0.00    -0.073 C 
ATOM     24  C   UNL     1      -1.447   0.497  -2.540  0.00  0.00    +0.046 C 
ATOM     25  C   UNL     1      -1.021  -0.923  -2.920  0.00  0.00    +0.167 C 
ATOM     26  C   UNL     1      -0.596  -1.684  -1.662  0.00  0.00    +0.046 C 
ATOM     27  C   UNL     1       0.520  -0.909  -0.958  0.00  0.00    -0.073 C 
ATOM     28  O   UNL     1      -2.122  -1.603  -3.543  0.00  0.00    -0.346 OA
ATOM     29  C   UNL     1      -1.905  -1.433  -4.965  0.00  0.00    +0.191 C 
ATOM     30  C   UNL     1      -0.360  -1.510  -5.059  0.00  0.00    +0.191 C 
ATOM     31  O   UNL     1       0.073  -0.868  -3.843  0.00  0.00    -0.346 OA
ATOM     32  H   UNL     1      -0.786   0.340  -0.014  0.00  0.00    -0.081 HD
ENDBRANCH  21  22
ENDBRANCH   1  21
TORSDOF 5
