REMARK  Name = ZINC21355896
REMARK  5 active torsions:
REMARK  status: ('A' for Active; 'I' for Inactive)
REMARK    1  A    between atoms: C_1  and  C_2
REMARK    2  A    between atoms: C_2  and  C_34
REMARK    3  A    between atoms: C_6  and  C_26
REMARK    4  A    between atoms: N_18  and  C_19
REMARK    5  A    between atoms: C_19  and  C_20
REMARK                            x       y       z     vdW  Elec       q    Type
REMARK                         _______ _______ _______ _____ _____    ______ ____
ROOT
ATOM      1  C   UNL     1       4.606   7.019  -0.425  0.00  0.00    +0.011 C 
ATOM      2  C   UNL     1       4.765   6.044  -1.593  0.00  0.00    -0.023 C 
ATOM      3  C   UNL     1       4.206   4.676  -1.206  0.00  0.00    +0.058 C 
ATOM      4  C   UNL     1       2.732   4.799  -0.855  0.00  0.00    +0.017 C 
ATOM      5  C   UNL     1       1.959   5.707  -1.472  0.00  0.00    +0.040 C 
ATOM      6  C   UNL     1       0.482   5.919  -1.239  0.00  0.00    +0.184 C 
ATOM      7  N   UNL     1      -0.046   5.235  -0.078  0.00  0.00    -0.239 N 
ATOM      8  C   UNL     1      -0.064   3.840  -0.009  0.00  0.00    +0.060 A 
ATOM      9  C   UNL     1      -1.254   3.132   0.015  0.00  0.00    +0.025 A 
ATOM     10  C   UNL     1      -1.221   1.748   0.017  0.00  0.00    +0.002 A 
ATOM     11  C   UNL     1      -0.013   1.076   0.008  0.00  0.00    +0.002 A 
ATOM     12  C   UNL     1       1.179   1.781   0.000  0.00  0.00    +0.025 A 
ATOM     13  C   UNL     1       1.147   3.165   0.008  0.00  0.00    +0.053 A 
ATOM     14  N   UNL     1       2.303   3.932   0.097  0.00  0.00    -0.316 N 
ATOM     15  C   UNL     1      -0.528   5.955   0.954  0.00  0.00    +0.308 C 
ATOM     16  O   UNL     1      -0.518   7.170   0.905  0.00  0.00    -0.252 OA
ATOM     17  N   UNL     1      -1.023   5.329   2.040  0.00  0.00    -0.296 N 
ATOM     18  C   UNL     1       2.515   6.578  -2.439  0.00  0.00    +0.163 C 
ATOM     19  O   UNL     1       1.789   7.379  -2.993  0.00  0.00    -0.292 OA
ATOM     20  C   UNL     1       3.970   6.548  -2.803  0.00  0.00    +0.086 C 
ATOM     21  C   UNL     1       6.244   5.913  -1.963  0.00  0.00    +0.011 C 
ATOM     22  H   UNL     1       2.883   3.799   1.022  0.00  0.00    +0.152 HD
ATOM     23  H   UNL     1      -1.032   4.230   2.085  0.00  0.00    +0.150 HD
ENDROOT
BRANCH   6  24
ATOM     24  C   UNL     1      -0.268   5.442  -2.457  0.00  0.00    +0.130 A 
ATOM     25  C   UNL     1      -0.669   6.212  -3.485  0.00  0.00    +0.047 A 
ATOM     26  C   UNL     1      -1.329   5.360  -4.400  0.00  0.00    +0.041 A 
ATOM     27  C   UNL     1      -1.293   4.122  -3.876  0.00  0.00    +0.195 A 
ATOM     28  O   UNL     1      -0.643   4.177  -2.702  0.00  0.00    -0.466 OA
ENDBRANCH   6  24
BRANCH  17  29
ATOM     29  C   UNL     1      -1.547   6.112   3.162  0.00  0.00    +0.137 C 
BRANCH  29  30
ATOM     30  C   UNL     1      -2.043   5.166   4.257  0.00  0.00    +0.135 C 
ATOM     31  C   UNL     1      -2.667   5.973   5.423  0.00  0.00    +0.035 C 
ATOM     32  C   UNL     1      -3.626   4.915   6.034  0.00  0.00    +0.031 C 
ATOM     33  C   UNL     1      -4.083   4.128   4.786  0.00  0.00    +0.160 C 
ATOM     34  O   UNL     1      -3.108   4.341   3.759  0.00  0.00    -0.375 OA
ENDBRANCH  29  30
ENDBRANCH  17  29
TORSDOF 3
