REMARK  Name = ZINC33937316
REMARK  16 active torsions:
REMARK  status: ('A' for Active; 'I' for Inactive)
REMARK    1  A    between atoms: C_1  and  C_2
REMARK    2  A    between atoms: C_2  and  O_3
REMARK    3  A    between atoms: O_3  and  C_4
REMARK    4  A    between atoms: C_11  and  C_16
REMARK    5  A    between atoms: C_16  and  N_17
REMARK    6  A    between atoms: N_17  and  C_18
REMARK    7  A    between atoms: N_17  and  C_25
REMARK    8  A    between atoms: C_18  and  C_19
REMARK    9  A    between atoms: C_25  and  C_27
REMARK   10  A    between atoms: C_25  and  C_36
REMARK   11  A    between atoms: N_31  and  C_32
REMARK   12  A    between atoms: C_32  and  C_33
REMARK   13  A    between atoms: C_32  and  C_34
REMARK   14  A    between atoms: C_32  and  C_35
REMARK   15  A    between atoms: C_36  and  C_37
REMARK   16  A    between atoms: C_36  and  C_38
REMARK                            x       y       z     vdW  Elec       q    Type
REMARK                         _______ _______ _______ _____ _____    ______ ____
ROOT
ATOM      1  N   UNL     1       6.682  -8.998  -5.095  0.00  0.00    +0.391 N 
ATOM      2  H   UNL     1       7.580  -8.633  -4.814  0.00  0.00    -0.080 HD
ENDROOT
BRANCH   1   3
ATOM      3  C   UNL     1       5.672  -8.640  -4.090  0.00  0.00    -0.036 C 
BRANCH   3  11
ATOM      4  C   UNL     1       8.444  -7.117   1.241  0.00  0.00    +0.121 A 
ATOM      5  C   UNL     1       8.391  -8.390   1.806  0.00  0.00    +0.047 A 
ATOM      6  C   UNL     1       7.826  -9.440   1.118  0.00  0.00    +0.030 A 
ATOM      7  C   UNL     1       7.303  -9.236  -0.155  0.00  0.00    +0.049 A 
ATOM      8  C   UNL     1       7.354  -7.952  -0.730  0.00  0.00    +0.002 A 
ATOM      9  C   UNL     1       7.925  -6.892  -0.018  0.00  0.00    +0.055 A 
ATOM     10  C   UNL     1       6.799  -7.751  -2.069  0.00  0.00    +0.017 A 
ATOM     11  C   UNL     1       6.253  -8.813  -2.711  0.00  0.00    +0.001 A 
ATOM     12  C   UNL     1       6.225 -10.081  -2.090  0.00  0.00    +0.251 A 
ATOM     13  O   UNL     1       5.729 -11.023  -2.685  0.00  0.00    -0.268 OA
ATOM     14  N   UNL     1       6.733 -10.276  -0.861  0.00  0.00    -0.322 N 
ATOM     15  H   UNL     1       6.697 -11.160  -0.464  0.00  0.00    +0.169 HD
BRANCH   4  16
ATOM     16  O   UNL     1       9.005  -6.092   1.935  0.00  0.00    -0.492 OA
BRANCH  16  18
ATOM     17  C   UNL     1      10.109  -5.125   3.855  0.00  0.00    +0.048 C 
ATOM     18  C   UNL     1       9.523  -6.393   3.233  0.00  0.00    +0.225 C 
ENDBRANCH  16  18
ENDBRANCH   4  16
ENDBRANCH   3  11
ENDBRANCH   1   3
BRANCH   1  19
ATOM     19  C   UNL     1       6.761 -10.460  -5.210  0.00  0.00    -0.045 C 
BRANCH  19  20
ATOM     20  C   UNL     1       7.959 -10.839  -6.084  0.00  0.00    +0.102 C 
ATOM     21  C   UNL     1       8.128 -12.378  -6.128  0.00  0.00    +0.032 C 
ATOM     22  C   UNL     1       8.881 -12.554  -7.474  0.00  0.00    +0.030 C 
ATOM     23  C   UNL     1       8.278 -11.425  -8.337  0.00  0.00    +0.160 C 
ATOM     24  O   UNL     1       7.726 -10.446  -7.446  0.00  0.00    -0.378 OA
ENDBRANCH  19  20
ENDBRANCH   1  19
BRANCH   1  25
ATOM     25  C   UNL     1       6.305  -8.424  -6.394  0.00  0.00    +0.006 C 
BRANCH  25  26
ATOM     26  C   UNL     1       4.820  -8.577  -6.599  0.00  0.00    +0.139 A 
ATOM     27  N   UNL     1       3.963  -9.098  -5.755  0.00  0.00    -0.115 NA
ATOM     28  N   UNL     1       2.794  -9.049  -6.294  0.00  0.00    -0.023 NA
ATOM     29  N   UNL     1       2.882  -8.509  -7.459  0.00  0.00    -0.043 NA
ATOM     30  N   UNL     1       4.115  -8.200  -7.682  0.00  0.00    -0.226 N 
BRANCH  30  31
ATOM     31  C   UNL     1       4.648  -7.561  -8.888  0.00  0.00    +0.059 C 
ATOM     32  C   UNL     1       6.046  -8.109  -9.179  0.00  0.00    +0.036 C 
ATOM     33  C   UNL     1       3.727  -7.860 -10.072  0.00  0.00    +0.036 C 
ATOM     34  C   UNL     1       4.727  -6.049  -8.671  0.00  0.00    +0.036 C 
ENDBRANCH  30  31
ENDBRANCH  25  26
BRANCH  25  35
ATOM     35  C   UNL     1       6.673  -6.939  -6.422  0.00  0.00    -0.024 C 
ATOM     36  C   UNL     1       5.797  -6.178  -5.425  0.00  0.00    +0.006 C 
ATOM     37  C   UNL     1       8.145  -6.772  -6.039  0.00  0.00    +0.006 C 
ENDBRANCH  25  35
ENDBRANCH   1  25
TORSDOF 10
