REMARK  Name = ZINC09380755
REMARK  8 active torsions:
REMARK  status: ('A' for Active; 'I' for Inactive)
REMARK    1  A    between atoms: C_4  and  N_7
REMARK    2  A    between atoms: N_7  and  C_8
REMARK    3  A    between atoms: N_12  and  C_16
REMARK    4  A    between atoms: C_16  and  C_17
REMARK    5  A    between atoms: C_20  and  C_23
REMARK    6  A    between atoms: C_23  and  N_24
REMARK    7  A    between atoms: C_27  and  N_32
REMARK    8  A    between atoms: N_32  and  C_33
REMARK                            x       y       z     vdW  Elec       q    Type
REMARK                         _______ _______ _______ _____ _____    ______ ____
ROOT
ATOM      1  C   UNL     1      -4.585  -0.504  -3.291  0.00  0.00    -0.030 A 
ATOM      2  C   UNL     1      -4.227   0.532  -4.133  0.00  0.00    +0.005 A 
ATOM      3  C   UNL     1      -3.729   0.258  -5.393  0.00  0.00    +0.005 A 
ATOM      4  C   UNL     1      -3.596  -1.052  -5.814  0.00  0.00    -0.030 A 
ATOM      5  C   UNL     1      -3.959  -2.088  -4.974  0.00  0.00    +0.005 A 
ATOM      6  C   UNL     1      -4.454  -1.814  -3.712  0.00  0.00    +0.005 A 
ENDROOT
BRANCH   1   7
ATOM      7  C   UNL     1      -5.124  -0.206  -1.915  0.00  0.00    +0.152 C 
BRANCH   7  11
ATOM      8  C   UNL     1      -2.496  -1.119   0.632  0.00  0.00    +0.225 C 
ATOM      9  C   UNL     1      -3.654  -1.260  -0.345  0.00  0.00    +0.254 C 
ATOM     10  O   UNL     1      -4.206  -2.321  -0.548  0.00  0.00    -0.272 OA
ATOM     11  N   UNL     1      -4.016  -0.145  -0.959  0.00  0.00    -0.226 N 
ATOM     12  C   UNL     1      -3.418   1.042  -0.750  0.00  0.00    +0.283 C 
ATOM     13  O   UNL     1      -3.678   2.114  -1.262  0.00  0.00    -0.262 OA
ATOM     14  S   UNL     1      -2.152   0.677   0.458  0.00  0.00    -0.035 S 
BRANCH   8  15
ATOM     15  N   UNL     1      -1.346  -1.925   0.215  0.00  0.00    -0.325 N 
ATOM     16  H   UNL     1      -1.486  -2.781  -0.220  0.00  0.00    +0.148 HD
BRANCH  15  20
ATOM     17  C   UNL     1       2.520  -0.537   0.892  0.00  0.00    +0.000 A 
ATOM     18  C   UNL     1       2.271  -1.395  -0.163  0.00  0.00    +0.002 A 
ATOM     19  C   UNL     1       0.990  -1.860  -0.388  0.00  0.00    +0.023 A 
ATOM     20  C   UNL     1      -0.049  -1.461   0.444  0.00  0.00    +0.028 A 
ATOM     21  C   UNL     1       0.207  -0.605   1.507  0.00  0.00    +0.023 A 
ATOM     22  C   UNL     1       1.490  -0.142   1.726  0.00  0.00    +0.002 A 
ENDBRANCH  15  20
ENDBRANCH   8  15
ENDBRANCH   7  11
ENDBRANCH   1   7
BRANCH   4  23
ATOM     23  C   UNL     1      -3.058  -1.350  -7.189  0.00  0.00    +0.152 C 
BRANCH  23  24
ATOM     24  N   UNL     1      -4.166  -1.412  -8.145  0.00  0.00    -0.226 N 
ATOM     25  C   UNL     1      -4.750  -2.580  -8.355  0.00  0.00    +0.254 C 
ATOM     26  O   UNL     1      -4.399  -3.591  -7.785  0.00  0.00    -0.272 OA
ATOM     27  C   UNL     1      -5.895  -2.566  -9.357  0.00  0.00    +0.225 C 
ATOM     28  S   UNL     1      -5.887  -0.788  -9.821  0.00  0.00    -0.035 S 
ATOM     29  C   UNL     1      -4.535  -0.278  -8.770  0.00  0.00    +0.283 C 
ATOM     30  O   UNL     1      -4.059   0.834  -8.647  0.00  0.00    -0.262 OA
BRANCH  27  31
ATOM     31  N   UNL     1      -7.163  -2.947  -8.730  0.00  0.00    -0.325 N 
ATOM     32  H   UNL     1      -7.168  -3.564  -7.981  0.00  0.00    +0.148 HD
BRANCH  31  33
ATOM     33  C   UNL     1      -8.365  -2.422  -9.209  0.00  0.00    +0.028 A 
ATOM     34  C   UNL     1      -9.475  -2.350  -8.377  0.00  0.00    +0.023 A 
ATOM     35  C   UNL     1     -10.660  -1.825  -8.853  0.00  0.00    +0.002 A 
ATOM     36  C   UNL     1     -10.747  -1.382 -10.160  0.00  0.00    +0.000 A 
ATOM     37  C   UNL     1      -9.646  -1.457 -10.993  0.00  0.00    +0.002 A 
ATOM     38  C   UNL     1      -8.456  -1.976 -10.522  0.00  0.00    +0.023 A 
ENDBRANCH  31  33
ENDBRANCH  27  31
ENDBRANCH  23  24
ENDBRANCH   4  23
TORSDOF 8
