REMARK  Name = ZINC22218405
REMARK  8 active torsions:
REMARK  status: ('A' for Active; 'I' for Inactive)
REMARK    1  A    between atoms: C_1  and  C_2
REMARK    2  A    between atoms: N_11  and  C_15
REMARK    3  A    between atoms: C_15  and  C_16
REMARK    4  A    between atoms: C_16  and  O_18
REMARK    5  A    between atoms: O_18  and  C_19
REMARK    6  A    between atoms: C_19  and  C_21
REMARK    7  A    between atoms: C_19  and  C_22
REMARK    8  A    between atoms: N_24  and  C_25
REMARK                            x       y       z     vdW  Elec       q    Type
REMARK                         _______ _______ _______ _____ _____    ______ ____
ROOT
ATOM      1  C   UNL     1       4.208   8.175  -1.002  0.00  0.00    +0.326 C 
ATOM      2  O   UNL     1       5.170   7.664  -1.525  0.00  0.00    -0.249 OA
ENDROOT
BRANCH   1   3
ATOM      3  C   UNL     1       3.977   9.658  -1.134  0.00  0.00    +0.238 C 
BRANCH   3  13
ATOM      4  C   UNL     1       5.912  13.464  -2.328  0.00  0.00    +0.010 C 
ATOM      5  C   UNL     1       7.246  12.732  -2.489  0.00  0.00    +0.018 C 
ATOM      6  C   UNL     1       8.127  13.002  -1.267  0.00  0.00    +0.006 C 
ATOM      7  C   UNL     1       9.452  12.252  -1.419  0.00  0.00    +0.000 C 
ATOM      8  C   UNL     1       9.181  10.750  -1.519  0.00  0.00    +0.003 C 
ATOM      9  C   UNL     1       8.304  10.471  -2.743  0.00  0.00    +0.035 C 
ATOM     10  C   UNL     1       6.990  11.234  -2.615  0.00  0.00    +0.115 C 
ATOM     11  C   UNL     1       6.199  10.736  -1.427  0.00  0.00    +0.247 C 
ATOM     12  O   UNL     1       6.530  10.766  -0.261  0.00  0.00    -0.273 OA
ATOM     13  N   UNL     1       5.050  10.249  -1.938  0.00  0.00    -0.213 N 
ATOM     14  C   UNL     1       5.008  10.379  -3.269  0.00  0.00    +0.310 C 
ATOM     15  O   UNL     1       4.072  10.017  -3.955  0.00  0.00    -0.252 OA
ATOM     16  N   UNL     1       6.120  10.955  -3.764  0.00  0.00    -0.285 N 
ATOM     17  H   UNL     1       6.448  11.223  -4.780  0.00  0.00    +0.151 HD
ENDBRANCH   3  13
ENDBRANCH   1   3
BRANCH   1  18
ATOM     18  O   UNL     1       3.345   7.421  -0.302  0.00  0.00    -0.451 OA
BRANCH  18  19
ATOM     19  C   UNL     1       3.630   6.000  -0.217  0.00  0.00    +0.259 C 
ATOM     20  C   UNL     1       4.502   5.728   1.011  0.00  0.00    +0.062 C 
BRANCH  19  21
ATOM     21  C   UNL     1       2.338   5.235  -0.094  0.00  0.00    +0.258 C 
ATOM     22  O   UNL     1       1.280   5.828  -0.081  0.00  0.00    -0.271 OA
ATOM     23  N   UNL     1       2.357   3.890   0.000  0.00  0.00    -0.281 N 
ATOM     24  H   UNL     1       3.317   3.357   0.062  0.00  0.00    +0.155 HD
BRANCH  23  25
ATOM     25  C   UNL     1       1.155   3.173   0.019  0.00  0.00    +0.053 A 
ATOM     26  C   UNL     1       0.035   3.709   0.639  0.00  0.00    +0.044 A 
ATOM     27  C   UNL     1      -1.151   2.998   0.655  0.00  0.00    +0.043 A 
ATOM     28  C   UNL     1      -1.222   1.755   0.051  0.00  0.00    +0.021 A 
ATOM     29  C   UNL     1      -0.106   1.216  -0.562  0.00  0.00    +0.023 A 
ATOM     30  C   UNL     1       1.082   1.922  -0.582  0.00  0.00    +0.062 A 
ATOM     31 CL   UNL     1       2.481   1.247  -1.357  0.00  0.00    -0.082 Cl
ATOM     32 CL   UNL     1      -2.553   3.668   1.430  0.00  0.00    -0.083 Cl
ENDBRANCH  23  25
ENDBRANCH  19  21
ENDBRANCH  18  19
ENDBRANCH   1  18
TORSDOF 6
