REMARK  Name = ZINC05485996
REMARK  11 active torsions:
REMARK  status: ('A' for Active; 'I' for Inactive)
REMARK    1  A    between atoms: C_1  and  C_2
REMARK    2  A    between atoms: C_2  and  O_3
REMARK    3  A    between atoms: O_3  and  C_4
REMARK    4  A    between atoms: C_4  and  C_6
REMARK    5  A    between atoms: C_7  and  C_30
REMARK    6  A    between atoms: N_13  and  C_16
REMARK    7  A    between atoms: C_16  and  C_18
REMARK    8  A    between atoms: C_16  and  C_19
REMARK    9  A    between atoms: N_21  and  C_22
REMARK   10  A    between atoms: C_26  and  C_29
REMARK   11  A    between atoms: C_27  and  C_28
REMARK                            x       y       z     vdW  Elec       q    Type
REMARK                         _______ _______ _______ _____ _____    ______ ____
ROOT
ATOM      1  C   UNL     1       5.125   4.451  -1.726  0.00  0.00    +0.102 A 
ATOM      2  C   UNL     1       3.821   4.103  -1.931  0.00  0.00    -0.015 A 
ATOM      3  C   UNL     1       3.165   3.294  -1.001  0.00  0.00    +0.076 A 
ATOM      4  C   UNL     1       3.933   2.888   0.114  0.00  0.00    +0.116 A 
ATOM      5  S   UNL     1       5.512   3.644  -0.182  0.00  0.00    -0.062 S 
ATOM      6  N   UNL     1       3.429   2.118   1.069  0.00  0.00    -0.230 NA
ATOM      7  C   UNL     1       2.194   1.696   1.027  0.00  0.00    +0.204 A 
ATOM      8  N   UNL     1       1.361   2.019   0.008  0.00  0.00    -0.287 N 
ATOM      9  C   UNL     1       1.772   2.791  -1.017  0.00  0.00    +0.263 A 
ATOM     10  O   UNL     1       1.016   3.072  -1.930  0.00  0.00    -0.267 OA
ATOM     11  C   UNL     1       3.092   4.590  -3.156  0.00  0.00    +0.046 C 
ENDROOT
BRANCH   1  12
ATOM     12  C   UNL     1       5.992   5.281  -2.566  0.00  0.00    +0.346 C 
ATOM     13  O   UNL     1       5.562   5.758  -3.599  0.00  0.00    -0.244 OA
BRANCH  12  14
ATOM     14  O   UNL     1       7.267   5.516  -2.194  0.00  0.00    -0.461 OA
BRANCH  14  16
ATOM     15  C   UNL     1       9.475   6.500  -2.492  0.00  0.00    +0.048 C 
ATOM     16  C   UNL     1       8.068   6.347  -3.075  0.00  0.00    +0.229 C 
ENDBRANCH  14  16
ENDBRANCH  12  14
ENDBRANCH   1  12
BRANCH   8  17
ATOM     17  C   UNL     1      -0.014   1.513   0.018  0.00  0.00    +0.174 C 
ATOM     18  C   UNL     1       0.005  -0.017   0.021  0.00  0.00    +0.041 C 
BRANCH  17  19
ATOM     19  C   UNL     1      -0.723   2.009   1.252  0.00  0.00    +0.240 C 
ATOM     20  O   UNL     1      -0.137   2.715   2.045  0.00  0.00    -0.273 OA
ATOM     21  N   UNL     1      -2.008   1.667   1.474  0.00  0.00    -0.284 N 
ATOM     22  H   UNL     1      -2.501   1.170   0.803  0.00  0.00    +0.155 HD
BRANCH  21  23
ATOM     23  C   UNL     1      -2.631   2.030   2.673  0.00  0.00    +0.037 A 
ATOM     24  C   UNL     1      -1.869   2.260   3.812  0.00  0.00    +0.023 A 
ATOM     25  C   UNL     1      -2.486   2.617   4.994  0.00  0.00    +0.002 A 
ATOM     26  C   UNL     1      -3.862   2.748   5.045  0.00  0.00    +0.004 A 
ATOM     27  C   UNL     1      -4.623   2.520   3.913  0.00  0.00    -0.046 A 
ATOM     28  C   UNL     1      -4.011   2.167   2.727  0.00  0.00    -0.026 A 
ATOM     29  C   UNL     1      -4.841   1.926   1.492  0.00  0.00    +0.046 C 
ATOM     30  C   UNL     1      -6.122   2.664   3.974  0.00  0.00    +0.044 C 
ENDBRANCH  21  23
ENDBRANCH  17  19
ENDBRANCH   8  17
TORSDOF 6
