REMARK  Name = ZINC13388041
REMARK  8 active torsions:
REMARK  status: ('A' for Active; 'I' for Inactive)
REMARK    1  A    between atoms: C_1  and  C_2
REMARK    2  A    between atoms: C_2  and  O_4
REMARK    3  A    between atoms: O_4  and  C_5
REMARK    4  A    between atoms: C_8  and  C_12
REMARK    5  A    between atoms: C_13  and  C_14
REMARK    6  A    between atoms: C_13  and  C_16
REMARK    7  A    between atoms: N_18  and  C_19
REMARK    8  A    between atoms: C_22  and  N_26
REMARK                            x       y       z     vdW  Elec       q    Type
REMARK                         _______ _______ _______ _____ _____    ______ ____
ROOT
ATOM      1  C   UNL     1      -0.326  -0.360   0.217  0.00  0.00    +0.032 C 
ATOM      2  C   UNL     1      -0.472   1.006   0.325  0.00  0.00    +0.114 C 
ENDROOT
BRANCH   1   6
ATOM      3  C   UNL     1       3.534  -2.047  -0.241  0.00  0.00    +0.146 A 
ATOM      4  C   UNL     1       3.283  -0.758  -0.699  0.00  0.00    +0.048 A 
ATOM      5  C   UNL     1       2.030  -0.207  -0.558  0.00  0.00    +0.011 A 
ATOM      6  C   UNL     1       1.008  -0.943   0.059  0.00  0.00    -0.022 A 
ATOM      7  C   UNL     1       1.268  -2.242   0.519  0.00  0.00    +0.027 A 
ATOM      8  C   UNL     1       2.524  -2.785   0.368  0.00  0.00    +0.061 A 
ATOM      9 BR   UNL     1       2.876  -4.537   0.987  0.00  0.00    -0.046 Br
BRANCH   3  10
ATOM     10  O   UNL     1       4.771  -2.587  -0.387  0.00  0.00    -0.425 OA
BRANCH  10  12
ATOM     11  C   UNL     1       6.363  -3.868  -1.774  0.00  0.00    +0.136 C 
ATOM     12  C   UNL     1       4.985  -3.330  -1.485  0.00  0.00    +0.309 C 
ATOM     13  O   UNL     1       4.073  -3.568  -2.242  0.00  0.00    -0.251 OA
ENDBRANCH  10  12
ENDBRANCH   3  10
ENDBRANCH   1   6
BRANCH   2  14
ATOM     14  C   UNL     1      -1.815   1.606   0.300  0.00  0.00    +0.259 C 
ATOM     15  O   UNL     1      -2.796   0.896   0.184  0.00  0.00    -0.269 OA
ATOM     16  N   UNL     1      -1.958   2.942   0.406  0.00  0.00    -0.280 N 
ATOM     17  H   UNL     1      -1.175   3.513   0.435  0.00  0.00    +0.155 HD
BRANCH  16  18
ATOM     18  C   UNL     1      -3.237   3.505   0.475  0.00  0.00    +0.048 A 
ATOM     19  C   UNL     1      -4.270   2.814   1.095  0.00  0.00    +0.026 A 
ATOM     20  C   UNL     1      -5.531   3.373   1.160  0.00  0.00    +0.034 A 
ATOM     21  C   UNL     1      -5.767   4.619   0.610  0.00  0.00    +0.127 A 
ATOM     22  C   UNL     1      -4.741   5.311  -0.008  0.00  0.00    +0.049 A 
ATOM     23  C   UNL     1      -3.475   4.760  -0.073  0.00  0.00    +0.041 A 
ATOM     24 BR   UNL     1      -2.071   5.710  -0.911  0.00  0.00    -0.048 Br
BRANCH  21  25
ATOM     25  N   UNL     1      -7.120   5.215   0.682  0.00  0.00    +0.056 N 
ATOM     26  O   UNL     1      -8.024   4.607   1.227  0.00  0.00    -0.126 OA
ATOM     27  O   UNL     1      -7.329   6.312   0.198  0.00  0.00    -0.126 OA
ENDBRANCH  21  25
ENDBRANCH  16  18
ENDBRANCH   2  14
BRANCH   2  28
ATOM     28  C   UNL     1       0.683   1.841   0.457  0.00  0.00    +0.104 C 
ATOM     29  N   UNL     1       1.600   2.504   0.561  0.00  0.00    -0.191 NA
ENDBRANCH   2  28
TORSDOF 7
