REMARK  Name = ZINC49689814
REMARK  5 active torsions:
REMARK  status: ('A' for Active; 'I' for Inactive)
REMARK    1  A    between atoms: C_4  and  N_16
REMARK    2  A    between atoms: C_6  and  C_7
REMARK    3  A    between atoms: C_7  and  O_8
REMARK    4  A    between atoms: O_8  and  C_9
REMARK    5  A    between atoms: C_9  and  C_10
REMARK                            x       y       z     vdW  Elec       q    Type
REMARK                         _______ _______ _______ _____ _____    ______ ____
ROOT
ATOM      1  C   UNL     1      -0.017   1.378   0.010  0.00  0.00    +0.007 A 
ATOM      2  C   UNL     1       1.171   2.086   0.002  0.00  0.00    +0.022 A 
ATOM      3  C   UNL     1       2.378   1.410  -0.013  0.00  0.00    +0.071 A 
ATOM      4  C   UNL     1       2.396   0.027  -0.021  0.00  0.00    +0.145 A 
ATOM      5  C   UNL     1       1.208  -0.680  -0.013  0.00  0.00    +0.040 A 
ATOM      6  C   UNL     1       0.002  -0.004   0.002  0.00  0.00    -0.020 A 
ATOM      7 CL   UNL     1       3.870   2.298  -0.023  0.00  0.00    -0.081 Cl
ENDROOT
BRANCH   4   8
ATOM      8  N   UNL     1       3.687  -0.696  -0.037  0.00  0.00    +0.058 N 
ATOM      9  O   UNL     1       3.703  -1.905  -0.044  0.00  0.00    -0.126 OA
ATOM     10  O   UNL     1       4.726  -0.078  -0.044  0.00  0.00    -0.126 OA
ENDBRANCH   4   8
BRANCH   6  11
ATOM     11  C   UNL     1      -1.293  -0.775   0.011  0.00  0.00    +0.195 C 
BRANCH  11  12
ATOM     12  O   UNL     1      -1.716  -1.011  -1.334  0.00  0.00    -0.375 OA
BRANCH  12  13
ATOM     13  C   UNL     1      -2.941  -1.740  -1.438  0.00  0.00    +0.166 C 
BRANCH  13  14
ATOM     14  C   UNL     1      -3.294  -1.933  -2.914  0.00  0.00    +0.043 C 
ATOM     15  C   UNL     1      -4.659  -2.651  -3.054  0.00  0.00    +0.036 C 
ATOM     16  C   UNL     1      -4.393  -3.628  -4.228  0.00  0.00    +0.160 C 
ATOM     17  O   UNL     1      -3.029  -4.051  -4.011  0.00  0.00    -0.379 OA
ATOM     18  C   UNL     1      -2.291  -2.889  -3.588  0.00  0.00    +0.165 C 
ENDBRANCH  13  14
ENDBRANCH  12  13
ENDBRANCH  11  12
ENDBRANCH   6  11
TORSDOF 5
