REMARK  Name = ZINC12472834
REMARK  12 active torsions:
REMARK  status: ('A' for Active; 'I' for Inactive)
REMARK    1  A    between atoms: C_1  and  C_2
REMARK    2  A    between atoms: C_5  and  N_9
REMARK    3  A    between atoms: C_6  and  C_8
REMARK    4  A    between atoms: N_9  and  C_10
REMARK    5  A    between atoms: C_10  and  C_12
REMARK    6  A    between atoms: C_10  and  C_18
REMARK    7  A    between atoms: C_15  and  C_17
REMARK    8  A    between atoms: N_20  and  C_21
REMARK    9  A    between atoms: C_21  and  C_22
REMARK   10  A    between atoms: C_28  and  C_30
REMARK   11  A    between atoms: C_31  and  N_38
REMARK   12  A    between atoms: C_32  and  C_35
REMARK                            x       y       z     vdW  Elec       q    Type
REMARK                         _______ _______ _______ _____ _____    ______ ____
ROOT
ATOM      1  N   UNL     1      -2.491  -2.882  -0.151  0.00  0.00    -0.248 N 
ATOM      2  C   UNL     1      -2.740  -3.857  -1.048  0.00  0.00    +0.262 C 
ATOM      3  O   UNL     1      -1.904  -4.139  -1.888  0.00  0.00    -0.269 OA
ENDROOT
BRANCH   1   8
ATOM      4  C   UNL     1      -6.381  -1.565   3.760  0.00  0.00    +0.044 C 
ATOM      5  C   UNL     1      -5.348  -1.915   2.721  0.00  0.00    -0.050 A 
ATOM      6  C   UNL     1      -5.329  -1.241   1.513  0.00  0.00    +0.005 A 
ATOM      7  C   UNL     1      -4.379  -1.556   0.561  0.00  0.00    +0.024 A 
ATOM      8  C   UNL     1      -3.450  -2.558   0.813  0.00  0.00    +0.041 A 
ATOM      9  C   UNL     1      -3.473  -3.232   2.026  0.00  0.00    -0.029 A 
ATOM     10  C   UNL     1      -4.422  -2.909   2.977  0.00  0.00    +0.008 A 
ATOM     11  C   UNL     1      -2.464  -4.316   2.306  0.00  0.00    +0.045 C 
ENDBRANCH   1   8
BRANCH   2  12
ATOM     12  C   UNL     1      -4.014  -4.576  -1.013  0.00  0.00    +0.116 A 
ATOM     13  C   UNL     1      -4.472  -5.606  -1.837  0.00  0.00    +0.076 A 
ATOM     14  C   UNL     1      -5.751  -6.040  -1.488  0.00  0.00    +0.155 A 
ATOM     15  N   UNL     1      -6.370  -5.472  -0.477  0.00  0.00    -0.203 NA
ATOM     16  S   UNL     1      -5.393  -4.376   0.096  0.00  0.00    +0.019 S 
BRANCH  14  17
ATOM     17  C   UNL     1      -6.403  -7.124  -2.247  0.00  0.00    +0.262 C 
ATOM     18  O   UNL     1      -5.825  -7.644  -3.181  0.00  0.00    -0.269 OA
ATOM     19  N   UNL     1      -7.639  -7.537  -1.904  0.00  0.00    -0.324 N 
ATOM     20  H   UNL     1      -8.100  -7.122  -1.158  0.00  0.00    +0.145 HD
ATOM     21  H   UNL     1      -8.068  -8.250  -2.403  0.00  0.00    +0.145 HD
ENDBRANCH  14  17
BRANCH  13  22
ATOM     22  N   UNL     1      -3.736  -6.140  -2.886  0.00  0.00    -0.355 N 
ATOM     23  H   UNL     1      -2.850  -5.796  -3.081  0.00  0.00    +0.142 HD
ATOM     24  H   UNL     1      -4.108  -6.856  -3.425  0.00  0.00    +0.142 HD
ENDBRANCH  13  22
ENDBRANCH   2  12
BRANCH   1  25
ATOM     25  C   UNL     1      -1.215  -2.163  -0.187  0.00  0.00    +0.233 C 
BRANCH  25  26
ATOM     26  C   UNL     1      -0.579  -2.201   1.179  0.00  0.00    +0.135 A 
ATOM     27  C   UNL     1       0.688  -2.563   1.446  0.00  0.00    +0.047 A 
ATOM     28  C   UNL     1       0.860  -2.451   2.845  0.00  0.00    +0.045 A 
ATOM     29  C   UNL     1      -0.315  -2.034   3.350  0.00  0.00    +0.102 A 
ATOM     30  O   UNL     1      -1.183  -1.884   2.336  0.00  0.00    -0.462 OA
ATOM     31  C   UNL     1      -0.608  -1.779   4.806  0.00  0.00    +0.086 C 
ENDBRANCH  25  26
BRANCH  25  32
ATOM     32  C   UNL     1      -1.457  -0.730  -0.588  0.00  0.00    +0.242 C 
ATOM     33  O   UNL     1      -2.584  -0.348  -0.822  0.00  0.00    -0.273 OA
ATOM     34  N   UNL     1      -0.421   0.126  -0.687  0.00  0.00    -0.309 N 
ATOM     35  H   UNL     1       0.480  -0.179  -0.500  0.00  0.00    +0.149 HD
BRANCH  34  36
ATOM     36  C   UNL     1      -0.657   1.518  -1.077  0.00  0.00    +0.139 C 
BRANCH  36  37
ATOM     37  C   UNL     1       0.655   2.259  -1.114  0.00  0.00    -0.030 A 
ATOM     38  C   UNL     1       1.117   2.902   0.019  0.00  0.00    +0.005 A 
ATOM     39  C   UNL     1       2.324   3.577  -0.013  0.00  0.00    +0.000 A 
ATOM     40  C   UNL     1       3.062   3.617  -1.180  0.00  0.00    +0.000 A 
ATOM     41  C   UNL     1       2.598   2.978  -2.314  0.00  0.00    +0.000 A 
ATOM     42  C   UNL     1       1.394   2.299  -2.281  0.00  0.00    +0.005 A 
ENDBRANCH  36  37
ENDBRANCH  34  36
ENDBRANCH  25  32
ENDBRANCH   1  25
TORSDOF 9
