REMARK  Name = ZINC22683881
REMARK  11 active torsions:
REMARK  status: ('A' for Active; 'I' for Inactive)
REMARK    1  A    between atoms: C_1  and  C_2
REMARK    2  A    between atoms: C_2  and  C_3
REMARK    3  A    between atoms: C_6  and  C_9
REMARK    4  A    between atoms: C_9  and  C_11
REMARK    5  A    between atoms: C_9  and  N_30
REMARK    6  A    between atoms: C_11  and  N_12
REMARK    7  A    between atoms: C_13  and  C_15
REMARK    8  A    between atoms: C_15  and  N_16
REMARK    9  A    between atoms: C_24  and  C_26
REMARK   10  A    between atoms: N_30  and  C_31
REMARK   11  A    between atoms: N_30  and  C_32
REMARK                            x       y       z     vdW  Elec       q    Type
REMARK                         _______ _______ _______ _____ _____    ______ ____
ROOT
ATOM      1  N   UNL     1      -3.922  -0.063   6.741  0.00  0.00    -0.315 N 
ATOM      2  C   UNL     1      -3.771  -0.395   5.443  0.00  0.00    +0.231 C 
ATOM      3  O   UNL     1      -2.734  -0.894   5.062  0.00  0.00    -0.274 OA
ATOM      4  H   UNL     1      -4.863   0.390   7.086  0.00  0.00    +0.149 HD
ENDROOT
BRANCH   1   5
ATOM      5  C   UNL     1      -2.833  -0.305   7.691  0.00  0.00    +0.093 C 
BRANCH   5   6
ATOM      6  C   UNL     1      -3.260   0.159   9.085  0.00  0.00    -0.021 C 
BRANCH   6  10
ATOM      7  C   UNL     1       0.030  -0.224  11.782  0.00  0.00    -0.048 A 
ATOM      8  C   UNL     1       0.207   0.394  10.559  0.00  0.00    +0.004 A 
ATOM      9  C   UNL     1      -0.857   0.518   9.685  0.00  0.00    +0.002 A 
ATOM     10  C   UNL     1      -2.099   0.024  10.036  0.00  0.00    -0.059 A 
ATOM     11  C   UNL     1      -2.279  -0.590  11.262  0.00  0.00    +0.002 A 
ATOM     12  C   UNL     1      -1.212  -0.718  12.133  0.00  0.00    +0.004 A 
BRANCH   7  14
ATOM     13  C   UNL     1       1.245   0.867  13.649  0.00  0.00    +0.009 C 
ATOM     14  C   UNL     1       1.190  -0.358  12.734  0.00  0.00    +0.032 C 
ENDBRANCH   7  14
ENDBRANCH   6  10
BRANCH   6  15
ATOM     15  N   UNL     1      -3.683   1.564   9.025  0.00  0.00    +0.382 N 
ATOM     16  C   UNL     1      -4.272   1.991  10.301  0.00  0.00    -0.096 C 
ATOM     17  C   UNL     1      -2.564   2.435   8.644  0.00  0.00    -0.096 C 
ATOM     18  H   UNL     1      -4.459   1.651   8.249  0.00  0.00    -0.082 HD
ENDBRANCH   6  15
ENDBRANCH   5   6
ENDBRANCH   1   5
BRANCH   2  19
ATOM     19  C   UNL     1      -4.891  -0.146   4.466  0.00  0.00    +0.213 C 
BRANCH  19  20
ATOM     20  N   UNL     1      -4.482  -0.590   3.131  0.00  0.00    -0.215 N 
ATOM     21  C   UNL     1      -3.860   0.196   2.228  0.00  0.00    +0.247 C 
ATOM     22  O   UNL     1      -3.543   1.359   2.362  0.00  0.00    -0.273 OA
ATOM     23  C   UNL     1      -3.640  -0.679   1.016  0.00  0.00    +0.115 C 
ATOM     24  C   UNL     1      -4.375  -0.109  -0.192  0.00  0.00    +0.035 C 
ATOM     25  C   UNL     1      -4.167  -1.029  -1.398  0.00  0.00    +0.003 C 
ATOM     26  C   UNL     1      -2.671  -1.145  -1.698  0.00  0.00    +0.000 C 
ATOM     27  C   UNL     1      -1.950  -1.737  -0.485  0.00  0.00    +0.006 C 
ATOM     28  C   UNL     1      -2.149  -0.820   0.724  0.00  0.00    +0.018 C 
ATOM     29  C   UNL     1      -1.446  -1.421   1.942  0.00  0.00    +0.010 C 
ATOM     30  N   UNL     1      -4.212  -1.975   1.402  0.00  0.00    -0.285 N 
ATOM     31  C   UNL     1      -4.681  -1.825   2.656  0.00  0.00    +0.310 C 
ATOM     32  O   UNL     1      -5.223  -2.713   3.285  0.00  0.00    -0.252 OA
ATOM     33  H   UNL     1      -4.190  -2.818   0.696  0.00  0.00    +0.151 HD
ENDBRANCH  19  20
ENDBRANCH   2  19
TORSDOF 7
