REMARK  Name = ZINC66248122
REMARK  7 active torsions:
REMARK  status: ('A' for Active; 'I' for Inactive)
REMARK    1  A    between atoms: C_1  and  C_2
REMARK    2  A    between atoms: C_4  and  N_11
REMARK    3  A    between atoms: N_5  and  C_7
REMARK    4  A    between atoms: C_7  and  C_8
REMARK    5  A    between atoms: C_8  and  C_9
REMARK    6  A    between atoms: N_11  and  S_12
REMARK    7  A    between atoms: S_12  and  C_15
REMARK                            x       y       z     vdW  Elec       q    Type
REMARK                         _______ _______ _______ _____ _____    ______ ____
ROOT
ATOM      1  S   UNL     1       0.028  -3.063  -3.188  0.00  0.00    +0.072 S 
ATOM      2  O   UNL     1      -1.216  -2.442  -3.479  0.00  0.00    -0.153 OA
ATOM      3  O   UNL     1       1.253  -2.409  -3.490  0.00  0.00    -0.153 OA
ENDROOT
BRANCH   1   4
ATOM      4  C   UNL     1       0.047  -4.757  -3.837  0.00  0.00    +0.206 C 
ATOM      5  C   UNL     1       0.120  -4.705  -5.379  0.00  0.00    +0.204 C 
ATOM      6  S   UNL     1       1.127  -6.214  -5.688  0.00  0.00    -0.001 S 
ATOM      7  O   UNL     1       2.170  -5.951  -6.616  0.00  0.00    -0.169 OA
ATOM      8  O   UNL     1       0.301  -7.364  -5.806  0.00  0.00    -0.169 OA
ATOM      9  C   UNL     1       1.914  -6.341  -4.096  0.00  0.00    +0.093 A 
ATOM     10  C   UNL     1       1.223  -5.497  -3.246  0.00  0.00    +0.005 A 
ATOM     11  C   UNL     1       1.677  -5.414  -1.925  0.00  0.00    +0.007 A 
ATOM     12  C   UNL     1       2.758  -6.149  -1.497  0.00  0.00    +0.000 A 
ATOM     13  C   UNL     1       3.425  -6.992  -2.366  0.00  0.00    +0.002 A 
ATOM     14  C   UNL     1       2.991  -7.084  -3.672  0.00  0.00    +0.027 A 
ENDBRANCH   1   4
BRANCH   1  15
ATOM     15  N   UNL     1       0.038  -3.238  -1.541  0.00  0.00    -0.082 NA
BRANCH  15  19
ATOM     16  C   UNL     1      -0.018   1.503   0.010  0.00  0.00    +0.067 C 
ATOM     17  C   UNL     1       0.002  -0.004   0.002  0.00  0.00    +0.062 A 
ATOM     18  C   UNL     1       0.008  -0.816  -1.136  0.00  0.00    +0.071 A 
ATOM     19  C   UNL     1       0.027  -2.113  -0.721  0.00  0.00    +0.161 A 
ATOM     20  N   UNL     1       0.034  -2.110   0.631  0.00  0.00    -0.246 N 
ATOM     21  N   UNL     1       0.023  -0.776   1.058  0.00  0.00    -0.175 NA
BRANCH  20  22
ATOM     22  C   UNL     1       0.053  -3.292   1.496  0.00  0.00    +0.160 C 
BRANCH  22  23
ATOM     23  C   UNL     1       1.502  -3.685   1.791  0.00  0.00    +0.142 C 
BRANCH  23  24
ATOM     24  C   UNL     1       1.521  -4.872   2.660  0.00  0.00    +0.064 C 
ATOM     25  N   UNL     1       1.536  -5.789   3.331  0.00  0.00    -0.197 NA
ENDBRANCH  23  24
ENDBRANCH  22  23
ENDBRANCH  20  22
ENDBRANCH  15  19
ENDBRANCH   1  15
TORSDOF 6
