REMARK  Name = ZINC39933519
REMARK  11 active torsions:
REMARK  status: ('A' for Active; 'I' for Inactive)
REMARK    1  A    between atoms: C_1  and  C_2
REMARK    2  A    between atoms: C_3  and  C_28
REMARK    3  A    between atoms: C_6  and  S_8
REMARK    4  A    between atoms: S_8  and  C_9
REMARK    5  A    between atoms: C_9  and  C_10
REMARK    6  A    between atoms: N_12  and  C_13
REMARK    7  A    between atoms: C_13  and  C_14
REMARK    8  A    between atoms: C_15  and  C_27
REMARK    9  A    between atoms: N_17  and  C_21
REMARK   10  A    between atoms: C_18  and  C_20
REMARK   11  A    between atoms: C_28  and  C_29
REMARK                            x       y       z     vdW  Elec       q    Type
REMARK                         _______ _______ _______ _____ _____    ______ ____
ROOT
ATOM      1  C   UNL     1       0.078  -3.839   4.466  0.00  0.00    +0.224 C 
ATOM      2  O   UNL     1       0.092  -4.997   4.108  0.00  0.00    -0.275 OA
ATOM      3  N   UNL     1       0.080  -3.539   5.780  0.00  0.00    -0.311 N 
ATOM      4  H   UNL     1       0.068  -2.613   6.066  0.00  0.00    +0.149 HD
ENDROOT
BRANCH   1   5
ATOM      5  C   UNL     1       0.057  -2.734   3.441  0.00  0.00    +0.173 C 
BRANCH   5   6
ATOM      6  S   UNL     1       0.059  -3.453   1.776  0.00  0.00    -0.079 S 
BRANCH   6  12
ATOM      7  C   UNL     1      -0.018   1.503   0.010  0.00  0.00    +0.067 C 
ATOM      8  C   UNL     1       0.002  -0.004   0.002  0.00  0.00    +0.060 A 
ATOM      9  C   UNL     1       0.008  -0.785  -1.092  0.00  0.00    +0.043 A 
ATOM     10  N   UNL     1       0.028  -2.090  -0.654  0.00  0.00    -0.336 N 
ATOM     11  H   UNL     1       0.037  -2.885  -1.209  0.00  0.00    +0.168 HD
ATOM     12  C   UNL     1       0.034  -2.053   0.707  0.00  0.00    +0.167 A 
ATOM     13  N   UNL     1       0.024  -0.796   1.087  0.00  0.00    -0.227 NA
BRANCH   9  14
ATOM     14  C   UNL     1      -0.006  -0.320  -2.525  0.00  0.00    +0.090 C 
BRANCH  14  15
ATOM     15  C   UNL     1       1.403  -0.027  -2.972  0.00  0.00    -0.042 A 
ATOM     16  C   UNL     1       1.932   1.239  -2.804  0.00  0.00    +0.004 A 
ATOM     17  C   UNL     1       3.225   1.508  -3.213  0.00  0.00    +0.000 A 
ATOM     18  C   UNL     1       3.988   0.511  -3.792  0.00  0.00    +0.000 A 
ATOM     19  C   UNL     1       3.459  -0.755  -3.959  0.00  0.00    +0.000 A 
ATOM     20  C   UNL     1       2.168  -1.025  -3.546  0.00  0.00    +0.004 A 
ENDBRANCH  14  15
ENDBRANCH   9  14
ENDBRANCH   6  12
ENDBRANCH   5   6
ENDBRANCH   1   5
BRANCH   3  21
ATOM     21  C   UNL     1       0.100  -4.614   6.776  0.00  0.00    +0.138 C 
BRANCH  21  22
ATOM     22  C   UNL     1       0.098  -4.016   8.159  0.00  0.00    -0.013 C 
ATOM     23  C   UNL     1      -0.958  -3.812   8.918  0.00  0.00    +0.022 C 
ATOM     24  N   UNL     1      -0.619  -3.248  10.132  0.00  0.00    -0.268 N 
ATOM     25  N   UNL     1       0.767  -3.052  10.208  0.00  0.00    -0.246 N 
ATOM     26  C   UNL     1       1.311  -3.547   8.932  0.00  0.00    +0.120 C 
ATOM     27  C   UNL     1       2.017  -2.416   8.182  0.00  0.00    +0.035 C 
ATOM     28  C   UNL     1      -2.368  -4.154   8.510  0.00  0.00    +0.062 C 
ATOM     29  H   UNL     1      -1.250  -3.019  10.832  0.00  0.00    +0.170 HD
BRANCH  25  30
ATOM     30  C   UNL     1       1.484  -2.506  11.275  0.00  0.00    +0.048 A 
ATOM     31  C   UNL     1       2.865  -2.373  11.191  0.00  0.00    +0.025 A 
ATOM     32  C   UNL     1       3.570  -1.832  12.248  0.00  0.00    +0.002 A 
ATOM     33  C   UNL     1       2.905  -1.423  13.389  0.00  0.00    +0.000 A 
ATOM     34  C   UNL     1       1.531  -1.554  13.476  0.00  0.00    +0.002 A 
ATOM     35  C   UNL     1       0.818  -2.089  12.421  0.00  0.00    +0.025 A 
ENDBRANCH  25  30
ENDBRANCH  21  22
ENDBRANCH   3  21
TORSDOF 8
