REMARK  Name = ZINC00799116
REMARK  6 active torsions:
REMARK  status: ('A' for Active; 'I' for Inactive)
REMARK    1  A    between atoms: C_1  and  C_2
REMARK    2  A    between atoms: C_7  and  N_8
REMARK    3  A    between atoms: N_8  and  N_9
REMARK    4  A    between atoms: C_11  and  C_19
REMARK    5  A    between atoms: N_13  and  C_16
REMARK    6  A    between atoms: C_16  and  N_18
REMARK                            x       y       z     vdW  Elec       q    Type
REMARK                         _______ _______ _______ _____ _____    ______ ____
ROOT
ATOM      1  N   UNL     1       0.442  -0.662   3.499  0.00  0.00    -0.175 NA
ATOM      2  C   UNL     1       0.450  -0.022   4.653  0.00  0.00    +0.173 C 
ATOM      3  C   UNL     1       0.329   1.434   4.876  0.00  0.00    +0.122 C 
ATOM      4  N   UNL     1       0.384   1.636   6.165  0.00  0.00    -0.168 NA
ATOM      5  N   UNL     1       0.533   0.436   6.860  0.00  0.00    -0.134 N 
ATOM      6  C   UNL     1       0.573  -0.601   6.000  0.00  0.00    +0.294 C 
ATOM      7  O   UNL     1       0.691  -1.781   6.281  0.00  0.00    -0.266 OA
ENDROOT
BRANCH   3   8
ATOM      8  C   UNL     1       0.175   2.473   3.831  0.00  0.00    +0.004 A 
ATOM      9  C   UNL     1      -1.095   2.931   3.481  0.00  0.00    +0.010 A 
ATOM     10  C   UNL     1      -1.232   3.898   2.507  0.00  0.00    +0.001 A 
ATOM     11  C   UNL     1      -0.113   4.414   1.878  0.00  0.00    +0.000 A 
ATOM     12  C   UNL     1       1.149   3.964   2.221  0.00  0.00    +0.001 A 
ATOM     13  C   UNL     1       1.300   3.001   3.198  0.00  0.00    +0.010 A 
ENDBRANCH   3   8
BRANCH   1  14
ATOM     14  N   UNL     1       0.210  -0.018   2.406  0.00  0.00    -0.237 N 
ATOM     15  H   UNL     1       0.114   0.947   2.422  0.00  0.00    +0.174 HD
BRANCH  14  22
ATOM     16  C   UNL     1      -0.104   1.495   0.017  0.00  0.00    +0.046 C 
ATOM     17  C   UNL     1      -0.056  -0.011   0.008  0.00  0.00    -0.027 A 
ATOM     18  C   UNL     1      -0.160  -0.699  -1.185  0.00  0.00    +0.019 A 
ATOM     19  C   UNL     1      -0.117  -2.082  -1.194  0.00  0.00    +0.014 A 
ATOM     20  C   UNL     1       0.031  -2.781  -0.009  0.00  0.00    +0.016 A 
ATOM     21  C   UNL     1       0.136  -2.100   1.187  0.00  0.00    +0.026 A 
ATOM     22  C   UNL     1       0.099  -0.710   1.199  0.00  0.00    +0.051 A 
ATOM     23  I   UNL     1      -0.277  -3.120  -3.007  0.00  0.00    -0.044 I 
ENDBRANCH  14  22
ENDBRANCH   1  14
BRANCH   5  24
ATOM     24  C   UNL     1       0.619   0.328   8.200  0.00  0.00    +0.158 C 
ATOM     25  S   UNL     1       0.801  -1.212   8.925  0.00  0.00    -0.017 S 
BRANCH  24  26
ATOM     26  N   UNL     1       0.561   1.433   8.970  0.00  0.00    -0.339 N 
ATOM     27  H   UNL     1       0.458   2.305   8.560  0.00  0.00    +0.144 HD
ATOM     28  H   UNL     1       0.623   1.355   9.935  0.00  0.00    +0.144 HD
ENDBRANCH  24  26
ENDBRANCH   5  24
TORSDOF 5
