REMARK  Name = ZINC16809185
REMARK  7 active torsions:
REMARK  status: ('A' for Active; 'I' for Inactive)
REMARK    1  A    between atoms: C_1  and  C_2
REMARK    2  A    between atoms: C_2  and  C_4
REMARK    3  A    between atoms: C_6  and  N_14
REMARK    4  A    between atoms: C_9  and  O_10
REMARK    5  A    between atoms: O_10  and  C_11
REMARK    6  A    between atoms: C_11  and  C_13
REMARK    7  A    between atoms: C_23  and  N_37
REMARK                            x       y       z     vdW  Elec       q    Type
REMARK                         _______ _______ _______ _____ _____    ______ ____
ROOT
ATOM      1  N   UNL     1      -4.623   0.066   0.159  0.00  0.00    -0.210 N 
ATOM      2  C   UNL     1      -4.860   1.415   0.096  0.00  0.00    +0.231 C 
ATOM      3  O   UNL     1      -4.113   2.292  -0.281  0.00  0.00    -0.274 OA
ATOM      4  C   UNL     1      -6.298   1.547   0.619  0.00  0.00    +0.103 C 
ATOM      5  C   UNL     1      -6.789   0.319  -0.233  0.00  0.00    +0.130 C 
ATOM      6  C   UNL     1      -5.779  -0.680   0.148  0.00  0.00    +0.233 C 
ATOM      7  O   UNL     1      -5.928  -1.859   0.392  0.00  0.00    -0.274 OA
ATOM      8  C   UNL     1      -8.308   0.177  -0.155  0.00  0.00    +0.183 C 
ATOM      9  C   UNL     1      -8.479   1.085  -1.421  0.00  0.00    -0.006 A 
ATOM     10  C   UNL     1      -9.267   0.756  -2.476  0.00  0.00    +0.007 A 
ATOM     11  C   UNL     1      -9.261   1.600  -3.584  0.00  0.00    +0.000 A 
ATOM     12  C   UNL     1      -8.455   2.724  -3.584  0.00  0.00    +0.000 A 
ATOM     13  C   UNL     1      -7.682   3.055  -2.482  0.00  0.00    +0.004 A 
ATOM     14  C   UNL     1      -7.730   2.246  -1.366  0.00  0.00    -0.033 A 
ATOM     15  C   UNL     1      -7.096   2.733  -0.041  0.00  0.00    +0.062 C 
ATOM     16  C   UNL     1      -8.324   2.506   0.885  0.00  0.00    -0.033 A 
ATOM     17  C   UNL     1      -8.844   1.201   0.876  0.00  0.00    -0.006 A 
ATOM     18  C   UNL     1      -9.843   0.851   1.754  0.00  0.00    +0.007 A 
ATOM     19  C   UNL     1     -10.353   1.819   2.606  0.00  0.00    +0.000 A 
ATOM     20  C   UNL     1      -9.875   3.116   2.575  0.00  0.00    +0.000 A 
ATOM     21  C   UNL     1      -8.831   3.477   1.696  0.00  0.00    +0.004 A 
ENDROOT
BRANCH   1  24
ATOM     22  C   UNL     1      -0.946  -0.233   0.290  0.00  0.00    +0.061 A 
ATOM     23  C   UNL     1      -2.227   0.328   0.228  0.00  0.00    +0.039 A 
ATOM     24  C   UNL     1      -3.338  -0.495   0.221  0.00  0.00    +0.045 A 
ATOM     25  C   UNL     1      -3.186  -1.877   0.277  0.00  0.00    +0.027 A 
ATOM     26  C   UNL     1      -1.927  -2.439   0.339  0.00  0.00    +0.049 A 
ATOM     27  C   UNL     1      -0.802  -1.629   0.339  0.00  0.00    +0.142 A 
BRANCH  22  29
ATOM     28  C   UNL     1       0.080   2.131   0.244  0.00  0.00    +0.092 C 
ATOM     29  C   UNL     1       0.240   0.633   0.297  0.00  0.00    +0.164 C 
ATOM     30  O   UNL     1       1.348   0.143   0.346  0.00  0.00    -0.292 OA
ENDBRANCH  22  29
BRANCH  27  31
ATOM     31  O   UNL     1       0.436  -2.183   0.394  0.00  0.00    -0.425 OA
BRANCH  31  32
ATOM     32  C   UNL     1       1.002  -2.345   1.601  0.00  0.00    +0.309 C 
ATOM     33  O   UNL     1       0.375  -2.086   2.601  0.00  0.00    -0.251 OA
ATOM     34  C   UNL     1       2.418  -2.849   1.708  0.00  0.00    +0.136 C 
ENDBRANCH  31  32
ENDBRANCH  27  31
ENDBRANCH   1  24
BRANCH   8  35
ATOM     35  N   UNL     1      -8.874  -1.174  -0.130  0.00  0.00    +0.038 N 
ATOM     36  O   UNL     1      -9.079  -1.724   0.927  0.00  0.00    -0.130 OA
ATOM     37  O   UNL     1      -9.137  -1.739  -1.166  0.00  0.00    -0.130 OA
ENDBRANCH   8  35
TORSDOF 5
