REMARK  Name = ZINC63140895
REMARK  4 active torsions:
REMARK  status: ('A' for Active; 'I' for Inactive)
REMARK    1  A    between atoms: C_1  and  O_2
REMARK    2  A    between atoms: O_2  and  C_3
REMARK    3  A    between atoms: C_8  and  C_9
REMARK    4  A    between atoms: N_28  and  C_31
REMARK                            x       y       z     vdW  Elec       q    Type
REMARK                         _______ _______ _______ _____ _____    ______ ____
ROOT
ATOM      1  C   UNL     1       0.018  -2.829  -0.013  0.00  0.00    +0.137 C 
ATOM      2  C   UNL     1       0.593  -2.920   1.404  0.00  0.00    +0.131 C 
ATOM      3  C   UNL     1       1.707  -3.958   1.359  0.00  0.00    -0.034 C 
ATOM      4  C   UNL     1       2.798  -3.356   1.817  0.00  0.00    -0.001 A 
ATOM      5  C   UNL     1       4.157  -3.858   2.077  0.00  0.00    +0.010 A 
ATOM      6  C   UNL     1       5.053  -2.948   2.543  0.00  0.00    +0.001 A 
ATOM      7  C   UNL     1       4.736  -1.606   2.774  0.00  0.00    +0.002 A 
ATOM      8  C   UNL     1       3.511  -1.060   2.569  0.00  0.00    +0.026 A 
ATOM      9  C   UNL     1       2.483  -1.920   2.083  0.00  0.00    +0.043 A 
ATOM     10  N   UNL     1       1.215  -1.663   1.824  0.00  0.00    -0.375 N 
ATOM     11  C   UNL     1       1.498  -5.344   0.800  0.00  0.00    +0.065 C 
ATOM     12  C   UNL     1       0.829  -5.167  -0.576  0.00  0.00    +0.167 C 
ATOM     13  N   UNL     1      -0.265  -4.206  -0.474  0.00  0.00    -0.279 N 
ATOM     14  C   UNL     1      -1.530  -4.517  -0.781  0.00  0.00    +0.234 C 
ATOM     15  O   UNL     1      -2.371  -3.654  -0.643  0.00  0.00    -0.274 OA
ATOM     16  C   UNL     1      -1.979  -5.850  -1.280  0.00  0.00    +0.204 C 
ATOM     17  N   UNL     1      -0.877  -6.789  -1.407  0.00  0.00    -0.288 N 
ATOM     18  C   UNL     1       0.383  -6.494  -1.092  0.00  0.00    +0.237 C 
ATOM     19  O   UNL     1       1.221  -7.358  -1.239  0.00  0.00    -0.274 OA
ATOM     20  H   UNL     1       0.769  -0.805   1.891  0.00  0.00    +0.160 HD
ENDROOT
BRANCH  17  21
ATOM     21  C   UNL     1      -1.169  -8.135  -1.907  0.00  0.00    +0.077 C 
ATOM     22  C   UNL     1      -1.706  -8.027  -3.348  0.00  0.00    +0.022 C 
ATOM     23  C   UNL     1      -1.523  -9.358  -4.027  0.00  0.00    +0.002 C 
ATOM     24  C   UNL     1      -2.778 -10.247  -3.931  0.00  0.00    +0.000 C 
ATOM     25  C   UNL     1      -3.439 -10.198  -2.541  0.00  0.00    +0.000 C 
ATOM     26  C   UNL     1      -2.432 -10.228  -1.423  0.00  0.00    +0.002 C 
ATOM     27  C   UNL     1      -2.118  -8.776  -1.008  0.00  0.00    +0.022 C 
ENDBRANCH  17  21
BRANCH   1  33
ATOM     28  C   UNL     1      -1.697  -1.400  -1.154  0.00  0.00    +0.125 A 
ATOM     29  C   UNL     1      -2.873  -0.663  -1.138  0.00  0.00    +0.046 A 
ATOM     30  C   UNL     1      -3.598  -0.549   0.032  0.00  0.00    +0.004 A 
ATOM     31  C   UNL     1      -3.153  -1.167   1.186  0.00  0.00    +0.001 A 
ATOM     32  C   UNL     1      -1.982  -1.901   1.172  0.00  0.00    +0.009 A 
ATOM     33  C   UNL     1      -1.255  -2.023   0.003  0.00  0.00    +0.017 A 
BRANCH  28  35
ATOM     34  C   UNL     1      -1.496  -0.845  -3.458  0.00  0.00    +0.277 C 
ATOM     35  O   UNL     1      -0.982  -1.514  -2.304  0.00  0.00    -0.495 OA
ENDBRANCH  28  35
ENDBRANCH   1  33
TORSDOF 3
