REMARK  Name = ZINC07471412
REMARK  4 active torsions:
REMARK  status: ('A' for Active; 'I' for Inactive)
REMARK    1  A    between atoms: C_1  and  C_2
REMARK    2  A    between atoms: C_5  and  C_9
REMARK    3  A    between atoms: C_7  and  C_8
REMARK    4  A    between atoms: C_15  and  C_17
REMARK                            x       y       z     vdW  Elec       q    Type
REMARK                         _______ _______ _______ _____ _____    ______ ____
ROOT
ATOM      1  C   UNL     1       1.247  -2.165  -0.022  0.00  0.00    +0.080 A 
ATOM      2  C   UNL     1       0.082  -2.875  -0.113  0.00  0.00    +0.076 A 
ATOM      3  S   UNL     1       0.712  -4.548  -0.081  0.00  0.00    -0.060 S 
ATOM      4  C   UNL     1       2.445  -4.132   0.058  0.00  0.00    +0.165 A 
ATOM      5  N   UNL     1       2.399  -2.813   0.064  0.00  0.00    -0.225 NA
ATOM      6  N   UNL     1       3.547  -4.974   0.137  0.00  0.00    -0.262 N 
ATOM      7  C   UNL     1       3.378  -6.311   0.114  0.00  0.00    +0.260 C 
ATOM      8  O   UNL     1       2.263  -6.779   0.024  0.00  0.00    -0.271 OA
ATOM      9  H   UNL     1       4.439  -4.599   0.209  0.00  0.00    +0.157 HD
ENDROOT
BRANCH   7  10
ATOM     10  C   UNL     1       4.574  -7.224   0.201  0.00  0.00    +0.266 C 
ATOM     11  C   UNL     1       5.447  -7.040  -1.041  0.00  0.00    +0.090 C 
ATOM     12  C   UNL     1       6.506  -8.109  -1.098  0.00  0.00    -0.029 A 
ATOM     13  C   UNL     1       7.646  -7.909  -1.852  0.00  0.00    +0.004 A 
ATOM     14  C   UNL     1       8.618  -8.892  -1.915  0.00  0.00    +0.000 A 
ATOM     15  C   UNL     1       8.460 -10.081  -1.225  0.00  0.00    +0.001 A 
ATOM     16  C   UNL     1       7.326 -10.294  -0.466  0.00  0.00    +0.015 A 
ATOM     17  C   UNL     1       6.345  -9.306  -0.399  0.00  0.00    +0.062 A 
ATOM     18  C   UNL     1       5.124  -9.516   0.413  0.00  0.00    +0.340 C 
ATOM     19  O   UNL     1       5.022 -10.460   1.170  0.00  0.00    -0.245 OA
ATOM     20  O   UNL     1       4.125  -8.608   0.274  0.00  0.00    -0.448 OA
ENDBRANCH   7  10
BRANCH   1  25
ATOM     21  C   UNL     1       1.143   3.593   0.010  0.00  0.00    +0.044 C 
ATOM     22  C   UNL     1       1.170   2.086   0.002  0.00  0.00    -0.047 A 
ATOM     23  C   UNL     1      -0.017   1.376   0.010  0.00  0.00    +0.004 A 
ATOM     24  C   UNL     1       0.002  -0.004   0.002  0.00  0.00    +0.010 A 
ATOM     25  C   UNL     1       1.220  -0.682  -0.013  0.00  0.00    +0.001 A 
ATOM     26  C   UNL     1       2.413   0.039  -0.021  0.00  0.00    +0.013 A 
ATOM     27  C   UNL     1       2.382   1.419  -0.013  0.00  0.00    -0.047 A 
ATOM     28  C   UNL     1       3.671   2.200  -0.022  0.00  0.00    +0.044 C 
ENDBRANCH   1  25
TORSDOF 2
