REMARK  Name = ZINC43426834
REMARK  1 active torsions:
REMARK  status: ('A' for Active; 'I' for Inactive)
REMARK    1  A    between atoms: C_4  and  N_7
REMARK                            x       y       z     vdW  Elec       q    Type
REMARK                         _______ _______ _______ _____ _____    ______ ____
ROOT
ATOM      1  N   UNL     1       2.773  -0.567  -2.471  0.00  0.00    -0.288 N 
ATOM      2  C   UNL     1       4.022  -1.142  -2.504  0.00  0.00    +0.219 A 
ATOM      3  N   UNL     1       4.389  -1.271  -3.745  0.00  0.00    -0.137 NA
ATOM      4  N   UNL     1       3.361  -0.772  -4.556  0.00  0.00    -0.253 N 
ATOM      5  C   UNL     1       2.373  -0.349  -3.740  0.00  0.00    +0.177 A 
ATOM      6  S   UNL     1       0.885   0.344  -4.227  0.00  0.00    -0.011 S 
ATOM      7  N   UNL     1       4.767  -1.519  -1.396  0.00  0.00    -0.292 N 
ATOM      8  C   UNL     1       4.781  -0.738  -0.138  0.00  0.00    +0.136 C 
ATOM      9  C   UNL     1       6.214  -0.511   0.341  0.00  0.00    +0.179 C 
ATOM     10  O   UNL     1       7.002  -1.714   0.267  0.00  0.00    -0.373 OA
ATOM     11  C   UNL     1       7.035  -2.220  -1.049  0.00  0.00    +0.139 C 
ATOM     12  C   UNL     1       5.593  -2.719  -1.377  0.00  0.00    +0.105 C 
ATOM     13  C   UNL     1       5.779  -3.471  -2.688  0.00  0.00    +0.025 C 
ATOM     14  C   UNL     1       7.223  -4.031  -2.635  0.00  0.00    +0.004 C 
ATOM     15  C   UNL     1       7.864  -3.473  -1.325  0.00  0.00    +0.033 C 
ATOM     16  H   UNL     1       3.358  -0.740  -5.526  0.00  0.00    +0.191 HD
ENDROOT
BRANCH   1  20
ATOM     17  C   UNL     1      -0.382   0.857   0.022  0.00  0.00    +0.000 C 
ATOM     18  C   UNL     1       0.962   1.585   0.070  0.00  0.00    +0.002 C 
ATOM     19  C   UNL     1       1.765   1.256  -1.191  0.00  0.00    +0.025 C 
ATOM     20  C   UNL     1       2.004  -0.253  -1.264  0.00  0.00    +0.092 C 
ATOM     21  C   UNL     1       0.659  -0.981  -1.312  0.00  0.00    +0.025 C 
ATOM     22  C   UNL     1      -0.143  -0.653  -0.051  0.00  0.00    +0.002 C 
ENDBRANCH   1  20
TORSDOF 1
