REMARK  Name = ZINC11325308
REMARK  6 active torsions:
REMARK  status: ('A' for Active; 'I' for Inactive)
REMARK    1  A    between atoms: C_3  and  N_21
REMARK    2  A    between atoms: C_6  and  N_7
REMARK    3  A    between atoms: C_8  and  C_10
REMARK    4  A    between atoms: C_10  and  C_11
REMARK    5  A    between atoms: N_21  and  S_22
REMARK    6  A    between atoms: S_22  and  C_25
REMARK                            x       y       z     vdW  Elec       q    Type
REMARK                         _______ _______ _______ _____ _____    ______ ____
ROOT
ATOM      1  C   UNL     1       5.822   1.346  -4.015  0.00  0.00    +0.025 A 
ATOM      2  C   UNL     1       5.446   0.206  -3.333  0.00  0.00    +0.026 A 
ATOM      3  C   UNL     1       4.317   0.222  -2.524  0.00  0.00    +0.048 A 
ATOM      4  C   UNL     1       3.563   1.383  -2.406  0.00  0.00    +0.026 A 
ATOM      5  C   UNL     1       3.943   2.524  -3.084  0.00  0.00    +0.025 A 
ATOM      6  C   UNL     1       5.072   2.508  -3.892  0.00  0.00    +0.033 A 
ENDROOT
BRANCH   6   7
ATOM      7  N   UNL     1       5.454   3.665  -4.585  0.00  0.00    -0.285 N 
ATOM      8  C   UNL     1       6.046   3.563  -5.792  0.00  0.00    +0.217 C 
ATOM      9  O   UNL     1       6.162   2.478  -6.321  0.00  0.00    -0.275 OA
ATOM     10  H   UNL     1       5.292   4.538  -4.197  0.00  0.00    +0.155 HD
BRANCH   8  11
ATOM     11  C   UNL     1       6.564   4.798  -6.484  0.00  0.00    +0.100 C 
BRANCH  11  12
ATOM     12  C   UNL     1       7.184   4.407  -7.827  0.00  0.00    +0.001 C 
ATOM     13  C   UNL     1       6.083   3.993  -8.829  0.00  0.00    +0.007 C 
ATOM     14  C   UNL     1       6.211   5.015 -10.000  0.00  0.00    -0.010 C 
ATOM     15  C   UNL     1       5.709   6.363  -9.397  0.00  0.00    +0.004 C 
ATOM     16  C   UNL     1       6.810   6.777  -8.395  0.00  0.00    +0.004 C 
ATOM     17  C   UNL     1       7.873   5.641  -8.486  0.00  0.00    -0.007 C 
ATOM     18  C   UNL     1       7.761   5.259 -10.004  0.00  0.00    +0.007 C 
ENDBRANCH  11  12
ENDBRANCH   8  11
ENDBRANCH   6   7
BRANCH   3  19
ATOM     19  N   UNL     1       3.935  -0.933  -1.833  0.00  0.00    -0.216 N 
ATOM     20  H   UNL     1       3.918  -1.788  -2.290  0.00  0.00    +0.174 HD
BRANCH  19  21
ATOM     21  S   UNL     1       3.514  -0.840  -0.234  0.00  0.00    +0.072 S 
ATOM     22  O   UNL     1       3.254  -2.169   0.196  0.00  0.00    -0.150 OA
ATOM     23  O   UNL     1       2.549   0.198  -0.128  0.00  0.00    -0.150 OA
BRANCH  21  24
ATOM     24  C   UNL     1       4.938  -0.294   0.649  0.00  0.00    +0.112 A 
ATOM     25  C   UNL     1       5.205   1.058   0.761  0.00  0.00    +0.032 A 
ATOM     26  C   UNL     1       6.321   1.489   1.452  0.00  0.00    +0.051 A 
ATOM     27  C   UNL     1       7.178   0.567   2.035  0.00  0.00    +0.162 A 
ATOM     28  C   UNL     1       6.908  -0.792   1.924  0.00  0.00    +0.164 A 
ATOM     29  C   UNL     1       5.787  -1.218   1.229  0.00  0.00    +0.078 A 
ATOM     30  O   UNL     1       7.731  -1.714   2.495  0.00  0.00    -0.485 OA
ATOM     31  C   UNL     1       9.041  -1.268   2.862  0.00  0.00    +0.270 C 
ATOM     32  C   UNL     1       8.904   0.075   3.594  0.00  0.00    +0.270 C 
ATOM     33  O   UNL     1       8.278   1.007   2.704  0.00  0.00    -0.485 OA
ENDBRANCH  21  24
ENDBRANCH  19  21
ENDBRANCH   3  19
TORSDOF 6
