REMARK  Name = ZINC33937252
REMARK  12 active torsions:
REMARK  status: ('A' for Active; 'I' for Inactive)
REMARK    1  A    between atoms: C_1  and  C_2
REMARK    2  A    between atoms: C_4  and  C_38
REMARK    3  A    between atoms: C_7  and  C_14
REMARK    4  A    between atoms: C_14  and  N_15
REMARK    5  A    between atoms: N_15  and  C_16
REMARK    6  A    between atoms: N_15  and  C_23
REMARK    7  A    between atoms: C_16  and  C_17
REMARK    8  A    between atoms: C_23  and  C_25
REMARK    9  A    between atoms: C_23  and  C_35
REMARK   10  A    between atoms: N_29  and  C_30
REMARK   11  A    between atoms: C_35  and  C_36
REMARK   12  A    between atoms: C_35  and  C_37
REMARK                            x       y       z     vdW  Elec       q    Type
REMARK                         _______ _______ _______ _____ _____    ______ ____
ROOT
ATOM      1  N   UNL     1       1.683  -6.824   1.445  0.00  0.00    +0.391 N 
ATOM      2  H   UNL     1       1.985  -6.303   2.255  0.00  0.00    -0.080 HD
ENDROOT
BRANCH   1   3
ATOM      3  C   UNL     1       0.217  -6.790   1.360  0.00  0.00    -0.036 C 
BRANCH   3  10
ATOM      4  C   UNL     1      -2.294 -12.172  -3.964  0.00  0.00    +0.044 C 
ATOM      5  C   UNL     1      -1.842 -11.326  -2.801  0.00  0.00    -0.048 A 
ATOM      6  C   UNL     1      -1.775 -11.884  -1.531  0.00  0.00    +0.007 A 
ATOM      7  C   UNL     1      -1.367 -11.136  -0.464  0.00  0.00    -0.041 A 
ATOM      8  C   UNL     1      -1.013  -9.795  -0.652  0.00  0.00    +0.002 A 
ATOM      9  C   UNL     1      -0.572  -8.965   0.470  0.00  0.00    +0.017 A 
ATOM     10  C   UNL     1      -0.241  -7.672   0.228  0.00  0.00    +0.001 A 
ATOM     11  C   UNL     1      -0.326  -7.150  -1.081  0.00  0.00    +0.251 A 
ATOM     12  O   UNL     1      -0.024  -5.985  -1.276  0.00  0.00    -0.268 OA
ATOM     13  N   UNL     1      -0.730  -7.905  -2.117  0.00  0.00    -0.322 N 
ATOM     14  H   UNL     1      -0.776  -7.515  -3.003  0.00  0.00    +0.169 HD
ATOM     15  C   UNL     1      -1.080  -9.226  -1.937  0.00  0.00    +0.050 A 
ATOM     16  C   UNL     1      -1.493 -10.010  -3.010  0.00  0.00    +0.029 A 
ATOM     17  C   UNL     1      -1.298 -11.751   0.910  0.00  0.00    +0.044 C 
ENDBRANCH   3  10
ENDBRANCH   1   3
BRANCH   1  18
ATOM     18  C   UNL     1       2.258  -6.223   0.234  0.00  0.00    -0.045 C 
BRANCH  18  19
ATOM     19  C   UNL     1       2.130  -4.701   0.309  0.00  0.00    +0.102 C 
ATOM     20  C   UNL     1       2.710  -4.048  -0.971  0.00  0.00    +0.032 C 
ATOM     21  C   UNL     1       1.933  -2.704  -0.994  0.00  0.00    +0.030 C 
ATOM     22  C   UNL     1       0.561  -3.108  -0.413  0.00  0.00    +0.160 C 
ATOM     23  O   UNL     1       0.746  -4.317   0.334  0.00  0.00    -0.378 OA
ENDBRANCH  18  19
ENDBRANCH   1  18
BRANCH   1  24
ATOM     24  C   UNL     1       2.134  -8.217   1.563  0.00  0.00    +0.006 C 
BRANCH  24  25
ATOM     25  C   UNL     1       3.639  -8.252   1.650  0.00  0.00    +0.139 A 
ATOM     26  N   UNL     1       4.397  -7.483   2.393  0.00  0.00    -0.115 NA
ATOM     27  N   UNL     1       5.624  -7.821   2.190  0.00  0.00    -0.023 NA
ATOM     28  N   UNL     1       5.668  -8.785   1.338  0.00  0.00    -0.044 NA
ATOM     29  N   UNL     1       4.463  -9.083   0.985  0.00  0.00    -0.228 N 
BRANCH  29  30
ATOM     30  C   UNL     1       4.067 -10.127   0.037  0.00  0.00    +0.111 C 
ATOM     31  C   UNL     1       4.607 -11.495   0.501  0.00  0.00    +0.027 C 
ATOM     32  C   UNL     1       5.003 -12.213  -0.813  0.00  0.00    +0.002 C 
ATOM     33  C   UNL     1       5.592 -11.062  -1.667  0.00  0.00    +0.002 C 
ATOM     34  C   UNL     1       4.693  -9.851  -1.341  0.00  0.00    +0.027 C 
ENDBRANCH  29  30
ENDBRANCH  24  25
BRANCH  24  35
ATOM     35  C   UNL     1       1.536  -8.842   2.825  0.00  0.00    -0.024 C 
ATOM     36  C   UNL     1       2.006 -10.293   2.947  0.00  0.00    +0.006 C 
ATOM     37  C   UNL     1       1.994  -8.052   4.052  0.00  0.00    +0.006 C 
ENDBRANCH  24  35
ENDBRANCH   1  24
TORSDOF 8
