REMARK  Name = ZINC00690983
REMARK  4 active torsions:
REMARK  status: ('A' for Active; 'I' for Inactive)
REMARK    1  A    between atoms: C_4  and  C_7
REMARK    2  A    between atoms: C_12  and  C_26
REMARK    3  A    between atoms: C_14  and  C_24
REMARK    4  A    between atoms: C_15  and  N_23
REMARK                            x       y       z     vdW  Elec       q    Type
REMARK                         _______ _______ _______ _____ _____    ______ ____
ROOT
ATOM      1  C   UNL     1       3.417  -0.978   0.004  0.00  0.00    +0.032 C 
ATOM      2  C   UNL     1       3.659  -1.828   1.254  0.00  0.00    +0.060 C 
ATOM      3  C   UNL     1       5.020  -2.474   1.172  0.00  0.00    +0.028 C 
ATOM      4  C   UNL     1       5.563  -2.803  -0.018  0.00  0.00    +0.025 C 
ATOM      5  C   UNL     1       6.923  -3.447  -0.099  0.00  0.00    +0.099 C 
ATOM      6  C   UNL     1       7.328  -4.028   1.224  0.00  0.00    +0.077 C 
ATOM      7  C   UNL     1       6.713  -3.650   2.374  0.00  0.00    +0.109 C 
ATOM      8  N   UNL     1       5.694  -2.724   2.341  0.00  0.00    -0.229 N 
ATOM      9  C   UNL     1       5.346  -2.038   3.498  0.00  0.00    +0.223 A 
ATOM     10  N   UNL     1       5.477  -0.712   3.705  0.00  0.00    -0.246 N 
ATOM     11  H   UNL     1       5.830  -0.058   3.082  0.00  0.00    +0.192 HD
ATOM     12  N   UNL     1       5.002  -0.466   5.003  0.00  0.00    -0.160 NA
ATOM     13  C   UNL     1       4.621  -1.615   5.494  0.00  0.00    +0.246 A 
ATOM     14  N   UNL     1       4.824  -2.567   4.583  0.00  0.00    -0.201 NA
ATOM     15  C   UNL     1       4.879  -2.550  -1.221  0.00  0.00    +0.162 C 
ATOM     16  O   UNL     1       5.387  -2.875  -2.276  0.00  0.00    -0.292 OA
ATOM     17  C   UNL     1       3.532  -1.879  -1.230  0.00  0.00    +0.088 C 
ENDROOT
BRANCH   5  18
ATOM     18  C   UNL     1       7.937  -2.412  -0.513  0.00  0.00    -0.016 A 
ATOM     19  C   UNL     1       8.143  -1.293   0.272  0.00  0.00    +0.006 A 
ATOM     20  C   UNL     1       9.072  -0.344  -0.108  0.00  0.00    +0.000 A 
ATOM     21  C   UNL     1       9.797  -0.512  -1.273  0.00  0.00    +0.001 A 
ATOM     22  C   UNL     1       9.592  -1.630  -2.059  0.00  0.00    +0.020 A 
ATOM     23  C   UNL     1       8.665  -2.584  -1.676  0.00  0.00    +0.045 A 
ATOM     24 CL   UNL     1       8.412  -3.992  -2.660  0.00  0.00    -0.083 Cl
ENDBRANCH   5  18
BRANCH   1  28
ATOM     25  C   UNL     1      -0.491   0.740   0.167  0.00  0.00    +0.000 A 
ATOM     26  C   UNL     1       0.622   1.558   0.095  0.00  0.00    +0.000 A 
ATOM     27  C   UNL     1       1.886   1.002   0.042  0.00  0.00    +0.004 A 
ATOM     28  C   UNL     1       2.039  -0.372   0.062  0.00  0.00    -0.044 A 
ATOM     29  C   UNL     1       0.926  -1.190   0.135  0.00  0.00    +0.004 A 
ATOM     30  C   UNL     1      -0.338  -0.634   0.186  0.00  0.00    +0.000 A 
ENDBRANCH   1  28
BRANCH   7  31
ATOM     31  N   UNL     1       7.109  -4.191   3.574  0.00  0.00    -0.345 N 
ATOM     32  H   UNL     1       7.766  -4.905   3.591  0.00  0.00    +0.144 HD
ATOM     33  H   UNL     1       6.732  -3.860   4.404  0.00  0.00    +0.144 HD
ENDBRANCH   7  31
BRANCH   6  34
ATOM     34  C   UNL     1       8.380  -4.998   1.275  0.00  0.00    +0.099 C 
ATOM     35  N   UNL     1       9.215  -5.767   1.315  0.00  0.00    -0.191 NA
ENDBRANCH   6  34
TORSDOF 4
