REMARK  Name = ZINC07822964
REMARK  10 active torsions:
REMARK  status: ('A' for Active; 'I' for Inactive)
REMARK    1  A    between atoms: C_1  and  C_2
REMARK    2  A    between atoms: C_5  and  N_9
REMARK    3  A    between atoms: C_6  and  C_8
REMARK    4  A    between atoms: C_10  and  C_12
REMARK    5  A    between atoms: C_12  and  C_14
REMARK    6  A    between atoms: C_12  and  O_15
REMARK    7  A    between atoms: O_15  and  C_16
REMARK    8  A    between atoms: C_16  and  C_18
REMARK    9  A    between atoms: C_20  and  S_25
REMARK   10  A    between atoms: S_25  and  N_28
REMARK                            x       y       z     vdW  Elec       q    Type
REMARK                         _______ _______ _______ _____ _____    ______ ____
ROOT
ATOM      1  O   UNL     1       3.504  -2.392   0.271  0.00  0.00    -0.449 OA
ENDROOT
BRANCH   1   2
ATOM      2  C   UNL     1       3.744  -0.963   0.179  0.00  0.00    +0.259 C 
ATOM      3  C   UNL     1       4.584  -0.665  -1.065  0.00  0.00    +0.062 C 
BRANCH   2   5
ATOM      4  N   UNL     1       2.403   1.107  -0.014  0.00  0.00    -0.282 N 
ATOM      5  C   UNL     1       2.426  -0.238   0.081  0.00  0.00    +0.258 C 
ATOM      6  O   UNL     1       1.388  -0.864   0.088  0.00  0.00    -0.271 OA
ATOM      7  H   UNL     1       3.233   1.603  -0.085  0.00  0.00    +0.155 HD
BRANCH   4  12
ATOM      8  C   UNL     1      -2.555   3.864   0.000  0.00  0.00    +0.044 C 
ATOM      9  C   UNL     1      -1.238   3.131  -0.003  0.00  0.00    -0.050 A 
ATOM     10  C   UNL     1      -1.140   1.891  -0.608  0.00  0.00    +0.005 A 
ATOM     11  C   UNL     1       0.064   1.215  -0.609  0.00  0.00    +0.024 A 
ATOM     12  C   UNL     1       1.180   1.786  -0.010  0.00  0.00    +0.036 A 
ATOM     13  C   UNL     1       1.079   3.034   0.592  0.00  0.00    -0.029 A 
ATOM     14  C   UNL     1      -0.130   3.702   0.594  0.00  0.00    +0.008 A 
ATOM     15  C   UNL     1       2.287   3.657   1.242  0.00  0.00    +0.045 C 
ENDBRANCH   4  12
ENDBRANCH   2   5
ENDBRANCH   1   2
BRANCH   1  16
ATOM     16  C   UNL     1       4.406  -3.121   0.957  0.00  0.00    +0.341 C 
ATOM     17  O   UNL     1       5.367  -2.577   1.464  0.00  0.00    -0.245 OA
BRANCH  16  18
ATOM     18  C   UNL     1       4.227  -4.580   1.091  0.00  0.00    +0.079 A 
ATOM     19  C   UNL     1       3.124  -5.209   0.509  0.00  0.00    +0.045 A 
ATOM     20  C   UNL     1       2.963  -6.572   0.639  0.00  0.00    +0.106 A 
ATOM     21  C   UNL     1       3.892  -7.319   1.343  0.00  0.00    +0.030 A 
ATOM     22  C   UNL     1       4.987  -6.704   1.923  0.00  0.00    +0.023 A 
ATOM     23  C   UNL     1       5.164  -5.340   1.797  0.00  0.00    +0.055 A 
ATOM     24 CL   UNL     1       6.543  -4.571   2.519  0.00  0.00    -0.083 Cl
BRANCH  20  25
ATOM     25  S   UNL     1       1.572  -7.366  -0.095  0.00  0.00    +0.056 S 
ATOM     26  O   UNL     1       1.361  -8.569   0.631  0.00  0.00    -0.153 OA
ATOM     27  O   UNL     1       0.565  -6.373  -0.235  0.00  0.00    -0.153 OA
BRANCH  25  28
ATOM     28  N   UNL     1       2.014  -7.810  -1.628  0.00  0.00    -0.204 NA
ATOM     29  H   UNL     1       2.907  -7.614  -1.951  0.00  0.00    +0.144 HD
ATOM     30  H   UNL     1       1.380  -8.267  -2.203  0.00  0.00    +0.144 HD
ENDBRANCH  25  28
ENDBRANCH  20  25
ENDBRANCH  16  18
ENDBRANCH   1  16
TORSDOF 7
