REMARK  Name = ZINC08790757
REMARK  4 active torsions:
REMARK  status: ('A' for Active; 'I' for Inactive)
REMARK    1  A    between atoms: C_1  and  C_2
REMARK    2  A    between atoms: C_16  and  C_18
REMARK    3  A    between atoms: C_18  and  C_19
REMARK    4  A    between atoms: N_31  and  C_34
REMARK                            x       y       z     vdW  Elec       q    Type
REMARK                         _______ _______ _______ _____ _____    ______ ____
ROOT
ATOM      1  C   UNL     1       2.488   4.881   3.390  0.00  0.00    +0.046 C 
ATOM      2  C   UNL     1       2.282   3.433   3.024  0.00  0.00    -0.028 A 
ATOM      3  C   UNL     1       2.594   2.444   3.934  0.00  0.00    +0.025 A 
ATOM      4  C   UNL     1       2.408   1.112   3.608  0.00  0.00    +0.042 A 
ATOM      5  C   UNL     1       1.910   0.771   2.361  0.00  0.00    +0.024 A 
ATOM      6  C   UNL     1       1.597   1.757   1.452  0.00  0.00    -0.026 A 
ATOM      7  C   UNL     1       1.780   3.100   1.769  0.00  0.00    +0.039 A 
ATOM      8  N   UNL     1       1.396   3.906   0.695  0.00  0.00    -0.286 N 
ATOM      9  C   UNL     1       0.956   3.182  -0.352  0.00  0.00    +0.211 C 
ATOM     10  O   UNL     1       0.561   3.611  -1.416  0.00  0.00    -0.277 OA
ATOM     11  C   UNL     1       1.050   1.736   0.052  0.00  0.00    +0.050 C 
ATOM     12  C   UNL     1       1.960   0.945  -0.895  0.00  0.00    +0.088 C 
ATOM     13  C   UNL     1       1.304  -0.461  -0.982  0.00  0.00    +0.074 C 
ATOM     14  C   UNL     1       0.063  -0.377  -0.069  0.00  0.00    -0.053 C 
ATOM     15  C   UNL     1       0.859  -0.551  -2.423  0.00  0.00    +0.228 C 
ATOM     16  O   UNL     1       0.288  -1.497  -2.922  0.00  0.00    -0.275 OA
ATOM     17  N   UNL     1       1.195   0.575  -3.063  0.00  0.00    -0.210 N 
ATOM     18  C   UNL     1       1.819   1.481  -2.302  0.00  0.00    +0.229 C 
ATOM     19  O   UNL     1       2.209   2.564  -2.681  0.00  0.00    -0.275 OA
ATOM     20 CL   UNL     1       2.799  -0.128   4.757  0.00  0.00    -0.084 Cl
ATOM     21  H   UNL     1       1.441   4.875   0.702  0.00  0.00    +0.155 HD
ATOM     22  N   UNL     1      -0.232   1.056  -0.004  0.00  0.00    +0.394 N 
ATOM     23  H   UNL     1      -0.753   1.350  -0.838  0.00  0.00    -0.083 HD
ATOM     24  H   UNL     1      -0.783   1.268   0.837  0.00  0.00    -0.083 HD
ENDROOT
BRANCH  17  25
ATOM     25  C   UNL     1       0.916   0.788  -4.420  0.00  0.00    +0.044 A 
ATOM     26  C   UNL     1       1.953   0.872  -5.339  0.00  0.00    +0.024 A 
ATOM     27  C   UNL     1       1.675   1.077  -6.676  0.00  0.00    +0.002 A 
ATOM     28  C   UNL     1       0.365   1.208  -7.099  0.00  0.00    +0.000 A 
ATOM     29  C   UNL     1      -0.670   1.130  -6.186  0.00  0.00    +0.002 A 
ATOM     30  C   UNL     1      -0.398   0.920  -4.848  0.00  0.00    +0.024 A 
ENDBRANCH  17  25
BRANCH  14  31
ATOM     31  C   UNL     1      -1.103  -1.159  -0.678  0.00  0.00    +0.022 C 
BRANCH  31  32
ATOM     32  C   UNL     1      -2.287  -1.102   0.253  0.00  0.00    -0.024 A 
ATOM     33  C   UNL     1      -2.620  -2.017   1.177  0.00  0.00    +0.087 A 
ATOM     34  N   UNL     1      -3.757  -1.626   1.831  0.00  0.00    -0.360 N 
ATOM     35  H   UNL     1      -4.191  -2.124   2.541  0.00  0.00    +0.165 HD
ATOM     36  C   UNL     1      -4.193  -0.419   1.332  0.00  0.00    +0.047 A 
ATOM     37  C   UNL     1      -3.288  -0.035   0.325  0.00  0.00    +0.003 A 
ATOM     38  C   UNL     1      -3.478   1.165  -0.362  0.00  0.00    +0.010 A 
ATOM     39  C   UNL     1      -4.542   1.964  -0.050  0.00  0.00    +0.001 A 
ATOM     40  C   UNL     1      -5.435   1.592   0.945  0.00  0.00    +0.002 A 
ATOM     41  C   UNL     1      -5.271   0.408   1.630  0.00  0.00    +0.026 A 
ENDBRANCH  31  32
ENDBRANCH  14  31
TORSDOF 3
