REMARK  Name = ZINC04861926
REMARK  9 active torsions:
REMARK  status: ('A' for Active; 'I' for Inactive)
REMARK    1  A    between atoms: C_1  and  C_2
REMARK    2  A    between atoms: C_5  and  C_32
REMARK    3  A    between atoms: C_6  and  C_8
REMARK    4  A    between atoms: C_8  and  N_9
REMARK    5  A    between atoms: C_15  and  C_17
REMARK    6  A    between atoms: C_24  and  C_26
REMARK    7  A    between atoms: C_26  and  C_27
REMARK    8  A    between atoms: C_27  and  C_28
REMARK    9  A    between atoms: C_27  and  C_29
REMARK                            x       y       z     vdW  Elec       q    Type
REMARK                         _______ _______ _______ _____ _____    ______ ____
ROOT
ATOM      1  N   UNL     1       1.436  -3.177   2.842  0.00  0.00    -0.222 N 
ATOM      2  C   UNL     1       2.119  -4.300   2.485  0.00  0.00    +0.186 A 
ATOM      3  C   UNL     1       3.395  -4.175   3.050  0.00  0.00    +0.195 A 
ATOM      4  C   UNL     1       4.353  -5.259   2.822  0.00  0.00    +0.281 A 
ATOM      5  O   UNL     1       5.479  -5.214   3.285  0.00  0.00    -0.265 OA
ATOM      6  N   UNL     1       3.942  -6.312   2.079  0.00  0.00    -0.309 N 
ATOM      7  C   UNL     1       2.685  -6.345   1.572  0.00  0.00    +0.117 A 
ATOM      8  N   UNL     1       1.821  -5.391   1.764  0.00  0.00    -0.213 NA
ATOM      9  N   UNL     1       3.443  -3.011   3.714  0.00  0.00    -0.122 NA
ATOM     10  N   UNL     1       2.315  -2.398   3.610  0.00  0.00    -0.063 NA
ATOM     11  H   UNL     1       4.551  -7.048   1.907  0.00  0.00    +0.170 HD
ENDROOT
BRANCH   7  12
ATOM     12  C   UNL     1       2.270  -7.538   0.750  0.00  0.00    +0.072 C 
ATOM     13  C   UNL     1       1.779  -8.652   1.677  0.00  0.00    +0.014 C 
ATOM     14  C   UNL     1       1.388  -9.875   0.845  0.00  0.00    +0.020 C 
ATOM     15  C   UNL     1       0.247  -9.499  -0.104  0.00  0.00    +0.108 C 
ATOM     16  N   UNL     1       0.658  -8.334  -0.900  0.00  0.00    -0.301 N 
ATOM     17  C   UNL     1       1.139  -7.134  -0.202  0.00  0.00    +0.119 C 
ATOM     18  C   UNL     1       0.597  -8.366  -2.246  0.00  0.00    +0.216 C 
ATOM     19  O   UNL     1       0.940  -7.398  -2.892  0.00  0.00    -0.276 OA
BRANCH  18  20
ATOM     20  C   UNL     1       0.102  -9.604  -2.949  0.00  0.00    +0.099 C 
BRANCH  20  21
ATOM     21  C   UNL     1       0.132  -9.378  -4.462  0.00  0.00    -0.008 C 
ATOM     22  C   UNL     1      -0.251 -10.675  -5.179  0.00  0.00    +0.008 C 
ATOM     23  C   UNL     1      -0.863  -8.277  -4.833  0.00  0.00    +0.008 C 
ENDBRANCH  20  21
ENDBRANCH  18  20
ENDBRANCH   7  12
BRANCH   1  24
ATOM     24  C   UNL     1       0.054  -2.845   2.489  0.00  0.00    +0.183 C 
BRANCH  24  30
ATOM     25  C   UNL     1      -0.018   1.503   0.010  0.00  0.00    +0.044 C 
ATOM     26  C   UNL     1       0.002  -0.004   0.002  0.00  0.00    -0.050 A 
ATOM     27  C   UNL     1       0.006  -0.689  -1.199  0.00  0.00    +0.003 A 
ATOM     28  C   UNL     1       0.025  -2.071  -1.207  0.00  0.00    +0.004 A 
ATOM     29  C   UNL     1       0.040  -2.768  -0.013  0.00  0.00    -0.046 A 
ATOM     30  C   UNL     1       0.037  -2.084   1.188  0.00  0.00    -0.023 A 
ATOM     31  C   UNL     1       0.023  -0.702   1.195  0.00  0.00    +0.009 A 
ATOM     32  C   UNL     1       0.059  -4.275  -0.021  0.00  0.00    +0.044 C 
ENDBRANCH  24  30
ENDBRANCH   1  24
TORSDOF 5
