REMARK  Name = ZINC43553422
REMARK  12 active torsions:
REMARK  status: ('A' for Active; 'I' for Inactive)
REMARK    1  A    between atoms: C_1  and  C_2
REMARK    2  A    between atoms: N_4  and  C_5
REMARK    3  A    between atoms: C_5  and  C_6
REMARK    4  A    between atoms: C_6  and  N_7
REMARK    5  A    between atoms: C_8  and  C_10
REMARK    6  A    between atoms: C_10  and  C_11
REMARK    7  A    between atoms: C_19  and  C_21
REMARK    8  A    between atoms: C_30  and  C_40
REMARK    9  A    between atoms: C_33  and  O_39
REMARK   10  A    between atoms: C_35  and  C_36
REMARK   11  A    between atoms: C_35  and  C_37
REMARK   12  A    between atoms: C_37  and  O_38
REMARK                            x       y       z     vdW  Elec       q    Type
REMARK                         _______ _______ _______ _____ _____    ______ ____
ROOT
ATOM      1  C   UNL     1      -0.067  -6.770  -5.105  0.00  0.00    +0.054 C 
ATOM      2  C   UNL     1      -1.424  -6.520  -5.731  0.00  0.00    +0.058 A 
ATOM      3  C   UNL     1      -1.771  -7.242  -6.825  0.00  0.00    +0.015 A 
ATOM      4  S   UNL     1      -3.388  -6.616  -7.192  0.00  0.00    -0.057 S 
ATOM      5  C   UNL     1      -3.482  -5.498  -5.934  0.00  0.00    +0.165 A 
ATOM      6  N   UNL     1      -2.330  -5.646  -5.316  0.00  0.00    -0.229 NA
ATOM      7  N   UNL     1      -4.522  -4.630  -5.626  0.00  0.00    -0.264 N 
ATOM      8  C   UNL     1      -5.638  -4.619  -6.383  0.00  0.00    +0.222 C 
ATOM      9  O   UNL     1      -5.734  -5.367  -7.333  0.00  0.00    -0.275 OA
ATOM     10  C   UNL     1      -0.978  -8.290  -7.518  0.00  0.00    +0.049 C 
ATOM     11  C   UNL     1       0.406  -8.501  -6.876  0.00  0.00    +0.011 C 
ATOM     12  C   UNL     1       0.362  -8.215  -5.380  0.00  0.00    -0.019 C 
ATOM     13  C   UNL     1      -0.564  -9.218  -4.704  0.00  0.00    +0.010 C 
ATOM     14  C   UNL     1      -0.007 -10.629  -4.895  0.00  0.00    +0.032 C 
ATOM     15  C   UNL     1       0.148 -10.985  -6.362  0.00  0.00    +0.123 C 
ATOM     16  C   UNL     1       0.841  -9.928  -7.206  0.00  0.00    +0.021 C 
ATOM     17  C   UNL     1       2.363 -10.100  -7.125  0.00  0.00    +0.016 C 
ATOM     18  C   UNL     1       1.757  -8.329  -4.746  0.00  0.00    +0.012 C 
ATOM     19  H   UNL     1      -4.446  -4.032  -4.867  0.00  0.00    +0.157 HD
ENDROOT
BRANCH   8  20
ATOM     20  C   UNL     1      -6.766  -3.677  -6.048  0.00  0.00    +0.075 C 
ATOM     21  C   UNL     1      -7.279  -3.976  -4.638  0.00  0.00    +0.013 C 
ATOM     22  C   UNL     1      -8.424  -3.020  -4.299  0.00  0.00    +0.001 C 
ATOM     23  C   UNL     1      -9.561  -3.208  -5.306  0.00  0.00    +0.000 C 
ATOM     24  C   UNL     1      -9.048  -2.910  -6.716  0.00  0.00    +0.001 C 
ATOM     25  C   UNL     1      -7.903  -3.866  -7.055  0.00  0.00    +0.013 C 
ENDBRANCH   8  20
BRANCH  15  26
ATOM     26  O   UNL     1      -1.132 -11.302  -6.921  0.00  0.00    -0.391 OA
ATOM     27  H   UNL     1      -1.574 -12.049  -6.493  0.00  0.00    +0.210 HD
ENDBRANCH  15  26
BRANCH   1  28
ATOM     28  C   UNL     1      -0.109  -6.497  -3.605  0.00  0.00    +0.106 C 
BRANCH  28  30
ATOM     29  N   UNL     1      -0.437  -4.554  -2.110  0.00  0.00    -0.314 N 
ATOM     30  C   UNL     1      -0.359  -5.029  -3.368  0.00  0.00    +0.214 C 
ATOM     31  O   UNL     1      -0.491  -4.277  -4.310  0.00  0.00    -0.276 OA
ATOM     32  H   UNL     1      -0.331  -5.155  -1.356  0.00  0.00    +0.149 HD
BRANCH  29  33
ATOM     33  C   UNL     1      -0.681  -3.127  -1.879  0.00  0.00    +0.123 C 
BRANCH  33  34
ATOM     34  C   UNL     1      -0.723  -2.853  -0.375  0.00  0.00    +0.123 C 
BRANCH  34  38
ATOM     35  C   UNL     1      -1.295   0.516   1.351  0.00  0.00    +0.109 C 
ATOM     36  C   UNL     1      -1.044  -0.951   1.114  0.00  0.00    +0.210 C 
ATOM     37  O   UNL     1      -0.912  -1.704   2.056  0.00  0.00    -0.276 OA
ATOM     38  N   UNL     1      -0.966  -1.427  -0.144  0.00  0.00    -0.314 N 
ATOM     39  H   UNL     1      -1.072  -0.826  -0.898  0.00  0.00    +0.149 HD
ENDBRANCH  34  38
ENDBRANCH  33  34
ENDBRANCH  29  33
ENDBRANCH  28  30
ENDBRANCH   1  28
BRANCH  16  40
ATOM     40  C   UNL     1       0.478 -10.216  -8.687  0.00  0.00    +0.165 C 
BRANCH  40  41
ATOM     41  O   UNL     1       0.874 -11.547  -9.025  0.00  0.00    -0.394 OA
ATOM     42  H   UNL     1       0.678 -11.796  -9.938  0.00  0.00    +0.209 HD
ENDBRANCH  40  41
ENDBRANCH  16  40
TORSDOF 9
