REMARK  Name = ZINC09067712
REMARK  12 active torsions:
REMARK  status: ('A' for Active; 'I' for Inactive)
REMARK    1  A    between atoms: C_1  and  C_2
REMARK    2  A    between atoms: C_5  and  C_8
REMARK    3  A    between atoms: C_11  and  C_12
REMARK    4  A    between atoms: C_11  and  O_23
REMARK    5  A    between atoms: C_13  and  C_22
REMARK    6  A    between atoms: C_20  and  C_21
REMARK    7  A    between atoms: N_28  and  C_29
REMARK    8  A    between atoms: C_29  and  C_30
REMARK    9  A    between atoms: C_30  and  C_31
REMARK   10  A    between atoms: C_31  and  N_63
REMARK   11  A    between atoms: C_32  and  N_63
REMARK   12  A    between atoms: C_33  and  N_63
REMARK                            x       y       z     vdW  Elec       q    Type
REMARK                         _______ _______ _______ _____ _____    ______ ____
ROOT
ATOM      1  C   UNL     1      -0.076   5.774   0.035  0.00  0.00    +0.145 C 
ATOM      2  C   UNL     1      -0.353   6.280   1.431  0.00  0.00    +0.073 C 
ATOM      3  C   UNL     1       0.419   6.058   2.568  0.00  0.00    +0.151 C 
ATOM      4  C   UNL     1      -1.536   7.013   1.354  0.00  0.00    +0.249 C 
ATOM      5  O   UNL     1      -2.087   7.581   2.283  0.00  0.00    -0.282 OA
ATOM      6  C   UNL     1      -2.014   6.984  -0.052  0.00  0.00    +0.288 C 
ATOM      7  O   UNL     1      -3.021   7.528  -0.456  0.00  0.00    -0.266 OA
ATOM      8  N   UNL     1      -1.168   6.267  -0.811  0.00  0.00    -0.284 N 
ENDROOT
BRANCH   3   9
ATOM      9  C   UNL     1       0.023   6.602   3.806  0.00  0.00    +0.111 A 
ATOM     10  C   UNL     1       0.032   7.946   4.169  0.00  0.00    +0.068 A 
ATOM     11  N   UNL     1      -0.412   8.041   5.409  0.00  0.00    -0.232 NA
ATOM     12  C   UNL     1      -0.713   6.829   5.878  0.00  0.00    +0.141 A 
ATOM     13  N   UNL     1      -0.458   5.907   4.902  0.00  0.00    -0.296 N 
ATOM     14  C   UNL     1      -0.686   4.585   5.121  0.00  0.00    +0.093 A 
ATOM     15  C   UNL     1      -1.172   4.156   6.310  0.00  0.00    +0.018 A 
ATOM     16  C   UNL     1      -1.446   5.076   7.330  0.00  0.00    +0.008 A 
ATOM     17  C   UNL     1      -1.214   6.404   7.120  0.00  0.00    -0.008 A 
ATOM     18  C   UNL     1      -1.505   7.408   8.206  0.00  0.00    +0.047 C 
ATOM     19  C   UNL     1       0.473   9.094   3.297  0.00  0.00    +0.068 C 
ENDBRANCH   3   9
BRANCH   1  24
ATOM     20  C   UNL     1       0.002  -0.004   0.002  0.00  0.00    +0.044 C 
ATOM     21  C   UNL     1      -0.018   1.503   0.010  0.00  0.00    -0.050 A 
ATOM     22  C   UNL     1      -1.225   2.178   0.020  0.00  0.00    +0.004 A 
ATOM     23  C   UNL     1      -1.244   3.560   0.032  0.00  0.00    +0.006 A 
ATOM     24  C   UNL     1      -0.056   4.267   0.025  0.00  0.00    -0.022 A 
ATOM     25  C   UNL     1       1.151   3.592   0.010  0.00  0.00    +0.006 A 
ATOM     26  C   UNL     1       1.169   2.210   0.003  0.00  0.00    +0.004 A 
ENDBRANCH   1  24
BRANCH   3  27
ATOM     27  O   UNL     1       1.550   5.320   2.485  0.00  0.00    -0.504 OA
ATOM     28  H   UNL     1       1.977   5.262   3.387  0.00  0.00    +0.292 HD
ENDBRANCH   3  27
BRANCH   8  29
ATOM     29  C   UNL     1      -1.312   6.019  -2.248  0.00  0.00    +0.107 C 
BRANCH  29  30
ATOM     30  C   UNL     1      -2.121   4.739  -2.466  0.00  0.00    +0.000 C 
BRANCH  30  31
ATOM     31  C   UNL     1      -2.271   4.480  -3.966  0.00  0.00    -0.078 C 
BRANCH  31  34
ATOM     32  C   UNL     1      -3.416   3.095  -5.589  0.00  0.00    -0.097 C 
ATOM     33  C   UNL     1      -2.313   2.075  -3.691  0.00  0.00    -0.097 C 
ATOM     34  N   UNL     1      -3.072   3.253  -4.161  0.00  0.00    +0.376 N 
ATOM     35  H   UNL     1      -3.938   3.330  -3.615  0.00  0.00    -0.083 HD
ENDBRANCH  31  34
ENDBRANCH  30  31
ENDBRANCH  29  30
ENDBRANCH   8  29
TORSDOF 7
