REMARK  Name = ZINC04044469
REMARK  4 active torsions:
REMARK  status: ('A' for Active; 'I' for Inactive)
REMARK    1  A    between atoms: C_3  and  N_27
REMARK    2  A    between atoms: C_6  and  N_7
REMARK    3  A    between atoms: C_12  and  N_48
REMARK    4  A    between atoms: N_17  and  C_20
REMARK                            x       y       z     vdW  Elec       q    Type
REMARK                         _______ _______ _______ _____ _____    ______ ____
ROOT
ATOM      1  N   UNL     1      -3.124   8.441   3.479  0.00  0.00    -0.333 N 
ATOM      2  C   UNL     1      -3.555   9.089   2.232  0.00  0.00    +0.086 C 
ATOM      3  C   UNL     1      -2.954   8.342   1.038  0.00  0.00    -0.059 C 
ATOM      4  C   UNL     1      -1.058   7.697   2.397  0.00  0.00    -0.059 C 
ATOM      5  C   UNL     1      -1.658   8.444   3.590  0.00  0.00    +0.086 C 
ATOM      6  N   UNL     1      -1.481   8.371   1.151  0.00  0.00    +0.390 N 
ATOM      7  H   UNL     1      -1.167   9.348   1.177  0.00  0.00    -0.081 HD
ENDROOT
BRANCH   6   8
ATOM      8  C   UNL     1      -0.871   7.702  -0.018  0.00  0.00    +0.029 C 
ATOM      9  C   UNL     1       0.666   7.722   0.101  0.00  0.00    +0.090 C 
ATOM     10  C   UNL     1       1.039   6.256   0.127  0.00  0.00    +0.225 C 
ATOM     11  O   UNL     1       2.167   5.820   0.218  0.00  0.00    -0.275 OA
ATOM     12  N   UNL     1      -0.073   5.517   0.031  0.00  0.00    -0.212 N 
ATOM     13  C   UNL     1      -1.205   6.226  -0.053  0.00  0.00    +0.213 C 
ATOM     14  O   UNL     1      -2.321   5.761  -0.141  0.00  0.00    -0.277 OA
BRANCH  12  15
ATOM     15  C   UNL     1      -0.054   4.114   0.024  0.00  0.00    +0.044 A 
ATOM     16  C   UNL     1      -0.421   3.420  -1.120  0.00  0.00    +0.027 A 
ATOM     17  C   UNL     1      -0.402   2.039  -1.125  0.00  0.00    +0.040 A 
ATOM     18  C   UNL     1      -0.018   1.347   0.011  0.00  0.00    +0.124 A 
ATOM     19  C   UNL     1       0.344   2.038   1.156  0.00  0.00    +0.040 A 
ATOM     20  C   UNL     1       0.332   3.419   1.162  0.00  0.00    +0.027 A 
ATOM     21  F   UNL     1      -0.000  -0.004   0.005  0.00  0.00    -0.205 F 
ENDBRANCH  12  15
ENDBRANCH   6   8
BRANCH   1  27
ATOM     22  C   UNL     1      -4.571  10.129   4.417  0.00  0.00    +0.025 A 
ATOM     23  C   UNL     1      -5.154  10.728   5.517  0.00  0.00    +0.034 A 
ATOM     24  C   UNL     1      -4.874  10.263   6.788  0.00  0.00    +0.126 A 
ATOM     25  C   UNL     1      -4.014   9.194   6.964  0.00  0.00    +0.034 A 
ATOM     26  C   UNL     1      -3.432   8.588   5.868  0.00  0.00    +0.025 A 
ATOM     27  C   UNL     1      -3.711   9.052   4.589  0.00  0.00    +0.030 A 
BRANCH  24  28
ATOM     28  N   UNL     1      -5.496  10.911   7.965  0.00  0.00    +0.056 N 
ATOM     29  O   UNL     1      -5.249  10.503   9.086  0.00  0.00    -0.126 OA
ATOM     30  O   UNL     1      -6.253  11.852   7.812  0.00  0.00    -0.126 OA
ENDBRANCH  24  28
ENDBRANCH   1  27
TORSDOF 4
