REMARK  Name = ZINC63221878
REMARK  12 active torsions:
REMARK  status: ('A' for Active; 'I' for Inactive)
REMARK    1  A    between atoms: C_1  and  C_2
REMARK    2  A    between atoms: C_2  and  C_3
REMARK    3  A    between atoms: C_6  and  C_9
REMARK    4  A    between atoms: C_9  and  C_11
REMARK    5  A    between atoms: C_11  and  C_13
REMARK    6  A    between atoms: C_11  and  S_14
REMARK    7  A    between atoms: S_14  and  C_15
REMARK    8  A    between atoms: C_18  and  C_29
REMARK    9  A    between atoms: N_19  and  C_20
REMARK   10  A    between atoms: C_23  and  O_26
REMARK   11  A    between atoms: O_26  and  C_27
REMARK   12  A    between atoms: C_27  and  C_28
REMARK                            x       y       z     vdW  Elec       q    Type
REMARK                         _______ _______ _______ _____ _____    ______ ____
ROOT
ATOM      1  C   UNL     1       6.342  -3.589  -5.725  0.00  0.00    +0.197 A 
ATOM      2  N   UNL     1       7.101  -3.020  -4.801  0.00  0.00    -0.122 NA
ATOM      3  N   UNL     1       8.310  -3.445  -4.896  0.00  0.00    -0.128 NA
ATOM      4  C   UNL     1       8.401  -4.316  -5.891  0.00  0.00    +0.168 A 
ATOM      5  N   UNL     1       7.136  -4.432  -6.444  0.00  0.00    -0.270 N 
ENDROOT
BRANCH   4   6
ATOM      6  C   UNL     1       9.558  -4.995  -6.304  0.00  0.00    +0.025 C 
ATOM      7  C   UNL     1      10.835  -4.897  -5.752  0.00  0.00    +0.006 A 
ATOM      8  C   UNL     1      11.354  -4.143  -4.678  0.00  0.00    +0.010 A 
ATOM      9  C   UNL     1      12.669  -4.248  -4.354  0.00  0.00    +0.001 A 
ATOM     10  C   UNL     1      13.531  -5.089  -5.060  0.00  0.00    +0.002 A 
ATOM     11  C   UNL     1      13.101  -5.842  -6.102  0.00  0.00    +0.026 A 
ATOM     12  C   UNL     1      11.740  -5.786  -6.499  0.00  0.00    +0.043 A 
ATOM     13  N   UNL     1      11.085  -6.407  -7.460  0.00  0.00    -0.380 N 
ATOM     14  C   UNL     1       9.680  -5.991  -7.436  0.00  0.00    +0.152 C 
ATOM     15  H   UNL     1      11.472  -7.042  -8.083  0.00  0.00    +0.160 HD
ENDBRANCH   4   6
BRANCH   5  16
ATOM     16  C   UNL     1       6.753  -5.245  -7.520  0.00  0.00    +0.051 A 
ATOM     17  C   UNL     1       6.803  -6.628  -7.398  0.00  0.00    +0.030 A 
ATOM     18  C   UNL     1       6.425  -7.428  -8.457  0.00  0.00    +0.047 A 
ATOM     19  C   UNL     1       5.996  -6.851  -9.644  0.00  0.00    +0.121 A 
ATOM     20  C   UNL     1       5.946  -5.470  -9.767  0.00  0.00    +0.047 A 
ATOM     21  C   UNL     1       6.318  -4.669  -8.706  0.00  0.00    +0.030 A 
BRANCH  19  22
ATOM     22  O   UNL     1       5.625  -7.640 -10.688  0.00  0.00    -0.492 OA
BRANCH  22  23
ATOM     23  C   UNL     1       5.194  -6.979 -11.879  0.00  0.00    +0.225 C 
ATOM     24  C   UNL     1       4.819  -8.022 -12.934  0.00  0.00    +0.048 C 
ENDBRANCH  22  23
ENDBRANCH  19  22
ENDBRANCH   5  16
BRANCH   1  25
ATOM     25  S   UNL     1       4.620  -3.313  -5.976  0.00  0.00    -0.075 S 
BRANCH  25  26
ATOM     26  C   UNL     1       4.181  -2.096  -4.704  0.00  0.00    +0.122 C 
ATOM     27  C   UNL     1       4.911  -0.781  -4.982  0.00  0.00    +0.028 C 
BRANCH  26  28
ATOM     28  C   UNL     1       2.693  -1.859  -4.727  0.00  0.00    +0.176 C 
ATOM     29  O   UNL     1       2.063  -2.061  -5.744  0.00  0.00    -0.291 OA
BRANCH  28  33
ATOM     30  C   UNL     1       0.707  -0.490  -1.238  0.00  0.00    -0.048 A 
ATOM     31  C   UNL     1      -0.015  -0.718  -2.396  0.00  0.00    +0.004 A 
ATOM     32  C   UNL     1       0.623  -1.163  -3.535  0.00  0.00    +0.011 A 
ATOM     33  C   UNL     1       2.004  -1.384  -3.517  0.00  0.00    +0.019 A 
ATOM     34  C   UNL     1       2.727  -1.151  -2.342  0.00  0.00    +0.011 A 
ATOM     35  C   UNL     1       2.075  -0.701  -1.214  0.00  0.00    +0.004 A 
BRANCH  30  37
ATOM     36  C   UNL     1      -0.019   1.526   0.010  0.00  0.00    +0.009 C 
ATOM     37  C   UNL     1       0.002  -0.004   0.002  0.00  0.00    +0.032 C 
ENDBRANCH  30  37
ENDBRANCH  28  33
ENDBRANCH  26  28
ENDBRANCH  25  26
ENDBRANCH   1  25
TORSDOF 9
