REMARK  Name = ZINC67292318
REMARK  4 active torsions:
REMARK  status: ('A' for Active; 'I' for Inactive)
REMARK    1  A    between atoms: C_6  and  N_7
REMARK    2  A    between atoms: C_9  and  C_19
REMARK    3  A    between atoms: N_21  and  C_22
REMARK    4  A    between atoms: C_22  and  C_23
REMARK                            x       y       z     vdW  Elec       q    Type
REMARK                         _______ _______ _______ _____ _____    ______ ____
ROOT
ATOM      1  N   UNL     1      -1.170  -0.715   0.012  0.00  0.00    -0.325 N 
ATOM      2  C   UNL     1      -2.139  -0.363   0.828  0.00  0.00    +0.212 A 
ATOM      3  C   UNL     1      -3.454  -1.034   0.781  0.00  0.00    +0.097 A 
ATOM      4  C   UNL     1      -4.198  -1.048   1.953  0.00  0.00    +0.030 A 
ATOM      5  C   UNL     1      -3.615  -0.398   3.129  0.00  0.00    +0.019 A 
ATOM      6  C   UNL     1      -4.164  -0.594   4.402  0.00  0.00    +0.026 A 
ATOM      7  C   UNL     1      -3.594   0.027   5.492  0.00  0.00    +0.019 A 
ATOM      8  C   UNL     1      -2.481   0.842   5.333  0.00  0.00    +0.019 A 
ATOM      9  C   UNL     1      -1.931   1.045   4.084  0.00  0.00    +0.048 A 
ATOM     10  C   UNL     1      -2.489   0.432   2.972  0.00  0.00    +0.137 A 
ATOM     11  O   UNL     1      -1.961   0.625   1.742  0.00  0.00    -0.439 OA
ATOM     12 BR   UNL     1      -4.331  -0.233   7.213  0.00  0.00    -0.050 Br
ATOM     13  H   UNL     1      -1.283  -1.478  -0.575  0.00  0.00    +0.169 HD
ENDROOT
BRANCH   1  19
ATOM     14  C   UNL     1      -0.033   1.394  -0.019  0.00  0.00    +0.029 A 
ATOM     15  C   UNL     1       1.147   2.109  -0.041  0.00  0.00    +0.051 A 
ATOM     16  C   UNL     1       2.365   1.447  -0.053  0.00  0.00    +0.166 A 
ATOM     17  C   UNL     1       2.403   0.053  -0.043  0.00  0.00    +0.168 A 
ATOM     18  C   UNL     1       1.225  -0.670  -0.021  0.00  0.00    +0.075 A 
ATOM     19  C   UNL     1      -0.002  -0.002  -0.009  0.00  0.00    +0.046 A 
ATOM     20  O   UNL     1       3.708  -0.347  -0.058  0.00  0.00    -0.453 OA
ATOM     21  C   UNL     1       4.459   0.803  -0.491  0.00  0.00    +0.466 C 
ATOM     22  O   UNL     1       3.648   1.917  -0.074  0.00  0.00    -0.453 OA
ENDBRANCH   1  19
BRANCH   3  23
ATOM     23  C   UNL     1      -3.954  -1.661  -0.454  0.00  0.00    +0.249 C 
ATOM     24  O   UNL     1      -3.244  -1.711  -1.441  0.00  0.00    -0.270 OA
ATOM     25  N   UNL     1      -5.197  -2.181  -0.491  0.00  0.00    -0.309 N 
ATOM     26  H   UNL     1      -5.789  -2.076   0.270  0.00  0.00    +0.149 HD
BRANCH  25  27
ATOM     27  C   UNL     1      -5.654  -2.903  -1.681  0.00  0.00    +0.136 C 
BRANCH  27  28
ATOM     28  C   UNL     1      -7.090  -3.385  -1.465  0.00  0.00    +0.135 C 
ATOM     29  C   UNL     1      -7.538  -4.250  -2.663  0.00  0.00    +0.035 C 
ATOM     30  C   UNL     1      -9.014  -3.808  -2.854  0.00  0.00    +0.031 C 
ATOM     31  C   UNL     1      -8.927  -2.312  -2.461  0.00  0.00    +0.160 C 
ATOM     32  O   UNL     1      -7.973  -2.261  -1.386  0.00  0.00    -0.375 OA
ENDBRANCH  27  28
ENDBRANCH  25  27
ENDBRANCH   3  23
TORSDOF 4
