REMARK  Name = ZINC63515488
REMARK  8 active torsions:
REMARK  status: ('A' for Active; 'I' for Inactive)
REMARK    1  A    between atoms: C_1  and  O_2
REMARK    2  A    between atoms: O_2  and  C_3
REMARK    3  A    between atoms: C_9  and  C_12
REMARK    4  A    between atoms: C_12  and  C_13
REMARK    5  A    between atoms: C_13  and  N_14
REMARK    6  A    between atoms: C_16  and  C_21
REMARK    7  A    between atoms: N_23  and  C_24
REMARK    8  A    between atoms: C_28  and  C_31
REMARK                            x       y       z     vdW  Elec       q    Type
REMARK                         _______ _______ _______ _____ _____    ______ ____
ROOT
ATOM      1  N   UNL     1      -0.752  -6.781  -1.509  0.00  0.00    -0.300 N 
ATOM      2  C   UNL     1      -0.423  -8.170  -1.849  0.00  0.00    +0.121 C 
ATOM      3  C   UNL     1      -0.696  -8.985  -0.565  0.00  0.00    +0.101 C 
ATOM      4  C   UNL     1      -1.750  -8.105   0.148  0.00  0.00    +0.110 C 
ATOM      5  C   UNL     1      -1.497  -6.715  -0.392  0.00  0.00    +0.216 C 
ATOM      6  O   UNL     1      -1.908  -5.690   0.109  0.00  0.00    -0.276 OA
ENDROOT
BRANCH   3   7
ATOM      7  C   UNL     1      -1.260 -10.342  -0.897  0.00  0.00    +0.220 C 
ATOM      8  O   UNL     1      -1.439 -10.658  -2.054  0.00  0.00    -0.275 OA
ATOM      9  N   UNL     1      -1.567 -11.205   0.092  0.00  0.00    -0.284 N 
ATOM     10  H   UNL     1      -1.424 -10.952   1.018  0.00  0.00    +0.152 HD
BRANCH   9  11
ATOM     11  C   UNL     1      -2.115 -12.524  -0.231  0.00  0.00    +0.275 C 
ATOM     12  N   UNL     1      -3.567 -12.450  -0.515  0.00  0.00    -0.157 NA
ATOM     13  N   UNL     1      -4.343 -13.222   0.013  0.00  0.00    -0.166 NA
ATOM     14  C   UNL     1      -3.857 -14.256   0.955  0.00  0.00    +0.292 C 
ATOM     15  S   UNL     1      -2.145 -13.623   1.256  0.00  0.00    -0.077 S 
BRANCH  14  16
ATOM     16  C   UNL     1      -4.683 -14.269   2.243  0.00  0.00    +0.423 C 
ATOM     17  F   UNL     1      -6.014 -14.572   1.940  0.00  0.00    -0.167 F 
ATOM     18  F   UNL     1      -4.170 -15.235   3.116  0.00  0.00    -0.167 F 
ATOM     19  F   UNL     1      -4.618 -13.010   2.851  0.00  0.00    -0.167 F 
ENDBRANCH  14  16
ENDBRANCH   9  11
ENDBRANCH   3   7
BRANCH   1  20
ATOM     20  C   UNL     1      -0.319  -5.616  -2.284  0.00  0.00    +0.112 C 
BRANCH  20  21
ATOM     21  C   UNL     1       1.031  -5.126  -1.758  0.00  0.00    +0.052 C 
BRANCH  21  28
ATOM     22  C   UNL     1       0.606  -0.607  -1.056  0.00  0.00    +0.121 A 
ATOM     23  C   UNL     1       1.172   0.195  -2.062  0.00  0.00    +0.047 A 
ATOM     24  C   UNL     1       1.790  -0.325  -3.144  0.00  0.00    +0.029 A 
ATOM     25  C   UNL     1       1.886  -1.780  -3.299  0.00  0.00    +0.043 A 
ATOM     26  N   UNL     1       2.419  -2.528  -4.232  0.00  0.00    -0.380 N 
ATOM     27  C   UNL     1       2.222  -3.937  -3.871  0.00  0.00    +0.144 C 
ATOM     28  C   UNL     1       1.476  -3.927  -2.555  0.00  0.00    -0.040 C 
ATOM     29  C   UNL     1       1.290  -2.626  -2.239  0.00  0.00    +0.002 A 
ATOM     30  C   UNL     1       0.646  -1.960  -1.102  0.00  0.00    +0.055 A 
ATOM     31  H   UNL     1       2.869  -2.205  -5.029  0.00  0.00    +0.160 HD
BRANCH  22  33
ATOM     32  C   UNL     1      -0.017   1.425   0.010  0.00  0.00    +0.277 C 
ATOM     33  O   UNL     1       0.002  -0.004   0.002  0.00  0.00    -0.495 OA
ENDBRANCH  22  33
ENDBRANCH  21  28
ENDBRANCH  20  21
ENDBRANCH   1  20
TORSDOF 7
