REMARK  Name = ZINC14020874
REMARK  5 active torsions:
REMARK  status: ('A' for Active; 'I' for Inactive)
REMARK    1  A    between atoms: C_1  and  C_2
REMARK    2  A    between atoms: C_5  and  S_8
REMARK    3  A    between atoms: S_8  and  N_11
REMARK    4  A    between atoms: C_15  and  C_18
REMARK    5  A    between atoms: C_23  and  C_26
REMARK                            x       y       z     vdW  Elec       q    Type
REMARK                         _______ _______ _______ _____ _____    ______ ____
ROOT
ATOM      1  C   UNL     1      -0.261   4.354   4.117  0.00  0.00    +0.223 C 
ATOM      2  O   UNL     1      -0.434   5.365   3.469  0.00  0.00    -0.275 OA
ATOM      3  N   UNL     1       0.007   4.437   5.435  0.00  0.00    -0.264 N 
ATOM      4  C   UNL     1       0.086   5.680   6.051  0.00  0.00    +0.165 A 
ATOM      5  N   UNL     1       0.335   5.971   7.314  0.00  0.00    -0.224 NA
ATOM      6  C   UNL     1       0.373   7.226   7.737  0.00  0.00    +0.087 A 
ATOM      7  C   UNL     1       0.149   8.241   6.845  0.00  0.00    +0.077 A 
ATOM      8  S   UNL     1      -0.116   7.308   5.343  0.00  0.00    -0.060 S 
ATOM      9  H   UNL     1       0.146   3.629   5.953  0.00  0.00    +0.157 HD
ENDROOT
BRANCH   6  10
ATOM     10  C   UNL     1       0.655   7.529   9.159  0.00  0.00    +0.086 A 
ATOM     11  C   UNL     1       0.879   6.518  10.053  0.00  0.00    +0.028 A 
ATOM     12  C   UNL     1       1.153   6.873  11.447  0.00  0.00    +0.018 A 
ATOM     13  C   UNL     1       1.389   5.876  12.402  0.00  0.00    +0.011 A 
ATOM     14  C   UNL     1       1.644   6.224  13.698  0.00  0.00    +0.001 A 
ATOM     15  C   UNL     1       1.670   7.559  14.075  0.00  0.00    +0.004 A 
ATOM     16  C   UNL     1       1.441   8.556  13.151  0.00  0.00    +0.047 A 
ATOM     17  C   UNL     1       1.179   8.226  11.826  0.00  0.00    +0.139 A 
ATOM     18  O   UNL     1       0.954   9.198  10.916  0.00  0.00    -0.422 OA
ATOM     19  C   UNL     1       0.704   8.917   9.629  0.00  0.00    +0.347 A 
ATOM     20  O   UNL     1       0.511   9.825   8.842  0.00  0.00    -0.244 OA
ENDBRANCH   6  10
BRANCH   1  25
ATOM     21  N   UNL     1      -0.872   1.871   1.353  0.00  0.00    -0.176 NA
ATOM     22  C   UNL     1      -1.852   0.960   1.960  0.00  0.00    +0.109 C 
ATOM     23  C   UNL     1      -1.521   0.799   3.447  0.00  0.00    +0.018 C 
ATOM     24  C   UNL     1      -1.456   2.180   4.104  0.00  0.00    +0.015 C 
ATOM     25  C   UNL     1      -0.346   3.007   3.448  0.00  0.00    +0.091 C 
ATOM     26  C   UNL     1      -0.660   3.190   1.965  0.00  0.00    +0.122 C 
BRANCH  21  27
ATOM     27  S   UNL     1      -0.017   1.417   0.010  0.00  0.00    +0.061 S 
ATOM     28  O   UNL     1       0.002  -0.004   0.002  0.00  0.00    -0.153 OA
ATOM     29  O   UNL     1       1.172   2.195   0.003  0.00  0.00    -0.153 OA
BRANCH  27  34
ATOM     30  C   UNL     1      -3.225   3.125  -4.807  0.00  0.00    +0.044 C 
ATOM     31  C   UNL     1      -2.423   2.698  -3.604  0.00  0.00    -0.050 A 
ATOM     32  C   UNL     1      -1.494   3.559  -3.052  0.00  0.00    +0.005 A 
ATOM     33  C   UNL     1      -0.759   3.168  -1.948  0.00  0.00    +0.029 A 
ATOM     34  C   UNL     1      -0.954   1.915  -1.397  0.00  0.00    +0.105 A 
ATOM     35  C   UNL     1      -1.879   1.052  -1.952  0.00  0.00    +0.029 A 
ATOM     36  C   UNL     1      -2.617   1.445  -3.053  0.00  0.00    +0.005 A 
ENDBRANCH  27  34
ENDBRANCH  21  27
ENDBRANCH   1  25
TORSDOF 4
