REMARK  Name = ZINC14943662
REMARK  8 active torsions:
REMARK  status: ('A' for Active; 'I' for Inactive)
REMARK    1  A    between atoms: C_1  and  S_2
REMARK    2  A    between atoms: S_2  and  C_3
REMARK    3  A    between atoms: C_3  and  C_4
REMARK    4  A    between atoms: C_4  and  C_5
REMARK    5  A    between atoms: N_13  and  C_16
REMARK    6  A    between atoms: N_31  and  C_34
REMARK    7  A    between atoms: C_34  and  C_35
REMARK    8  A    between atoms: C_35  and  C_36
REMARK                            x       y       z     vdW  Elec       q    Type
REMARK                         _______ _______ _______ _____ _____    ______ ____
ROOT
ATOM      1  C   UNL     1       1.701  -2.297  -2.963  0.00  0.00    +0.068 C 
ATOM      2  C   UNL     1       1.885  -3.806  -3.095  0.00  0.00    +0.107 C 
ATOM      3  C   UNL     1       2.967  -3.980  -1.966  0.00  0.00    +0.123 C 
ATOM      4  C   UNL     1       2.939  -5.404  -1.738  0.00  0.00    +0.233 C 
ATOM      5  O   UNL     1       3.864  -6.120  -1.418  0.00  0.00    -0.274 OA
ATOM      6  N   UNL     1       1.634  -5.773  -1.963  0.00  0.00    -0.210 N 
ATOM      7  C   UNL     1       0.881  -4.766  -2.538  0.00  0.00    +0.232 C 
ATOM      8  O   UNL     1      -0.327  -4.671  -2.579  0.00  0.00    -0.274 OA
ATOM      9  C   UNL     1       3.878  -2.850  -2.112  0.00  0.00    +0.136 C 
ATOM     10  N   UNL     1       3.130  -1.826  -2.919  0.00  0.00    -0.295 NA
ATOM     11  C   UNL     1       4.306  -2.213  -0.813  0.00  0.00    +0.004 A 
ATOM     12  C   UNL     1       3.608  -1.696   0.255  0.00  0.00    +0.008 A 
ATOM     13  C   UNL     1       4.291  -1.163   1.334  0.00  0.00    +0.000 A 
ATOM     14  C   UNL     1       5.674  -1.151   1.335  0.00  0.00    +0.002 A 
ATOM     15  C   UNL     1       6.376  -1.669   0.267  0.00  0.00    +0.024 A 
ATOM     16  C   UNL     1       5.696  -2.208  -0.823  0.00  0.00    +0.042 A 
ATOM     17  N   UNL     1       6.173  -2.783  -2.002  0.00  0.00    -0.269 N 
ATOM     18  C   UNL     1       5.176  -3.184  -2.811  0.00  0.00    +0.245 C 
ATOM     19  O   UNL     1       5.296  -3.715  -3.895  0.00  0.00    -0.273 OA
ATOM     20  H   UNL     1       3.516  -1.755  -3.849  0.00  0.00    +0.123 HD
ENDROOT
BRANCH   6  21
ATOM     21  C   UNL     1       1.120  -7.041  -1.656  0.00  0.00    +0.044 A 
ATOM     22  C   UNL     1       1.941  -8.005  -1.087  0.00  0.00    +0.025 A 
ATOM     23  C   UNL     1       1.433  -9.253  -0.785  0.00  0.00    +0.022 A 
ATOM     24  C   UNL     1       0.106  -9.543  -1.050  0.00  0.00    +0.041 A 
ATOM     25  C   UNL     1      -0.714  -8.585  -1.618  0.00  0.00    +0.022 A 
ATOM     26  C   UNL     1      -0.212  -7.333  -1.916  0.00  0.00    +0.025 A 
ATOM     27 CL   UNL     1      -0.530 -11.113  -0.670  0.00  0.00    -0.084 Cl
ENDBRANCH   6  21
BRANCH   1  28
ATOM     28  C   UNL     1       0.966  -1.944  -1.668  0.00  0.00    +0.030 C 
BRANCH  28  29
ATOM     29  C   UNL     1       0.904  -0.423  -1.516  0.00  0.00    +0.070 C 
BRANCH  29  31
ATOM     30  C   UNL     1       0.044   1.810   0.050  0.00  0.00    +0.084 C 
ATOM     31  S   UNL     1       0.032  -0.004   0.019  0.00  0.00    -0.164 S 
ENDBRANCH  29  31
ENDBRANCH  28  29
ENDBRANCH   1  28
BRANCH  17  32
ATOM     32  C   UNL     1       7.595  -2.930  -2.322  0.00  0.00    +0.115 C 
BRANCH  32  33
ATOM     33  C   UNL     1       8.098  -4.277  -1.800  0.00  0.00    +0.035 C 
BRANCH  33  34
ATOM     34  C   UNL     1       9.583  -4.432  -2.135  0.00  0.00    +0.110 C 
ATOM     35 CL   UNL     1      10.176  -6.019  -1.519  0.00  0.00    -0.125 Cl
ENDBRANCH  33  34
ENDBRANCH  32  33
ENDBRANCH  17  32
TORSDOF 7
