REMARK  Name = ZINC08849543
REMARK  5 active torsions:
REMARK  status: ('A' for Active; 'I' for Inactive)
REMARK    1  A    between atoms: C_1  and  C_2
REMARK    2  A    between atoms: C_2  and  C_22
REMARK    3  A    between atoms: N_5  and  C_9
REMARK    4  A    between atoms: C_9  and  C_10
REMARK    5  A    between atoms: C_12  and  C_15
REMARK                            x       y       z     vdW  Elec       q    Type
REMARK                         _______ _______ _______ _____ _____    ______ ____
ROOT
ATOM      1  C   UNL     1       2.015   1.638   1.249  0.00  0.00    +0.047 C 
ATOM      2  C   UNL     1       1.158   1.862   0.001  0.00  0.00    +0.135 C 
ATOM      3  C   UNL     1       0.545   3.248   0.013  0.00  0.00    +0.251 C 
ATOM      4  O   UNL     1       1.132   4.309   0.013  0.00  0.00    -0.272 OA
ATOM      5  N   UNL     1      -0.789   3.056   0.025  0.00  0.00    -0.215 N 
ATOM      6  C   UNL     1      -1.101   1.755   0.016  0.00  0.00    +0.310 C 
ATOM      7  O   UNL     1      -2.240   1.333   0.019  0.00  0.00    -0.252 OA
ATOM      8  N   UNL     1      -0.011   0.966   0.007  0.00  0.00    -0.281 N 
ATOM      9  H   UNL     1       0.002  -0.004   0.002  0.00  0.00    +0.152 HD
ENDROOT
BRANCH   2  10
ATOM     10  C   UNL     1       1.977   1.656  -1.247  0.00  0.00    -0.012 A 
ATOM     11  C   UNL     1       2.673   2.716  -1.798  0.00  0.00    +0.010 A 
ATOM     12  C   UNL     1       3.425   2.531  -2.943  0.00  0.00    +0.050 A 
ATOM     13  C   UNL     1       3.482   1.281  -3.543  0.00  0.00    +0.162 A 
ATOM     14  C   UNL     1       2.785   0.215  -2.987  0.00  0.00    +0.162 A 
ATOM     15  C   UNL     1       2.036   0.407  -1.835  0.00  0.00    +0.055 A 
ATOM     16  O   UNL     1       2.831  -1.020  -3.556  0.00  0.00    -0.485 OA
ATOM     17  C   UNL     1       3.286  -1.087  -4.912  0.00  0.00    +0.270 C 
ATOM     18  C   UNL     1       4.553  -0.228  -5.036  0.00  0.00    +0.270 C 
ATOM     19  O   UNL     1       4.220   1.116  -4.675  0.00  0.00    -0.485 OA
ENDBRANCH   2  10
BRANCH   5  20
ATOM     20  C   UNL     1      -1.776   4.138   0.038  0.00  0.00    +0.216 C 
BRANCH  20  21
ATOM     21  C   UNL     1      -2.128   4.516  -1.378  0.00  0.00    +0.246 A 
ATOM     22  N   UNL     1      -3.088   4.000  -2.105  0.00  0.00    -0.190 NA
ATOM     23  C   UNL     1      -3.027   4.641  -3.294  0.00  0.00    +0.202 A 
ATOM     24  N   UNL     1      -2.043   5.500  -3.220  0.00  0.00    -0.056 NA
ATOM     25  O   UNL     1      -1.522   5.443  -2.126  0.00  0.00    -0.336 OA
BRANCH  23  26
ATOM     26  C   UNL     1      -3.911   4.413  -4.464  0.00  0.00    +0.023 A 
ATOM     27  C   UNL     1      -4.921   3.455  -4.400  0.00  0.00    +0.014 A 
ATOM     28  C   UNL     1      -5.745   3.251  -5.488  0.00  0.00    +0.039 A 
ATOM     29  C   UNL     1      -5.561   3.988  -6.646  0.00  0.00    +0.123 A 
ATOM     30  C   UNL     1      -4.554   4.938  -6.716  0.00  0.00    +0.039 A 
ATOM     31  C   UNL     1      -3.730   5.153  -5.631  0.00  0.00    +0.014 A 
ATOM     32  F   UNL     1      -6.366   3.781  -7.712  0.00  0.00    -0.205 F 
ENDBRANCH  23  26
ENDBRANCH  20  21
ENDBRANCH   5  20
TORSDOF 4
