REMARK  Name = ZINC06900314
REMARK  4 active torsions:
REMARK  status: ('A' for Active; 'I' for Inactive)
REMARK    1  A    between atoms: C_1  and  C_2
REMARK    2  A    between atoms: C_7  and  S_8
REMARK    3  A    between atoms: S_8  and  N_11
REMARK    4  A    between atoms: N_14  and  C_17
REMARK                            x       y       z     vdW  Elec       q    Type
REMARK                         _______ _______ _______ _____ _____    ______ ____
ROOT
ATOM      1  S   UNL     1       0.263   0.183   2.712  0.00  0.00    +0.061 S 
ATOM      2  O   UNL     1      -0.844   1.066   2.836  0.00  0.00    -0.153 OA
ATOM      3  O   UNL     1       0.545  -0.824   3.674  0.00  0.00    -0.153 OA
ENDROOT
BRANCH   1  10
ATOM      4  C   UNL     1      -0.517   1.570   0.144  0.00  0.00    +0.046 C 
ATOM      5  C   UNL     1      -0.280   0.086   0.039  0.00  0.00    -0.022 A 
ATOM      6  C   UNL     1      -0.418  -0.547  -1.180  0.00  0.00    +0.033 A 
ATOM      7  C   UNL     1      -0.200  -1.917  -1.281  0.00  0.00    +0.066 A 
ATOM      8  C   UNL     1       0.159  -2.646  -0.145  0.00  0.00    +0.068 A 
ATOM      9  C   UNL     1       0.295  -1.997   1.076  0.00  0.00    +0.056 A 
ATOM     10  C   UNL     1       0.082  -0.636   1.163  0.00  0.00    +0.110 A 
ATOM     11  N   UNL     1       0.382  -4.018  -0.226  0.00  0.00    -0.316 N 
ATOM     12  H   UNL     1       0.630  -4.516   0.568  0.00  0.00    +0.169 HD
ATOM     13  C   UNL     1       0.252  -4.656  -1.407  0.00  0.00    +0.314 A 
ATOM     14  O   UNL     1       0.444  -5.853  -1.482  0.00  0.00    -0.262 OA
ATOM     15  C   UNL     1      -0.131  -3.876  -2.620  0.00  0.00    +0.314 A 
ATOM     16  O   UNL     1      -0.254  -4.432  -3.693  0.00  0.00    -0.262 OA
ATOM     17  N   UNL     1      -0.341  -2.549  -2.513  0.00  0.00    -0.316 N 
ATOM     18  H   UNL     1      -0.591  -2.033  -3.296  0.00  0.00    +0.169 HD
ENDBRANCH   1  10
BRANCH   1  19
ATOM     19  N   UNL     1       1.616   1.132   2.609  0.00  0.00    -0.174 NA
ATOM     20  C   UNL     1       2.940   0.585   2.937  0.00  0.00    +0.128 C 
ATOM     21  C   UNL     1       3.871   0.806   1.738  0.00  0.00    +0.122 C 
ATOM     22  N   UNL     1       3.770   2.211   1.317  0.00  0.00    -0.325 N 
ATOM     23  C   UNL     1       2.446   2.758   0.990  0.00  0.00    +0.122 C 
ATOM     24  C   UNL     1       1.515   2.535   2.183  0.00  0.00    +0.128 C 
BRANCH  22  25
ATOM     25  C   UNL     1       4.912   3.012   1.230  0.00  0.00    +0.065 A 
ATOM     26  C   UNL     1       5.624   3.082   0.040  0.00  0.00    +0.026 A 
ATOM     27  C   UNL     1       6.752   3.875  -0.043  0.00  0.00    +0.002 A 
ATOM     28  C   UNL     1       7.175   4.598   1.057  0.00  0.00    +0.003 A 
ATOM     29  C   UNL     1       6.470   4.531   2.245  0.00  0.00    +0.040 A 
ATOM     30  C   UNL     1       5.336   3.745   2.334  0.00  0.00    +0.144 A 
ATOM     31  F   UNL     1       4.644   3.684   3.493  0.00  0.00    -0.204 F 
ENDBRANCH  22  25
ENDBRANCH   1  19
TORSDOF 3
