REMARK  Name = ZINC34899952
REMARK  10 active torsions:
REMARK  status: ('A' for Active; 'I' for Inactive)
REMARK    1  A    between atoms: C_1  and  C_2
REMARK    2  A    between atoms: C_2  and  C_3
REMARK    3  A    between atoms: C_3  and  C_4
REMARK    4  A    between atoms: C_4  and  O_5
REMARK    5  A    between atoms: O_5  and  C_6
REMARK    6  A    between atoms: C_9  and  C_12
REMARK    7  A    between atoms: C_18  and  C_20
REMARK    8  A    between atoms: N_22  and  C_23
REMARK    9  A    between atoms: C_29  and  N_31
REMARK   10  A    between atoms: C_32  and  C_34
REMARK                            x       y       z     vdW  Elec       q    Type
REMARK                         _______ _______ _______ _____ _____    ______ ____
ROOT
ATOM      1  C   UNL     1       1.071 -10.544  -4.692  0.00  0.00    +0.234 C 
ATOM      2  O   UNL     1       0.103  -9.842  -4.492  0.00  0.00    -0.274 OA
ATOM      3  N   UNL     1       0.907 -11.845  -5.005  0.00  0.00    -0.309 N 
ATOM      4  H   UNL     1       1.681 -12.407  -5.165  0.00  0.00    +0.149 HD
ENDROOT
BRANCH   1  11
ATOM      5  C   UNL     1       1.844  -8.035  -3.111  0.00  0.00    +0.247 C 
ATOM      6  O   UNL     1       1.471  -8.784  -2.229  0.00  0.00    -0.270 OA
ATOM      7  N   UNL     1       2.377  -8.537  -4.242  0.00  0.00    -0.286 N 
ATOM      8  C   UNL     1       2.983  -7.748  -5.330  0.00  0.00    +0.109 C 
ATOM      9  C   UNL     1       3.955  -8.727  -6.036  0.00  0.00    +0.021 C 
ATOM     10  C   UNL     1       3.164 -10.060  -5.960  0.00  0.00    +0.033 C 
ATOM     11  C   UNL     1       2.458  -9.963  -4.592  0.00  0.00    +0.162 C 
BRANCH   5  15
ATOM     12  C   UNL     1       1.467  -3.833  -2.625  0.00  0.00    +0.121 A 
ATOM     13  C   UNL     1       1.539  -4.656  -1.507  0.00  0.00    +0.046 A 
ATOM     14  C   UNL     1       1.662  -6.019  -1.661  0.00  0.00    +0.016 A 
ATOM     15  C   UNL     1       1.713  -6.574  -2.942  0.00  0.00    +0.037 A 
ATOM     16  C   UNL     1       1.639  -5.743  -4.063  0.00  0.00    +0.016 A 
ATOM     17  C   UNL     1       1.512  -4.382  -3.901  0.00  0.00    +0.046 A 
BRANCH  12  18
ATOM     18  O   UNL     1       1.347  -2.490  -2.470  0.00  0.00    -0.492 OA
BRANCH  18  19
ATOM     19  C   UNL     1       1.307  -1.993  -1.131  0.00  0.00    +0.229 C 
BRANCH  19  20
ATOM     20  C   UNL     1       1.169  -0.469  -1.156  0.00  0.00    +0.041 C 
BRANCH  20  22
ATOM     21  C   UNL     1       0.989   1.587   0.252  0.00  0.00    +0.004 C 
ATOM     22  C   UNL     1       1.126   0.063   0.277  0.00  0.00    -0.000 C 
ENDBRANCH  20  22
ENDBRANCH  19  20
ENDBRANCH  18  19
ENDBRANCH  12  18
ENDBRANCH   5  15
ENDBRANCH   1  11
BRANCH   3  23
ATOM     23  C   UNL     1      -0.441 -12.411  -5.102  0.00  0.00    +0.093 C 
ATOM     24  C   UNL     1      -0.918 -12.836  -3.712  0.00  0.00    +0.024 C 
ATOM     25  C   UNL     1      -2.325 -13.426  -3.814  0.00  0.00    +0.002 C 
ATOM     26  C   UNL     1      -2.302 -14.644  -4.739  0.00  0.00    +0.002 C 
ATOM     27  C   UNL     1      -1.825 -14.219  -6.130  0.00  0.00    +0.024 C 
ATOM     28  C   UNL     1      -0.417 -13.629  -6.028  0.00  0.00    +0.093 C 
BRANCH  28  29
ATOM     29  N   UNL     1       0.039 -13.222  -7.359  0.00  0.00    -0.307 N 
ATOM     30  C   UNL     1       0.616 -14.123  -8.178  0.00  0.00    +0.244 C 
ATOM     31  O   UNL     1       0.758 -15.273  -7.812  0.00  0.00    -0.270 OA
ATOM     32  H   UNL     1      -0.074 -12.304  -7.651  0.00  0.00    +0.149 HD
BRANCH  30  33
ATOM     33  C   UNL     1       1.076 -13.712  -9.521  0.00  0.00    +0.037 A 
ATOM     34  C   UNL     1       0.919 -12.390  -9.941  0.00  0.00    +0.016 A 
ATOM     35  C   UNL     1       1.350 -12.012 -11.195  0.00  0.00    +0.039 A 
ATOM     36  C   UNL     1       1.938 -12.943 -12.038  0.00  0.00    +0.123 A 
ATOM     37  C   UNL     1       2.096 -14.257 -11.626  0.00  0.00    +0.039 A 
ATOM     38  C   UNL     1       1.675 -14.644 -10.372  0.00  0.00    +0.016 A 
ATOM     39  F   UNL     1       2.358 -12.568 -13.266  0.00  0.00    -0.205 F 
ENDBRANCH  30  33
ENDBRANCH  28  29
ENDBRANCH   3  23
TORSDOF 9
