REMARK  Name = ZINC02628214
REMARK  8 active torsions:
REMARK  status: ('A' for Active; 'I' for Inactive)
REMARK    1  A    between atoms: C_4  and  C_7
REMARK    2  A    between atoms: C_7  and  N_8
REMARK    3  A    between atoms: C_9  and  C_28
REMARK    4  A    between atoms: C_12  and  S_13
REMARK    5  A    between atoms: S_13  and  C_14
REMARK    6  A    between atoms: C_14  and  C_15
REMARK    7  A    between atoms: N_17  and  N_18
REMARK    8  A    between atoms: C_19  and  C_21
REMARK                            x       y       z     vdW  Elec       q    Type
REMARK                         _______ _______ _______ _____ _____    ______ ____
ROOT
ATOM      1  N   UNL     1      -2.927   0.722   1.401  0.00  0.00    -0.295 N 
ATOM      2  C   UNL     1      -3.723   1.519   2.194  0.00  0.00    +0.201 A 
ATOM      3  N   UNL     1      -3.839   0.912   3.355  0.00  0.00    -0.125 NA
ATOM      4  N   UNL     1      -3.180  -0.191   3.341  0.00  0.00    -0.122 NA
ATOM      5  C   UNL     1      -2.607  -0.361   2.171  0.00  0.00    +0.193 A 
ENDROOT
BRANCH   2   6
ATOM      6  C   UNL     1      -4.329   2.804   1.815  0.00  0.00    +0.172 A 
ATOM      7  C   UNL     1      -5.336   3.441   2.477  0.00  0.00    +0.053 A 
ATOM      8  C   UNL     1      -5.597   4.631   1.770  0.00  0.00    +0.042 A 
ATOM      9  C   UNL     1      -4.755   4.659   0.718  0.00  0.00    +0.196 A 
ATOM     10  O   UNL     1      -3.990   3.554   0.748  0.00  0.00    -0.460 OA
ENDBRANCH   2   6
BRANCH   1  11
ATOM     11  C   UNL     1      -2.514   0.980   0.019  0.00  0.00    +0.161 C 
BRANCH  11  15
ATOM     12  C   UNL     1       1.156   3.165   0.008  0.00  0.00    +0.000 A 
ATOM     13  C   UNL     1       1.175   1.783   0.000  0.00  0.00    +0.000 A 
ATOM     14  C   UNL     1      -0.013   1.076   0.008  0.00  0.00    +0.005 A 
ATOM     15  C   UNL     1      -1.219   1.751   0.017  0.00  0.00    -0.028 A 
ATOM     16  C   UNL     1      -1.238   3.133   0.030  0.00  0.00    +0.005 A 
ATOM     17  C   UNL     1      -0.050   3.840   0.022  0.00  0.00    +0.000 A 
ENDBRANCH  11  15
ENDBRANCH   1  11
BRANCH   5  18
ATOM     18  S   UNL     1      -1.610  -1.730   1.685  0.00  0.00    -0.077 S 
BRANCH  18  19
ATOM     19  C   UNL     1      -1.658  -2.710   3.206  0.00  0.00    +0.174 C 
BRANCH  19  20
ATOM     20  C   UNL     1      -0.848  -3.967   3.020  0.00  0.00    +0.239 C 
ATOM     21  O   UNL     1      -0.293  -4.179   1.963  0.00  0.00    -0.273 OA
ATOM     22  N   UNL     1      -0.740  -4.854   4.028  0.00  0.00    -0.233 N 
ATOM     23  H   UNL     1      -1.183  -4.684   4.874  0.00  0.00    +0.173 HD
BRANCH  22  24
ATOM     24  N   UNL     1       0.013  -6.023   3.855  0.00  0.00    -0.230 N 
ATOM     25  C   UNL     1       0.121  -6.911   4.864  0.00  0.00    +0.260 C 
ATOM     26  O   UNL     1      -0.435  -6.697   5.923  0.00  0.00    -0.269 OA
ATOM     27  H   UNL     1       0.457  -6.193   3.010  0.00  0.00    +0.173 HD
BRANCH  25  28
ATOM     28  C   UNL     1       0.915  -8.144   4.681  0.00  0.00    +0.038 A 
ATOM     29  C   UNL     1       1.551  -8.394   3.463  0.00  0.00    +0.014 A 
ATOM     30  C   UNL     1       2.295  -9.544   3.301  0.00  0.00    +0.016 A 
ATOM     31  C   UNL     1       2.404 -10.454   4.339  0.00  0.00    +0.018 A 
ATOM     32  C   UNL     1       1.771 -10.214   5.547  0.00  0.00    +0.016 A 
ATOM     33  C   UNL     1       1.029  -9.065   5.724  0.00  0.00    +0.014 A 
ATOM     34 BR   UNL     1       3.421 -12.031   4.105  0.00  0.00    -0.050 Br
ENDBRANCH  25  28
ENDBRANCH  22  24
ENDBRANCH  19  20
ENDBRANCH  18  19
ENDBRANCH   5  18
TORSDOF 8
