REMARK  Name = ZINC09913315
REMARK  12 active torsions:
REMARK  status: ('A' for Active; 'I' for Inactive)
REMARK    1  A    between atoms: C_1  and  C_2
REMARK    2  A    between atoms: C_2  and  O_3
REMARK    3  A    between atoms: O_3  and  C_4
REMARK    4  A    between atoms: C_7  and  C_9
REMARK    5  A    between atoms: C_13  and  N_14
REMARK    6  A    between atoms: C_15  and  C_17
REMARK    7  A    between atoms: C_17  and  C_18
REMARK    8  A    between atoms: C_18  and  C_19
REMARK    9  A    between atoms: C_19  and  S_20
REMARK   10  A    between atoms: S_20  and  C_23
REMARK   11  A    between atoms: C_26  and  C_29
REMARK   12  A    between atoms: C_31  and  C_35
REMARK                            x       y       z     vdW  Elec       q    Type
REMARK                         _______ _______ _______ _____ _____    ______ ____
ROOT
ATOM      1  C   UNL     1       3.357   5.175  -0.008  0.00  0.00    +0.069 A 
ATOM      2  C   UNL     1       4.791   5.410  -0.016  0.00  0.00    -0.023 A 
ATOM      3  C   UNL     1       5.557   4.298  -0.029  0.00  0.00    -0.004 A 
ATOM      4  S   UNL     1       4.404   2.955  -0.025  0.00  0.00    -0.077 S 
ATOM      5  C   UNL     1       2.924   3.856  -0.005  0.00  0.00    +0.084 A 
ATOM      6  C   UNL     1       7.053   4.232  -0.046  0.00  0.00    +0.046 C 
ATOM      7  C   UNL     1       7.594   5.618  -0.422  0.00  0.00    -0.009 C 
ATOM      8  C   UNL     1       6.881   6.674   0.427  0.00  0.00    +0.008 C 
ATOM      9  C   UNL     1       5.422   6.798  -0.014  0.00  0.00    +0.037 C 
ATOM     10  C   UNL     1       9.100   5.671  -0.154  0.00  0.00    +0.008 C 
ENDROOT
BRANCH   1  14
ATOM     11  C   UNL     1       1.079   7.823  -1.155  0.00  0.00    +0.407 C 
ATOM     12  O   UNL     1       0.693   8.284  -0.099  0.00  0.00    -0.226 OA
ATOM     13  N   UNL     1       1.955   6.800  -1.162  0.00  0.00    -0.217 N 
ATOM     14  C   UNL     1       2.404   6.287   0.001  0.00  0.00    +0.255 C 
ATOM     15  O   UNL     1       2.017   6.749   1.058  0.00  0.00    -0.270 OA
ATOM     16  H   UNL     1       2.264   6.432  -2.005  0.00  0.00    +0.161 HD
BRANCH  11  17
ATOM     17  O   UNL     1       0.631   8.335  -2.316  0.00  0.00    -0.450 OA
BRANCH  17  19
ATOM     18  C   UNL     1      -0.705   9.881  -3.642  0.00  0.00    +0.048 C 
ATOM     19  C   UNL     1      -0.312   9.436  -2.232  0.00  0.00    +0.230 C 
ENDBRANCH  17  19
ENDBRANCH  11  17
ENDBRANCH   1  14
BRANCH   5  20
ATOM     20  N   UNL     1       1.623   3.376   0.005  0.00  0.00    -0.279 N 
ATOM     21  C   UNL     1       1.395   2.047  -0.000  0.00  0.00    +0.218 C 
ATOM     22  O   UNL     1       2.328   1.272  -0.013  0.00  0.00    -0.275 OA
ATOM     23  H   UNL     1       0.878   3.996   0.015  0.00  0.00    +0.155 HD
BRANCH  21  24
ATOM     24  C   UNL     1      -0.019   1.526   0.010  0.00  0.00    +0.098 C 
BRANCH  24  25
ATOM     25  C   UNL     1       0.002  -0.004   0.002  0.00  0.00    +0.032 C 
BRANCH  25  26
ATOM     26  C   UNL     1      -1.433  -0.534   0.013  0.00  0.00    +0.172 C 
BRANCH  26  27
ATOM     27  S   UNL     1      -1.409  -2.348   0.003  0.00  0.00    -0.003 S 
ATOM     28  O   UNL     1      -0.909  -2.823  -1.239  0.00  0.00    -0.169 OA
ATOM     29  O   UNL     1      -0.885  -2.837   1.230  0.00  0.00    -0.169 OA
BRANCH  27  30
ATOM     30  C   UNL     1      -3.105  -2.823   0.017  0.00  0.00    +0.088 A 
ATOM     31  C   UNL     1      -3.758  -3.022   1.219  0.00  0.00    +0.027 A 
ATOM     32  C   UNL     1      -5.090  -3.391   1.230  0.00  0.00    +0.005 A 
ATOM     33  C   UNL     1      -5.767  -3.571   0.038  0.00  0.00    -0.050 A 
ATOM     34  C   UNL     1      -5.113  -3.377  -1.165  0.00  0.00    +0.005 A 
ATOM     35  C   UNL     1      -3.782  -3.004  -1.175  0.00  0.00    +0.027 A 
ATOM     36  C   UNL     1      -7.218  -3.978   0.050  0.00  0.00    +0.044 C 
ENDBRANCH  27  30
ENDBRANCH  26  27
ENDBRANCH  25  26
ENDBRANCH  24  25
ENDBRANCH  21  24
ENDBRANCH   5  20
TORSDOF 9
