REMARK  Name = ZINC36726646
REMARK  9 active torsions:
REMARK  status: ('A' for Active; 'I' for Inactive)
REMARK    1  A    between atoms: C_1  and  C_2
REMARK    2  A    between atoms: C_7  and  C_9
REMARK    3  A    between atoms: C_7  and  C_10
REMARK    4  A    between atoms: N_13  and  C_17
REMARK    5  A    between atoms: C_17  and  C_18
REMARK    6  A    between atoms: N_20  and  C_21
REMARK    7  A    between atoms: N_20  and  C_22
REMARK    8  A    between atoms: C_22  and  C_23
REMARK    9  A    between atoms: N_25  and  C_26
REMARK                            x       y       z     vdW  Elec       q    Type
REMARK                         _______ _______ _______ _____ _____    ______ ____
ROOT
ATOM      1  C   UNL     1      -3.301  -2.496  -1.606  0.00  0.00    +0.213 C 
ENDROOT
BRANCH   1  13
ATOM      2  C   UNL     1      -1.683   4.382  -1.038  0.00  0.00    +0.007 C 
ATOM      3  C   UNL     1      -1.056   2.994  -0.888  0.00  0.00    -0.011 C 
ATOM      4  C   UNL     1      -2.159   1.955  -0.678  0.00  0.00    +0.038 C 
ATOM      5  C   UNL     1      -1.534   0.575  -0.508  0.00  0.00    +0.113 C 
ATOM      6  C   UNL     1      -0.576   0.558   0.678  0.00  0.00    +0.041 C 
ATOM      7  C   UNL     1       0.522   1.603   0.463  0.00  0.00    -0.032 C 
ATOM      8  C   UNL     1      -0.114   2.987   0.317  0.00  0.00    +0.009 C 
ATOM      9  C   UNL     1       1.471   1.601   1.663  0.00  0.00    +0.011 C 
ATOM     10  C   UNL     1       1.305   1.266  -0.808  0.00  0.00    +0.011 C 
ATOM     11  C   UNL     1      -2.608  -0.474  -0.334  0.00  0.00    +0.247 C 
ATOM     12  O   UNL     1      -3.430  -0.542   0.555  0.00  0.00    -0.273 OA
ATOM     13  N   UNL     1      -2.461  -1.318  -1.375  0.00  0.00    -0.215 N 
ATOM     14  C   UNL     1      -1.451  -0.947  -2.172  0.00  0.00    +0.310 C 
ATOM     15  O   UNL     1      -1.124  -1.550  -3.175  0.00  0.00    -0.252 OA
ATOM     16  N   UNL     1      -0.838   0.171  -1.737  0.00  0.00    -0.285 N 
ATOM     17  H   UNL     1      -0.086   0.620  -2.152  0.00  0.00    +0.151 HD
ENDBRANCH   1  13
BRANCH   1  18
ATOM     18  C   UNL     1      -4.486  -2.110  -2.453  0.00  0.00    +0.234 C 
ATOM     19  O   UNL     1      -4.616  -0.963  -2.827  0.00  0.00    -0.274 OA
ATOM     20  N   UNL     1      -5.401  -3.038  -2.795  0.00  0.00    -0.294 N 
ATOM     21  C   UNL     1      -5.244  -4.423  -2.344  0.00  0.00    +0.132 C 
BRANCH  20  22
ATOM     22  C   UNL     1      -6.553  -2.662  -3.619  0.00  0.00    +0.203 C 
BRANCH  22  23
ATOM     23  C   UNL     1      -6.207  -2.832  -5.075  0.00  0.00    +0.235 C 
ATOM     24  O   UNL     1      -5.105  -3.228  -5.394  0.00  0.00    -0.274 OA
ATOM     25  N   UNL     1      -7.120  -2.544  -6.023  0.00  0.00    -0.282 N 
ATOM     26  H   UNL     1      -7.983  -2.179  -5.771  0.00  0.00    +0.155 HD
BRANCH  25  27
ATOM     27  C   UNL     1      -6.824  -2.771  -7.373  0.00  0.00    +0.070 A 
ATOM     28  C   UNL     1      -6.189  -3.946  -7.759  0.00  0.00    +0.064 A 
ATOM     29  C   UNL     1      -5.898  -4.166  -9.092  0.00  0.00    +0.022 A 
ATOM     30  C   UNL     1      -6.237  -3.220 -10.041  0.00  0.00    +0.003 A 
ATOM     31  C   UNL     1      -6.869  -2.050  -9.661  0.00  0.00    +0.022 A 
ATOM     32  C   UNL     1      -7.168  -1.825  -8.330  0.00  0.00    +0.064 A 
ATOM     33 CL   UNL     1      -7.968  -0.359  -7.855  0.00  0.00    -0.082 Cl
ATOM     34 CL   UNL     1      -5.763  -5.134  -6.567  0.00  0.00    -0.082 Cl
ENDBRANCH  25  27
ENDBRANCH  22  23
ENDBRANCH  20  22
ENDBRANCH   1  18
TORSDOF 5
