REMARK  Name = ZINC10751589
REMARK  9 active torsions:
REMARK  status: ('A' for Active; 'I' for Inactive)
REMARK    1  A    between atoms: C_1  and  C_2
REMARK    2  A    between atoms: N_11  and  C_12
REMARK    3  A    between atoms: C_12  and  C_13
REMARK    4  A    between atoms: C_13  and  N_60
REMARK    5  A    between atoms: C_14  and  N_60
REMARK    6  A    between atoms: C_15  and  N_60
REMARK    7  A    between atoms: C_16  and  C_18
REMARK    8  A    between atoms: N_23  and  S_25
REMARK    9  A    between atoms: S_25  and  C_28
REMARK                            x       y       z     vdW  Elec       q    Type
REMARK                         _______ _______ _______ _____ _____    ______ ____
ROOT
ATOM      1  C   UNL     1       2.156  -3.450   0.890  0.00  0.00    +0.046 C 
ATOM      2  C   UNL     1       3.272  -2.496   1.232  0.00  0.00    -0.024 A 
ATOM      3  C   UNL     1       4.478  -2.989   1.656  0.00  0.00    +0.005 A 
ATOM      4  C   UNL     1       5.531  -2.147   1.981  0.00  0.00    +0.001 A 
ATOM      5  C   UNL     1       5.362  -0.778   1.875  0.00  0.00    +0.017 A 
ATOM      6  C   UNL     1       4.157  -0.276   1.451  0.00  0.00    +0.041 A 
ATOM      7  C   UNL     1       3.062  -1.103   1.111  0.00  0.00    +0.083 A 
ATOM      8  N   UNL     1       1.945  -0.459   0.711  0.00  0.00    -0.224 NA
ATOM      9  C   UNL     1       1.872   0.849   0.639  0.00  0.00    +0.168 A 
ATOM     10  S   UNL     1       3.504   1.352   1.165  0.00  0.00    -0.052 S 
ATOM     11  N   UNL     1       0.803   1.640   0.248  0.00  0.00    -0.252 N 
ATOM     12  C   UNL     1      -0.364   1.067  -0.107  0.00  0.00    +0.226 C 
ATOM     13  O   UNL     1      -1.324   1.760  -0.369  0.00  0.00    -0.275 OA
ENDROOT
BRANCH  12  14
ATOM     14  C   UNL     1      -0.478  -0.434  -0.173  0.00  0.00    +0.091 C 
ATOM     15  C   UNL     1       0.317  -0.954  -1.372  0.00  0.00    +0.015 C 
ATOM     16  C   UNL     1       0.229  -2.482  -1.421  0.00  0.00    +0.018 C 
ATOM     17  C   UNL     1      -1.234  -2.900  -1.593  0.00  0.00    +0.109 C 
ATOM     18  N   UNL     1      -2.031  -2.283  -0.523  0.00  0.00    -0.175 NA
ATOM     19  C   UNL     1      -1.950  -0.829  -0.330  0.00  0.00    +0.122 C 
BRANCH  18  20
ATOM     20  S   UNL     1      -3.002  -3.210   0.446  0.00  0.00    +0.067 S 
ATOM     21  O   UNL     1      -4.011  -2.347   0.954  0.00  0.00    -0.152 OA
ATOM     22  O   UNL     1      -3.306  -4.387  -0.289  0.00  0.00    -0.152 OA
BRANCH  20  23
ATOM     23  C   UNL     1      -2.030  -3.715   1.826  0.00  0.00    +0.143 A 
ATOM     24  C   UNL     1      -1.857  -3.098   3.021  0.00  0.00    +0.036 A 
ATOM     25  C   UNL     1      -1.039  -3.686   3.967  0.00  0.00    +0.010 A 
ATOM     26  C   UNL     1      -0.434  -4.862   3.673  0.00  0.00    +0.047 A 
ATOM     27  S   UNL     1      -1.024  -5.178   2.018  0.00  0.00    -0.077 S 
ENDBRANCH  20  23
ENDBRANCH  18  20
ENDBRANCH  12  14
BRANCH  11  28
ATOM     28  C   UNL     1       0.942   3.098   0.222  0.00  0.00    +0.097 C 
BRANCH  28  29
ATOM     29  C   UNL     1       0.434   3.683   1.542  0.00  0.00    -0.060 C 
BRANCH  29  32
ATOM     30  C   UNL     1      -0.242   5.745   2.615  0.00  0.00    -0.097 C 
ATOM     31  C   UNL     1       1.832   5.652   1.369  0.00  0.00    -0.097 C 
ATOM     32  N   UNL     1       0.441   5.157   1.444  0.00  0.00    +0.377 N 
ATOM     33  H   UNL     1      -0.058   5.437   0.591  0.00  0.00    -0.083 HD
ENDBRANCH  29  32
ENDBRANCH  28  29
ENDBRANCH  11  28
TORSDOF 6
