REMARK  Name = ZINC32100748
REMARK  4 active torsions:
REMARK  status: ('A' for Active; 'I' for Inactive)
REMARK    1  A    between atoms: C_1  and  C_2
REMARK    2  A    between atoms: N_17  and  C_18
REMARK    3  A    between atoms: N_27  and  C_28
REMARK    4  A    between atoms: C_28  and  C_29
REMARK                            x       y       z     vdW  Elec       q    Type
REMARK                         _______ _______ _______ _____ _____    ______ ____
ROOT
ATOM      1  C   UNL     1      -0.018   1.503   0.010  0.00  0.00    +0.044 C 
ATOM      2  C   UNL     1       0.002  -0.004   0.002  0.00  0.00    -0.050 A 
ATOM      3  C   UNL     1       0.005  -0.673  -1.205  0.00  0.00    +0.005 A 
ATOM      4  C   UNL     1       0.024  -2.057  -1.277  0.00  0.00    +0.024 A 
ATOM      5  C   UNL     1       0.040  -2.759  -0.071  0.00  0.00    +0.041 A 
ATOM      6  C   UNL     1       0.037  -2.068   1.148  0.00  0.00    -0.006 A 
ATOM      7  C   UNL     1       0.023  -0.691   1.211  0.00  0.00    +0.010 A 
ATOM      8  C   UNL     1       0.059  -3.111   2.219  0.00  0.00    +0.112 C 
ATOM      9  C   UNL     1       1.310  -2.985   3.086  0.00  0.00    +0.122 C 
ATOM     10  C   UNL     1       1.151  -1.903   4.117  0.00  0.00    +0.220 C 
ATOM     11  O   UNL     1       2.107  -1.210   4.394  0.00  0.00    -0.275 OA
ATOM     12  N   UNL     1      -0.024  -1.677   4.743  0.00  0.00    -0.270 N 
ATOM     13  C   UNL     1      -1.161  -2.335   4.278  0.00  0.00    +0.133 A 
ATOM     14  C   UNL     1      -1.161  -3.024   3.092  0.00  0.00    +0.032 A 
ATOM     15  C   UNL     1      -2.427  -3.563   2.912  0.00  0.00    +0.141 A 
ATOM     16  N   UNL     1      -3.173  -3.214   3.934  0.00  0.00    -0.173 NA
ATOM     17  N   UNL     1      -2.398  -2.432   4.805  0.00  0.00    -0.218 N 
ATOM     18  C   UNL     1       0.074  -4.424   1.467  0.00  0.00    +0.236 C 
ATOM     19  O   UNL     1       0.093  -5.534   1.955  0.00  0.00    -0.274 OA
ATOM     20  N   UNL     1       0.060  -4.125   0.151  0.00  0.00    -0.266 N 
ATOM     21  H   UNL     1      -0.075  -1.071   5.499  0.00  0.00    +0.156 HD
ENDROOT
BRANCH  17  22
ATOM     22  C   UNL     1      -2.832  -1.855   6.006  0.00  0.00    +0.069 A 
ATOM     23  C   UNL     1      -1.960  -1.749   7.082  0.00  0.00    +0.028 A 
ATOM     24  C   UNL     1      -2.390  -1.180   8.265  0.00  0.00    +0.003 A 
ATOM     25  C   UNL     1      -3.688  -0.717   8.379  0.00  0.00    +0.020 A 
ATOM     26  C   UNL     1      -4.560  -0.822   7.310  0.00  0.00    +0.043 A 
ATOM     27  C   UNL     1      -4.133  -1.384   6.121  0.00  0.00    +0.047 A 
ATOM     28 CL   UNL     1      -6.189  -0.239   7.458  0.00  0.00    -0.083 Cl
ENDBRANCH  17  22
BRANCH  20  29
ATOM     29  C   UNL     1       0.067  -5.128  -0.917  0.00  0.00    +0.140 C 
BRANCH  29  30
ATOM     30  C   UNL     1       1.489  -5.452  -1.293  0.00  0.00    -0.015 C 
ATOM     31  C   UNL     1       1.907  -6.694  -1.266  0.00  0.00    +0.005 C 
ENDBRANCH  29  30
ENDBRANCH  20  29
TORSDOF 3
