REMARK  Name = ZINC34787212
REMARK  10 active torsions:
REMARK  status: ('A' for Active; 'I' for Inactive)
REMARK    1  A    between atoms: C_1  and  C_2
REMARK    2  A    between atoms: C_2  and  C_3
REMARK    3  A    between atoms: C_4  and  C_29
REMARK    4  A    between atoms: C_8  and  N_19
REMARK    5  A    between atoms: C_13  and  C_18
REMARK    6  A    between atoms: C_15  and  C_17
REMARK    7  A    between atoms: N_19  and  N_20
REMARK    8  A    between atoms: N_19  and  N_26
REMARK    9  A    between atoms: N_26  and  C_27
REMARK   10  A    between atoms: N_26  and  C_28
REMARK                            x       y       z     vdW  Elec       q    Type
REMARK                         _______ _______ _______ _____ _____    ______ ____
ROOT
ATOM      1  C   UNL     1      -2.531  -0.870  -0.715  0.00  0.00    -0.025 A 
ATOM      2  C   UNL     1      -3.550  -1.103   0.126  0.00  0.00    -0.007 A 
ATOM      3  S   UNL     1      -4.369  -2.514  -0.592  0.00  0.00    -0.073 S 
ATOM      4  C   UNL     1      -3.321  -2.753  -2.003  0.00  0.00    +0.116 A 
ATOM      5  C   UNL     1      -2.364  -1.722  -1.879  0.00  0.00    +0.054 A 
ATOM      6  C   UNL     1      -1.380  -1.675  -2.906  0.00  0.00    +0.164 A 
ATOM      7  N   UNL     1      -1.422  -2.565  -3.883  0.00  0.00    -0.192 NA
ATOM      8  C   UNL     1      -2.355  -3.506  -3.941  0.00  0.00    +0.254 A 
ATOM      9  N   UNL     1      -3.289  -3.605  -3.008  0.00  0.00    -0.203 NA
ATOM     10  N   UNL     1      -2.345  -4.415  -4.998  0.00  0.00    -0.202 N 
ATOM     11  C   UNL     1      -3.232  -5.425  -5.195  0.00  0.00    +0.045 A 
ATOM     12  C   UNL     1      -2.874  -6.071  -6.328  0.00  0.00    +0.048 A 
ATOM     13  C   UNL     1      -1.735  -5.440  -6.842  0.00  0.00    +0.061 A 
ATOM     14  N   UNL     1      -1.421  -4.447  -6.051  0.00  0.00    -0.169 NA
ATOM     15  C   UNL     1      -0.999  -5.834  -8.097  0.00  0.00    +0.067 C 
ATOM     16  C   UNL     1      -4.404  -5.765  -4.310  0.00  0.00    +0.066 C 
ATOM     17  C   UNL     1      -3.914  -0.350   1.380  0.00  0.00    +0.052 C 
ENDROOT
BRANCH   1  19
ATOM     18  C   UNL     1      -2.187   1.573  -0.969  0.00  0.00    +0.009 C 
ATOM     19  C   UNL     1      -1.575   0.267  -0.458  0.00  0.00    +0.033 C 
ENDBRANCH   1  19
BRANCH   6  20
ATOM     20  N   UNL     1      -0.391  -0.709  -2.882  0.00  0.00    -0.176 N 
BRANCH  20  21
ATOM     21  N   UNL     1      -0.412   0.313  -3.789  0.00  0.00    -0.206 NA
ATOM     22  C   UNL     1       0.490   0.035  -4.917  0.00  0.00    +0.135 C 
ATOM     23  C   UNL     1       0.390   1.173  -5.935  0.00  0.00    +0.177 C 
ATOM     24  O   UNL     1       0.697   2.412  -5.290  0.00  0.00    -0.377 OA
ATOM     25  C   UNL     1      -0.162   2.715  -4.187  0.00  0.00    +0.177 C 
ATOM     26  C   UNL     1      -0.068   1.591  -3.151  0.00  0.00    +0.135 C 
ENDBRANCH  20  21
BRANCH  20  27
ATOM     27  N   UNL     1       0.607  -0.775  -1.952  0.00  0.00    -0.217 NA
ATOM     28  C   UNL     1       0.364  -1.865  -0.997  0.00  0.00    +0.129 C 
ATOM     29  C   UNL     1       1.919  -0.924  -2.597  0.00  0.00    +0.129 C 
ENDBRANCH  20  27
ENDBRANCH   6  20
TORSDOF 4
