REMARK  Name = ZINC40386901
REMARK  4 active torsions:
REMARK  status: ('A' for Active; 'I' for Inactive)
REMARK    1  A    between atoms: C_1  and  C_2
REMARK    2  A    between atoms: C_5  and  N_9
REMARK    3  A    between atoms: C_6  and  C_8
REMARK    4  A    between atoms: C_10  and  C_31
REMARK                            x       y       z     vdW  Elec       q    Type
REMARK                         _______ _______ _______ _____ _____    ______ ____
ROOT
ATOM      1  N   UNL     1       0.060  -4.171  -0.034  0.00  0.00    -0.291 N 
ATOM      2  C   UNL     1      -1.109  -4.859  -0.049  0.00  0.00    +0.114 A 
ATOM      3  N   UNL     1      -1.157  -6.162  -0.056  0.00  0.00    -0.214 NA
ATOM      4  C   UNL     1      -0.030  -6.898  -0.049  0.00  0.00    +0.173 A 
ATOM      5  C   UNL     1       1.219  -6.238  -0.034  0.00  0.00    +0.115 A 
ATOM      6  C   UNL     1       1.243  -4.825  -0.031  0.00  0.00    +0.109 A 
ATOM      7  S   UNL     1       2.725  -3.968  -0.019  0.00  0.00    -0.031 S 
ATOM      8  C   UNL     1       2.403  -7.013  -0.027  0.00  0.00    +0.264 A 
ATOM      9  N   UNL     1       2.281  -8.360  -0.035  0.00  0.00    -0.294 N 
ATOM     10  C   UNL     1       1.049  -8.941  -0.049  0.00  0.00    +0.200 A 
ATOM     11  N   UNL     1      -0.062  -8.236  -0.056  0.00  0.00    -0.196 NA
ATOM     12  N   UNL     1       0.964 -10.306  -0.058  0.00  0.00    -0.296 N 
ATOM     13  C   UNL     1      -0.334 -10.993   0.042  0.00  0.00    +0.113 C 
ATOM     14  C   UNL     1      -0.564 -11.756  -1.261  0.00  0.00    +0.054 C 
ATOM     15  C   UNL     1       0.662 -12.543  -1.644  0.00  0.00    -0.041 A 
ATOM     16  C   UNL     1       0.498 -13.600  -2.532  0.00  0.00    +0.004 A 
ATOM     17  C   UNL     1       1.580 -14.355  -2.932  0.00  0.00    +0.000 A 
ATOM     18  C   UNL     1       2.841 -14.060  -2.447  0.00  0.00    +0.000 A 
ATOM     19  C   UNL     1       3.007 -13.014  -1.563  0.00  0.00    +0.005 A 
ATOM     20  C   UNL     1       1.917 -12.256  -1.156  0.00  0.00    -0.027 A 
ATOM     21  C   UNL     1       2.162 -11.144  -0.173  0.00  0.00    +0.143 C 
ATOM     22  O   UNL     1       3.499  -6.482  -0.014  0.00  0.00    -0.267 OA
ATOM     23  C   UNL     1      -2.404  -4.087  -0.058  0.00  0.00    +0.086 C 
ATOM     24  H   UNL     1       3.076  -8.916  -0.031  0.00  0.00    +0.172 HD
ENDROOT
BRANCH   1  29
ATOM     25  C   UNL     1      -0.018   1.503  -0.007  0.00  0.00    +0.044 C 
ATOM     26  C   UNL     1       0.002  -0.004  -0.014  0.00  0.00    -0.050 A 
ATOM     27  C   UNL     1       0.018  -0.688  -1.216  0.00  0.00    +0.005 A 
ATOM     28  C   UNL     1       0.037  -2.069  -1.226  0.00  0.00    +0.027 A 
ATOM     29  C   UNL     1       0.041  -2.771  -0.028  0.00  0.00    +0.052 A 
ATOM     30  C   UNL     1       0.025  -2.081   1.177  0.00  0.00    -0.026 A 
ATOM     31  C   UNL     1       0.011  -0.699   1.181  0.00  0.00    +0.008 A 
ATOM     32  C   UNL     1       0.028  -2.838   2.480  0.00  0.00    +0.046 C 
ENDBRANCH   1  29
TORSDOF 1
