REMARK  Name = ZINC08757944
REMARK  16 active torsions:
REMARK  status: ('A' for Active; 'I' for Inactive)
REMARK    1  A    between atoms: C_1  and  C_2
REMARK    2  A    between atoms: C_4  and  C_36
REMARK    3  A    between atoms: N_14  and  C_15
REMARK    4  A    between atoms: C_15  and  C_16
REMARK    5  A    between atoms: C_16  and  N_17
REMARK    6  A    between atoms: N_17  and  S_18
REMARK    7  A    between atoms: S_18  and  C_21
REMARK    8  A    between atoms: C_22  and  C_33
REMARK    9  A    between atoms: C_24  and  C_30
REMARK   10  A    between atoms: C_26  and  C_27
REMARK   11  A    between atoms: C_27  and  C_28
REMARK   12  A    between atoms: C_27  and  C_29
REMARK   13  A    between atoms: C_30  and  C_31
REMARK   14  A    between atoms: C_30  and  C_32
REMARK   15  A    between atoms: C_33  and  C_34
REMARK   16  A    between atoms: C_33  and  C_35
REMARK                            x       y       z     vdW  Elec       q    Type
REMARK                         _______ _______ _______ _____ _____    ______ ____
ROOT
ATOM      1  N   UNL     1       3.664  -4.340  -2.127  0.00  0.00    -0.188 NA
ATOM      2  H   UNL     1       2.779  -3.957  -2.024  0.00  0.00    +0.148 HD
ENDROOT
BRANCH   1   3
ATOM      3  S   UNL     1       4.995  -3.354  -2.141  0.00  0.00    +0.059 S 
ATOM      4  O   UNL     1       4.516  -2.023  -2.012  0.00  0.00    -0.153 OA
ATOM      5  O   UNL     1       5.929  -3.920  -1.231  0.00  0.00    -0.153 OA
BRANCH   3   6
ATOM      6  C   UNL     1       5.717  -3.477  -3.744  0.00  0.00    +0.112 A 
ATOM      7  C   UNL     1       5.195  -2.745  -4.795  0.00  0.00    -0.018 A 
ATOM      8  C   UNL     1       5.763  -2.838  -6.051  0.00  0.00    +0.009 A 
ATOM      9  C   UNL     1       6.848  -3.669  -6.259  0.00  0.00    -0.044 A 
ATOM     10  C   UNL     1       7.367  -4.404  -5.210  0.00  0.00    +0.009 A 
ATOM     11  C   UNL     1       6.801  -4.309  -3.953  0.00  0.00    -0.018 A 
BRANCH  11  12
ATOM     12  C   UNL     1       7.366  -5.110  -2.809  0.00  0.00    +0.015 C 
ATOM     13  C   UNL     1       7.966  -6.412  -3.345  0.00  0.00    +0.012 C 
ATOM     14  C   UNL     1       8.456  -4.298  -2.106  0.00  0.00    +0.012 C 
ENDBRANCH  11  12
BRANCH   9  15
ATOM     15  C   UNL     1       7.465  -3.774  -7.630  0.00  0.00    +0.013 C 
ATOM     16  C   UNL     1       6.416  -4.278  -8.624  0.00  0.00    +0.012 C 
ATOM     17  C   UNL     1       7.965  -2.397  -8.072  0.00  0.00    +0.012 C 
ENDBRANCH   9  15
BRANCH   7  18
ATOM     18  C   UNL     1       4.009  -1.843  -4.569  0.00  0.00    +0.015 C 
ATOM     19  C   UNL     1       4.443  -0.384  -4.718  0.00  0.00    +0.012 C 
ATOM     20  C   UNL     1       2.924  -2.160  -5.599  0.00  0.00    +0.012 C 
ENDBRANCH   7  18
ENDBRANCH   3   6
ENDBRANCH   1   3
BRANCH   1  21
ATOM     21  C   UNL     1       3.824  -5.789  -2.269  0.00  0.00    +0.127 C 
BRANCH  21  22
ATOM     22  C   UNL     1       2.527  -6.488  -1.856  0.00  0.00    +0.140 C 
BRANCH  22  36
ATOM     23  C   UNL     1       3.618 -12.553  -1.217  0.00  0.00    +0.044 C 
ATOM     24  C   UNL     1       3.590 -11.136  -0.703  0.00  0.00    -0.038 A 
ATOM     25  C   UNL     1       3.990 -10.840   0.589  0.00  0.00    +0.027 A 
ATOM     26  C   UNL     1       3.951  -9.527   1.025  0.00  0.00    +0.041 A 
ATOM     27  N   UNL     1       3.542  -8.553   0.239  0.00  0.00    -0.234 NA
ATOM     28  C   UNL     1       3.147  -8.779  -1.008  0.00  0.00    +0.142 A 
ATOM     29  C   UNL     1       3.161 -10.089  -1.516  0.00  0.00    +0.030 A 
ATOM     30  C   UNL     1       2.674 -10.008  -2.904  0.00  0.00    +0.009 A 
ATOM     31  C   UNL     1       2.467 -10.953  -3.906  0.00  0.00    +0.010 A 
ATOM     32  C   UNL     1       1.989 -10.553  -5.135  0.00  0.00    +0.001 A 
ATOM     33  C   UNL     1       1.715  -9.216  -5.377  0.00  0.00    +0.002 A 
ATOM     34  C   UNL     1       1.916  -8.271  -4.394  0.00  0.00    +0.026 A 
ATOM     35  C   UNL     1       2.397  -8.654  -3.146  0.00  0.00    +0.051 A 
ATOM     36  N   UNL     1       2.687  -7.937  -1.999  0.00  0.00    -0.324 N 
ATOM     37  C   UNL     1       4.387  -9.205   2.431  0.00  0.00    +0.065 C 
ENDBRANCH  22  36
ENDBRANCH  21  22
ENDBRANCH   1  21
TORSDOF 8
