REMARK  Name = ZINC10048584
REMARK  9 active torsions:
REMARK  status: ('A' for Active; 'I' for Inactive)
REMARK    1  A    between atoms: C_1  and  C_2
REMARK    2  A    between atoms: N_9  and  C_10
REMARK    3  A    between atoms: N_17  and  C_35
REMARK    4  A    between atoms: N_20  and  C_23
REMARK    5  A    between atoms: C_23  and  C_24
REMARK    6  A    between atoms: C_24  and  C_26
REMARK    7  A    between atoms: C_24  and  C_27
REMARK    8  A    between atoms: C_27  and  N_28
REMARK    9  A    between atoms: N_28  and  C_29
REMARK                            x       y       z     vdW  Elec       q    Type
REMARK                         _______ _______ _______ _____ _____    ______ ____
ROOT
ATOM      1  C   UNL     1      12.048  -4.396   5.591  0.00  0.00    +0.065 C 
ATOM      2  C   UNL     1      11.648  -3.962   4.205  0.00  0.00    +0.040 A 
ATOM      3  C   UNL     1      10.663  -3.120   3.905  0.00  0.00    +0.116 A 
ATOM      4  N   UNL     1      10.614  -2.978   2.530  0.00  0.00    -0.277 N 
ATOM      5  C   UNL     1       9.959  -2.357   1.477  0.00  0.00    +0.157 A 
ATOM      6  C   UNL     1      10.587  -2.794   0.312  0.00  0.00    +0.170 A 
ATOM      7  N   UNL     1      11.559  -3.629   0.671  0.00  0.00    -0.193 NA
ATOM      8  C   UNL     1      11.587  -3.749   1.990  0.00  0.00    +0.223 A 
ATOM      9  N   UNL     1      12.242  -4.369   3.024  0.00  0.00    -0.283 N 
ATOM     10  N   UNL     1      10.130  -2.324  -0.910  0.00  0.00    -0.279 N 
ATOM     11  C   UNL     1       9.097  -1.462  -0.956  0.00  0.00    +0.333 A 
ATOM     12  O   UNL     1       8.707  -1.059  -2.035  0.00  0.00    -0.246 OA
ATOM     13  N   UNL     1       8.485  -1.034   0.163  0.00  0.00    -0.259 N 
ATOM     14  C   UNL     1       8.889  -1.452   1.380  0.00  0.00    +0.283 A 
ATOM     15  O   UNL     1       8.328  -1.052   2.385  0.00  0.00    -0.265 OA
ATOM     16  C   UNL     1      10.770  -2.766  -2.151  0.00  0.00    +0.155 C 
ENDROOT
BRANCH   9  17
ATOM     17  C   UNL     1      13.319  -5.256   2.905  0.00  0.00    +0.050 A 
ATOM     18  C   UNL     1      14.533  -4.813   2.396  0.00  0.00    +0.027 A 
ATOM     19  C   UNL     1      15.595  -5.688   2.285  0.00  0.00    +0.022 A 
ATOM     20  C   UNL     1      15.448  -7.009   2.670  0.00  0.00    +0.041 A 
ATOM     21  C   UNL     1      14.238  -7.455   3.172  0.00  0.00    +0.022 A 
ATOM     22  C   UNL     1      13.174  -6.583   3.290  0.00  0.00    +0.027 A 
ATOM     23 CL   UNL     1      16.783  -8.109   2.522  0.00  0.00    -0.084 Cl
ENDBRANCH   9  17
BRANCH  13  24
ATOM     24  C   UNL     1       7.366  -0.095   0.058  0.00  0.00    +0.134 C 
BRANCH  24  25
ATOM     25  C   UNL     1       6.055  -0.875  -0.060  0.00  0.00    +0.023 C 
ATOM     26  C   UNL     1       6.046  -1.663  -1.371  0.00  0.00    +0.011 C 
BRANCH  25  27
ATOM     27  C   UNL     1       4.877   0.102  -0.044  0.00  0.00    +0.106 C 
BRANCH  27  28
ATOM     28  N   UNL     1       3.620  -0.649  -0.036  0.00  0.00    -0.344 N 
ATOM     29  H   UNL     1       3.634  -1.619  -0.041  0.00  0.00    +0.146 HD
BRANCH  28  30
ATOM     30  C   UNL     1       2.400   0.031  -0.021  0.00  0.00    +0.027 A 
ATOM     31  C   UNL     1       1.206  -0.680  -0.013  0.00  0.00    +0.023 A 
ATOM     32  C   UNL     1       0.002  -0.004   0.002  0.00  0.00    +0.002 A 
ATOM     33  C   UNL     1      -0.017   1.379   0.010  0.00  0.00    +0.000 A 
ATOM     34  C   UNL     1       1.169   2.089   0.002  0.00  0.00    +0.002 A 
ATOM     35  C   UNL     1       2.377   1.420  -0.013  0.00  0.00    +0.023 A 
ENDBRANCH  28  30
ENDBRANCH  27  28
ENDBRANCH  25  27
ENDBRANCH  24  25
ENDBRANCH  13  24
TORSDOF 6
