REMARK  Name = ZINC12814672
REMARK  9 active torsions:
REMARK  status: ('A' for Active; 'I' for Inactive)
REMARK    1  A    between atoms: C_1  and  C_2
REMARK    2  A    between atoms: C_5  and  C_8
REMARK    3  A    between atoms: C_8  and  C_10
REMARK    4  A    between atoms: C_8  and  N_16
REMARK    5  A    between atoms: C_17  and  C_19
REMARK    6  A    between atoms: C_19  and  C_20
REMARK    7  A    between atoms: C_20  and  S_21
REMARK    8  A    between atoms: S_21  and  C_22
REMARK    9  A    between atoms: C_22  and  C_23
REMARK                            x       y       z     vdW  Elec       q    Type
REMARK                         _______ _______ _______ _____ _____    ______ ____
ROOT
ATOM      1  N   UNL     1       1.356   2.010  -0.000  0.00  0.00    -0.304 N 
ATOM      2  C   UNL     1       2.035   2.141   1.157  0.00  0.00    +0.215 C 
ATOM      3  O   UNL     1       1.507   1.840   2.207  0.00  0.00    -0.276 OA
ATOM      4  H   UNL     1       1.778   2.251  -0.840  0.00  0.00    +0.150 HD
ENDROOT
BRANCH   1   5
ATOM      5  C   UNL     1      -0.018   1.503   0.010  0.00  0.00    +0.134 C 
BRANCH   5  10
ATOM      6  C   UNL     1      -2.813   3.417  -4.671  0.00  0.00    +0.044 C 
ATOM      7  C   UNL     1      -2.084   2.918  -3.450  0.00  0.00    -0.050 A 
ATOM      8  C   UNL     1      -2.733   2.868  -2.231  0.00  0.00    +0.004 A 
ATOM      9  C   UNL     1      -2.064   2.410  -1.111  0.00  0.00    +0.006 A 
ATOM     10  C   UNL     1      -0.747   2.002  -1.211  0.00  0.00    -0.023 A 
ATOM     11  C   UNL     1      -0.097   2.057  -2.429  0.00  0.00    +0.006 A 
ATOM     12  C   UNL     1      -0.767   2.511  -3.550  0.00  0.00    +0.004 A 
ENDBRANCH   5  10
BRANCH   5  13
ATOM     13  C   UNL     1       0.002  -0.004   0.002  0.00  0.00    -0.023 A 
ATOM     14  C   UNL     1       0.917  -0.679  -0.784  0.00  0.00    +0.006 A 
ATOM     15  C   UNL     1       0.939  -2.061  -0.788  0.00  0.00    +0.000 A 
ATOM     16  C   UNL     1       0.039  -2.768  -0.014  0.00  0.00    +0.000 A 
ATOM     17  C   UNL     1      -0.879  -2.094   0.769  0.00  0.00    +0.000 A 
ATOM     18  C   UNL     1      -0.898  -0.712   0.776  0.00  0.00    +0.006 A 
ENDBRANCH   5  13
ENDBRANCH   1   5
BRANCH   2  19
ATOM     19  C   UNL     1       3.448   2.663   1.146  0.00  0.00    +0.106 C 
BRANCH  19  20
ATOM     20  C   UNL     1       3.984   2.714   2.579  0.00  0.00    +0.079 C 
BRANCH  20  21
ATOM     21  S   UNL     1       5.686   3.342   2.566  0.00  0.00    -0.153 S 
BRANCH  21  22
ATOM     22  C   UNL     1       6.167   3.340   4.315  0.00  0.00    +0.143 C 
BRANCH  22  23
ATOM     23  C   UNL     1       7.580   3.847   4.447  0.00  0.00    +0.121 A 
ATOM     24  N   UNL     1       8.146   3.929   5.679  0.00  0.00    -0.310 N 
ATOM     25  H   UNL     1       7.632   3.661   6.457  0.00  0.00    +0.170 HD
ATOM     26  C   UNL     1       9.406   4.376   5.842  0.00  0.00    +0.260 A 
ATOM     27  O   UNL     1       9.900   4.446   6.954  0.00  0.00    -0.267 OA
ATOM     28  C   UNL     1      10.153   4.769   4.685  0.00  0.00    +0.075 A 
ATOM     29  C   UNL     1      11.530   5.283   4.626  0.00  0.00    -0.023 A 
ATOM     30  C   UNL     1      12.015   5.583   3.409  0.00  0.00    -0.004 A 
ATOM     31  S   UNL     1      10.691   5.211   2.283  0.00  0.00    -0.073 S 
ATOM     32  C   UNL     1       9.488   4.649   3.458  0.00  0.00    +0.116 A 
ATOM     33  N   UNL     1       8.240   4.194   3.374  0.00  0.00    -0.226 NA
ATOM     34  C   UNL     1      13.430   6.093   3.472  0.00  0.00    +0.043 C 
ATOM     35  C   UNL     1      13.933   5.670   4.870  0.00  0.00    +0.010 C 
ATOM     36  C   UNL     1      12.615   5.584   5.664  0.00  0.00    +0.037 C 
ENDBRANCH  22  23
ENDBRANCH  21  22
ENDBRANCH  20  21
ENDBRANCH  19  20
ENDBRANCH   2  19
TORSDOF 8
