REMARK  Name = ZINC09452620
REMARK  14 active torsions:
REMARK  status: ('A' for Active; 'I' for Inactive)
REMARK    1  A    between atoms: C_1  and  C_2
REMARK    2  A    between atoms: C_2  and  N_67
REMARK    3  A    between atoms: C_3  and  C_4
REMARK    4  A    between atoms: C_3  and  N_67
REMARK    5  A    between atoms: C_5  and  C_6
REMARK    6  A    between atoms: C_5  and  N_67
REMARK    7  A    between atoms: C_6  and  C_7
REMARK    8  A    between atoms: C_7  and  N_8
REMARK    9  A    between atoms: C_9  and  C_29
REMARK   10  A    between atoms: C_11  and  C_16
REMARK   11  A    between atoms: C_12  and  O_15
REMARK   12  A    between atoms: C_16  and  C_18
REMARK   13  A    between atoms: C_25  and  C_28
REMARK   14  A    between atoms: C_33  and  N_35
REMARK                            x       y       z     vdW  Elec       q    Type
REMARK                         _______ _______ _______ _____ _____    ______ ____
ROOT
ATOM      1  N   UNL     1       0.369  -2.151  -0.522  0.00  0.00    -0.284 N 
ATOM      2  C   UNL     1      -0.292  -0.868  -0.787  0.00  0.00    +0.145 C 
ATOM      3  C   UNL     1       0.813   0.147  -0.965  0.00  0.00    +0.071 C 
ATOM      4  C   UNL     1       1.982  -0.519  -0.816  0.00  0.00    +0.188 C 
ATOM      5  C   UNL     1       1.698  -1.942  -0.537  0.00  0.00    +0.282 C 
ATOM      6  O   UNL     1       2.541  -2.798  -0.351  0.00  0.00    -0.267 OA
ENDROOT
BRANCH   2   7
ATOM      7  C   UNL     1      -1.166  -0.483   0.378  0.00  0.00    -0.020 A 
ATOM      8  C   UNL     1      -0.709  -0.656   1.672  0.00  0.00    +0.006 A 
ATOM      9  C   UNL     1      -1.509  -0.298   2.741  0.00  0.00    +0.003 A 
ATOM     10  C   UNL     1      -2.771   0.221   2.517  0.00  0.00    +0.033 A 
ATOM     11  C   UNL     1      -3.229   0.389   1.224  0.00  0.00    +0.127 A 
ATOM     12  C   UNL     1      -2.427   0.037   0.155  0.00  0.00    +0.038 A 
BRANCH  11  13
ATOM     13  N   UNL     1      -4.580   0.946   0.984  0.00  0.00    +0.056 N 
ATOM     14  O   UNL     1      -5.020   1.010  -0.150  0.00  0.00    -0.126 OA
ATOM     15  O   UNL     1      -5.252   1.339   1.921  0.00  0.00    -0.126 OA
ENDBRANCH  11  13
ENDBRANCH   2   7
BRANCH   4  16
ATOM     16  O   UNL     1       3.215   0.032  -0.906  0.00  0.00    -0.502 OA
ATOM     17  H   UNL     1       3.907  -0.674  -0.757  0.00  0.00    +0.292 HD
ENDBRANCH   4  16
BRANCH   3  18
ATOM     18  C   UNL     1       0.651   1.576  -1.250  0.00  0.00    +0.195 C 
ATOM     19  O   UNL     1       0.991   2.404  -0.425  0.00  0.00    -0.287 OA
BRANCH  18  20
ATOM     20  C   UNL     1       0.074   2.011  -2.537  0.00  0.00    +0.023 A 
ATOM     21  C   UNL     1      -0.239   1.070  -3.523  0.00  0.00    +0.015 A 
ATOM     22  C   UNL     1      -0.767   1.478  -4.725  0.00  0.00    +0.046 A 
ATOM     23  C   UNL     1      -1.006   2.832  -4.969  0.00  0.00    +0.124 A 
ATOM     24  C   UNL     1      -0.698   3.764  -3.982  0.00  0.00    -0.002 A 
ATOM     25  C   UNL     1      -0.163   3.368  -2.781  0.00  0.00    +0.019 A 
ATOM     26  C   UNL     1      -1.072   5.128  -4.527  0.00  0.00    +0.083 C 
ATOM     27  C   UNL     1      -1.970   4.755  -5.730  0.00  0.00    +0.175 C 
ATOM     28  O   UNL     1      -1.508   3.439  -6.078  0.00  0.00    -0.488 OA
ATOM     29  C   UNL     1      -3.443   4.721  -5.317  0.00  0.00    +0.052 C 
ENDBRANCH  18  20
ENDBRANCH   3  18
BRANCH   1  30
ATOM     30  C   UNL     1      -0.300  -3.432  -0.284  0.00  0.00    +0.107 C 
BRANCH  30  31
ATOM     31  C   UNL     1      -0.504  -4.157  -1.616  0.00  0.00    +0.000 C 
BRANCH  31  32
ATOM     32  C   UNL     1      -1.203  -5.495  -1.367  0.00  0.00    -0.077 C 
BRANCH  32  33
ATOM     33  N   UNL     1      -1.412  -6.172  -2.664  0.00  0.00    +0.379 N 
ATOM     34  H   UNL     1      -1.876  -5.521  -3.308  0.00  0.00    -0.082 HD
BRANCH  33  36
ATOM     35  C   UNL     1       0.615  -7.541  -2.304  0.00  0.00    -0.017 C 
ATOM     36  C   UNL     1      -0.112  -6.573  -3.240  0.00  0.00    -0.082 C 
ENDBRANCH  33  36
BRANCH  33  37
ATOM     37  C   UNL     1      -2.272  -7.361  -2.480  0.00  0.00    -0.082 C 
ATOM     38  C   UNL     1      -2.691  -7.883  -3.856  0.00  0.00    -0.017 C 
ENDBRANCH  33  37
ENDBRANCH  32  33
ENDBRANCH  31  32
ENDBRANCH  30  31
ENDBRANCH   1  30
TORSDOF 11
