REMARK  Name = ZINC36579642
REMARK  15 active torsions:
REMARK  status: ('A' for Active; 'I' for Inactive)
REMARK    1  A    between atoms: C_1  and  C_2
REMARK    2  A    between atoms: C_5  and  S_8
REMARK    3  A    between atoms: S_8  and  C_11
REMARK    4  A    between atoms: C_11  and  N_12
REMARK    5  A    between atoms: C_13  and  C_15
REMARK    6  A    between atoms: C_15  and  C_17
REMARK    7  A    between atoms: C_15  and  N_24
REMARK    8  A    between atoms: C_20  and  O_23
REMARK    9  A    between atoms: N_24  and  C_35
REMARK   10  A    between atoms: C_25  and  C_27
REMARK   11  A    between atoms: C_32  and  O_33
REMARK   12  A    between atoms: O_33  and  C_34
REMARK   13  A    between atoms: C_35  and  C_36
REMARK   14  A    between atoms: C_35  and  C_37
REMARK   15  A    between atoms: C_35  and  C_38
REMARK                            x       y       z     vdW  Elec       q    Type
REMARK                         _______ _______ _______ _____ _____    ______ ____
ROOT
ATOM      1  C   UNL     1       2.070  -7.973   3.711  0.00  0.00    +0.193 C 
ENDROOT
BRANCH   1   2
ATOM      2  C   UNL     1       1.247  -6.853   3.128  0.00  0.00    -0.018 A 
ATOM      3  C   UNL     1       0.576  -5.981   3.966  0.00  0.00    +0.009 A 
ATOM      4  C   UNL     1      -0.180  -4.954   3.434  0.00  0.00    +0.046 A 
ATOM      5  C   UNL     1      -0.265  -4.798   2.058  0.00  0.00    +0.117 A 
ATOM      6  C   UNL     1       0.409  -5.674   1.220  0.00  0.00    +0.046 A 
ATOM      7  C   UNL     1       1.167  -6.697   1.757  0.00  0.00    +0.009 A 
BRANCH   5   8
ATOM      8  O   UNL     1      -1.008  -3.789   1.533  0.00  0.00    -0.507 OA
ATOM      9  H   UNL     1      -0.516  -2.968   1.397  0.00  0.00    +0.292 HD
ENDBRANCH   5   8
ENDBRANCH   1   2
BRANCH   1  11
ATOM     10  N   UNL     1       0.818  -9.605   2.337  0.00  0.00    -0.294 N 
ATOM     11  C   UNL     1       1.337  -9.278   3.537  0.00  0.00    +0.239 C 
ATOM     12  O   UNL     1       1.216 -10.035   4.477  0.00  0.00    -0.273 OA
ATOM     13  H   UNL     1       0.915  -8.999   1.586  0.00  0.00    +0.150 HD
BRANCH  10  14
ATOM     14  C   UNL     1       0.105 -10.874   2.168  0.00  0.00    +0.278 C 
BRANCH  14  15
ATOM     15  S   UNL     1      -1.675 -10.601   2.381  0.00  0.00    +0.013 S 
ATOM     16  O   UNL     1      -1.916  -9.824   3.547  0.00  0.00    -0.168 OA
ATOM     17  O   UNL     1      -2.386 -11.811   2.158  0.00  0.00    -0.168 OA
BRANCH  15  22
ATOM     18  C   UNL     1      -3.257  -7.018  -2.209  0.00  0.00    +0.044 C 
ATOM     19  C   UNL     1      -2.862  -7.913  -1.062  0.00  0.00    -0.050 A 
ATOM     20  C   UNL     1      -2.908  -9.287  -1.210  0.00  0.00    +0.005 A 
ATOM     21  C   UNL     1      -2.545 -10.107  -0.159  0.00  0.00    +0.027 A 
ATOM     22  C   UNL     1      -2.136  -9.555   1.040  0.00  0.00    +0.090 A 
ATOM     23  C   UNL     1      -2.090  -8.181   1.188  0.00  0.00    +0.027 A 
ATOM     24  C   UNL     1      -2.448  -7.360   0.135  0.00  0.00    +0.005 A 
ENDBRANCH  15  22
ENDBRANCH  14  15
ENDBRANCH  10  14
ENDBRANCH   1  11
BRANCH   1  25
ATOM     25  N   UNL     1       2.292  -7.724   5.138  0.00  0.00    -0.277 N 
ATOM     26  C   UNL     1       1.419  -8.196   6.048  0.00  0.00    +0.251 C 
ATOM     27  O   UNL     1       0.236  -8.268   5.776  0.00  0.00    -0.270 OA
BRANCH  26  28
ATOM     28  C   UNL     1       1.897  -8.627   7.376  0.00  0.00    +0.078 A 
ATOM     29  C   UNL     1       3.154  -8.224   7.835  0.00  0.00    +0.017 A 
ATOM     30  C   UNL     1       3.595  -8.629   9.075  0.00  0.00    +0.001 A 
ATOM     31  C   UNL     1       2.798  -9.435   9.871  0.00  0.00    +0.004 A 
ATOM     32  C   UNL     1       1.554  -9.841   9.431  0.00  0.00    +0.046 A 
ATOM     33  C   UNL     1       1.092  -9.439   8.186  0.00  0.00    +0.132 A 
BRANCH  33  34
ATOM     34  O   UNL     1      -0.132  -9.832   7.754  0.00  0.00    -0.494 OA
ATOM     35  C   UNL     1      -0.896 -10.659   8.634  0.00  0.00    +0.277 C 
ENDBRANCH  33  34
ENDBRANCH  26  28
BRANCH  25  36
ATOM     36  C   UNL     1       3.465  -6.961   5.574  0.00  0.00    +0.030 C 
ATOM     37  C   UNL     1       3.858  -5.963   4.484  0.00  0.00    +0.031 C 
ATOM     38  C   UNL     1       3.131  -6.205   6.862  0.00  0.00    +0.031 C 
ATOM     39  C   UNL     1       4.629  -7.919   5.833  0.00  0.00    +0.031 C 
ENDBRANCH  25  36
ENDBRANCH   1  25
TORSDOF 10
