REMARK  Name = ZINC20551697
REMARK  12 active torsions:
REMARK  status: ('A' for Active; 'I' for Inactive)
REMARK    1  A    between atoms: C_1  and  C_2
REMARK    2  A    between atoms: C_2  and  C_36
REMARK    3  A    between atoms: C_7  and  C_35
REMARK    4  A    between atoms: C_8  and  N_11
REMARK    5  A    between atoms: N_11  and  C_12
REMARK    6  A    between atoms: C_12  and  N_22
REMARK    7  A    between atoms: C_13  and  C_14
REMARK    8  A    between atoms: C_13  and  N_19
REMARK    9  A    between atoms: N_22  and  C_23
REMARK   10  A    between atoms: C_30  and  C_34
REMARK   11  A    between atoms: C_31  and  C_32
REMARK   12  A    between atoms: C_31  and  C_33
REMARK                            x       y       z     vdW  Elec       q    Type
REMARK                         _______ _______ _______ _____ _____    ______ ____
ROOT
ATOM      1  C   UNL     1      -1.926   5.717   1.311  0.00  0.00    +0.117 C 
ATOM      2  C   UNL     1      -2.897   6.804   1.041  0.00  0.00    +0.182 C 
ENDROOT
BRANCH   2   3
ATOM      3  C   UNL     1      -4.229   6.570   1.160  0.00  0.00    +0.104 C 
ATOM      4  C   UNL     1      -4.869   5.677   0.277  0.00  0.00    +0.127 C 
ATOM      5 CL   UNL     1      -3.976   4.955  -1.025  0.00  0.00    -0.069 Cl
ATOM      6 CL   UNL     1      -6.549   5.298   0.492  0.00  0.00    -0.069 Cl
ATOM      7 CL   UNL     1      -5.144   7.370   2.399  0.00  0.00    -0.079 Cl
ENDBRANCH   2   3
BRANCH   2   8
ATOM      8  N   UNL     1      -2.414   8.146   0.642  0.00  0.00    +0.061 N 
ATOM      9  O   UNL     1      -1.130   8.348   0.430  0.00  0.00    -0.126 OA
ATOM     10  O   UNL     1      -3.269   9.137   0.498  0.00  0.00    -0.126 OA
ENDBRANCH   2   8
BRANCH   1  11
ATOM     11  N   UNL     1      -0.621   5.910   1.073  0.00  0.00    -0.327 N 
ATOM     12  H   UNL     1      -0.074   6.699   1.611  0.00  0.00    +0.148 HD
BRANCH  11  19
ATOM     13  C   UNL     1       2.784   5.800  -2.490  0.00  0.00    +0.012 C 
ATOM     14  C   UNL     1       1.875   5.063  -1.505  0.00  0.00    -0.025 C 
ATOM     15  C   UNL     1       2.525   4.944  -0.081  0.00  0.00    -0.003 C 
ATOM     16  C   UNL     1       2.631   6.449   0.314  0.00  0.00    +0.005 C 
ATOM     17  C   UNL     1       1.392   7.111  -0.333  0.00  0.00    +0.009 C 
ATOM     18  C   UNL     1       0.655   5.943  -1.058  0.00  0.00    -0.008 C 
ATOM     19  C   UNL     1       0.077   5.069   0.097  0.00  0.00    +0.078 C 
ATOM     20  C   UNL     1       1.315   4.408   0.744  0.00  0.00    +0.027 C 
ATOM     21  C   UNL     1      -0.333   6.338  -2.157  0.00  0.00    +0.013 C 
ATOM     22  C   UNL     1       1.435   3.703  -2.050  0.00  0.00    +0.012 C 
ENDBRANCH  11  19
ENDBRANCH   1  11
BRANCH   1  23
ATOM     23  N   UNL     1      -2.352   4.542   1.793  0.00  0.00    -0.327 N 
ATOM     24  H   UNL     1      -3.430   4.353   1.906  0.00  0.00    +0.148 HD
BRANCH  23  25
ATOM     25  C   UNL     1      -1.384   3.510   2.170  0.00  0.00    +0.078 C 
ATOM     26  C   UNL     1      -0.765   3.828   3.553  0.00  0.00    +0.027 C 
ATOM     27  C   UNL     1      -1.167   2.618   4.452  0.00  0.00    -0.003 C 
ATOM     28  C   UNL     1      -0.321   1.428   3.904  0.00  0.00    +0.005 C 
ATOM     29  C   UNL     1      -0.937   1.111   2.523  0.00  0.00    +0.009 C 
ATOM     30  C   UNL     1      -2.099   2.138   2.364  0.00  0.00    -0.008 C 
ATOM     31  C   UNL     1      -2.578   2.267   3.853  0.00  0.00    -0.025 C 
ATOM     32  C   UNL     1      -3.579   3.410   4.036  0.00  0.00    +0.012 C 
ATOM     33  C   UNL     1      -3.122   0.945   4.398  0.00  0.00    +0.012 C 
ATOM     34  C   UNL     1      -3.175   1.777   1.337  0.00  0.00    +0.013 C 
ENDBRANCH  23  25
ENDBRANCH   1  23
TORSDOF 6
