REMARK  Name = ZINC34793097
REMARK  8 active torsions:
REMARK  status: ('A' for Active; 'I' for Inactive)
REMARK    1  A    between atoms: C_1  and  C_2
REMARK    2  A    between atoms: C_2  and  C_4
REMARK    3  A    between atoms: C_2  and  N_20
REMARK    4  A    between atoms: N_9  and  C_12
REMARK    5  A    between atoms: C_12  and  C_13
REMARK    6  A    between atoms: C_13  and  C_14
REMARK    7  A    between atoms: C_26  and  C_33
REMARK    8  A    between atoms: N_31  and  C_32
REMARK                            x       y       z     vdW  Elec       q    Type
REMARK                         _______ _______ _______ _____ _____    ______ ____
ROOT
ATOM      1  N   UNL     1      -1.208  -0.551   0.486  0.00  0.00    -0.281 N 
ATOM      2  C   UNL     1      -1.582  -1.284  -0.733  0.00  0.00    +0.160 C 
ATOM      3  C   UNL     1      -2.967  -1.823  -0.454  0.00  0.00    +0.042 C 
ATOM      4  C   UNL     1      -3.290  -1.412   0.789  0.00  0.00    +0.058 C 
ATOM      5  C   UNL     1      -2.236  -0.659   1.347  0.00  0.00    +0.247 C 
ATOM      6  O   UNL     1      -2.256  -0.168   2.461  0.00  0.00    -0.270 OA
ATOM      7  C   UNL     1      -4.645  -1.815   1.334  0.00  0.00    +0.143 C 
ATOM      8  N   UNL     1      -5.503  -2.627   0.454  0.00  0.00    -0.288 N 
ATOM      9  C   UNL     1      -5.039  -2.959  -0.766  0.00  0.00    +0.307 C 
ATOM     10  O   UNL     1      -5.740  -3.628  -1.500  0.00  0.00    -0.252 OA
ATOM     11  N   UNL     1      -3.830  -2.575  -1.198  0.00  0.00    -0.260 N 
ATOM     12  C   UNL     1      -3.412  -2.984  -2.541  0.00  0.00    +0.139 C 
ATOM     13  H   UNL     1      -6.382  -2.916   0.747  0.00  0.00    +0.151 HD
ENDROOT
BRANCH   7  14
ATOM     14  C   UNL     1      -5.398  -0.557   1.684  0.00  0.00    -0.004 A 
ATOM     15  C   UNL     1      -4.992   0.658   1.166  0.00  0.00    +0.007 A 
ATOM     16  C   UNL     1      -5.683   1.812   1.487  0.00  0.00    +0.000 A 
ATOM     17  C   UNL     1      -6.779   1.751   2.326  0.00  0.00    +0.001 A 
ATOM     18  C   UNL     1      -7.186   0.536   2.846  0.00  0.00    +0.020 A 
ATOM     19  C   UNL     1      -6.498  -0.620   2.520  0.00  0.00    +0.046 A 
ATOM     20 CL   UNL     1      -7.013  -2.147   3.167  0.00  0.00    -0.083 Cl
ENDBRANCH   7  14
BRANCH   1  22
ATOM     21  C   UNL     1      -0.241   1.637   0.993  0.00  0.00    +0.038 C 
ATOM     22  C   UNL     1       0.051   0.160   0.721  0.00  0.00    +0.160 C 
BRANCH  22  23
ATOM     23  C   UNL     1       0.752  -0.441   1.911  0.00  0.00    +0.236 C 
ATOM     24  O   UNL     1       0.111  -1.010   2.770  0.00  0.00    -0.274 OA
ATOM     25  N   UNL     1       2.092  -0.347   2.023  0.00  0.00    -0.298 N 
ATOM     26  C   UNL     1       2.876   0.438   1.057  0.00  0.00    +0.123 C 
ATOM     27  C   UNL     1       3.782   1.400   1.832  0.00  0.00    +0.103 C 
ATOM     28  N   UNL     1       4.577   0.641   2.807  0.00  0.00    -0.299 NA
ATOM     29  C   UNL     1       3.717  -0.005   3.808  0.00  0.00    +0.103 C 
ATOM     30  C   UNL     1       2.808  -1.020   3.117  0.00  0.00    +0.123 C 
BRANCH  28  31
ATOM     31  C   UNL     1       5.580   1.500   3.451  0.00  0.00    +0.089 C 
BRANCH  31  32
ATOM     32  C   UNL     1       6.544   0.636   4.266  0.00  0.00    +0.050 C 
BRANCH  32  33
ATOM     33  C   UNL     1       7.573   1.517   4.926  0.00  0.00    -0.046 A 
ATOM     34  C   UNL     1       8.752   1.814   4.269  0.00  0.00    +0.003 A 
ATOM     35  C   UNL     1       9.696   2.622   4.875  0.00  0.00    +0.000 A 
ATOM     36  C   UNL     1       9.460   3.133   6.138  0.00  0.00    +0.000 A 
ATOM     37  C   UNL     1       8.280   2.836   6.795  0.00  0.00    +0.000 A 
ATOM     38  C   UNL     1       7.335   2.032   6.187  0.00  0.00    +0.003 A 
ENDBRANCH  32  33
ENDBRANCH  31  32
ENDBRANCH  28  31
ENDBRANCH  22  23
ENDBRANCH   1  22
TORSDOF 6
