REMARK  Name = ZINC20613519
REMARK  8 active torsions:
REMARK  status: ('A' for Active; 'I' for Inactive)
REMARK    1  A    between atoms: C_5  and  C_7
REMARK    2  A    between atoms: N_9  and  C_10
REMARK    3  A    between atoms: C_10  and  C_11
REMARK    4  A    between atoms: C_11  and  C_12
REMARK    5  A    between atoms: C_18  and  C_20
REMARK    6  A    between atoms: C_20  and  S_21
REMARK    7  A    between atoms: S_21  and  C_24
REMARK    8  A    between atoms: C_24  and  C_25
REMARK                            x       y       z     vdW  Elec       q    Type
REMARK                         _______ _______ _______ _____ _____    ______ ____
ROOT
ATOM      1  C   UNL     1      -1.288   1.951  -8.965  0.00  0.00    +0.105 A 
ATOM      2  N   UNL     1      -1.954   2.410  -7.924  0.00  0.00    -0.145 NA
ATOM      3  N   UNL     1      -1.572   2.150  -6.750  0.00  0.00    -0.126 NA
ATOM      4  C   UNL     1      -0.500   1.413  -6.511  0.00  0.00    +0.188 A 
ATOM      5  S   UNL     1       0.022   1.061  -8.132  0.00  0.00    -0.035 S 
ATOM      6  N   UNL     1       0.059   1.030  -5.297  0.00  0.00    -0.262 N 
ATOM      7  C   UNL     1      -0.509   1.422  -4.139  0.00  0.00    +0.240 C 
ATOM      8  O   UNL     1      -1.509   2.109  -4.157  0.00  0.00    -0.274 OA
ATOM      9  H   UNL     1       0.966   0.407  -5.281  0.00  0.00    +0.157 HD
ENDROOT
BRANCH   1  10
ATOM     10  C   UNL     1      -1.551   2.130 -10.438  0.00  0.00    +0.083 C 
BRANCH  10  11
ATOM     11  C   UNL     1      -0.823   3.379 -10.938  0.00  0.00    +0.111 C 
BRANCH  11  14
ATOM     12  C   UNL     1      -0.535   4.594 -13.030  0.00  0.00    +0.245 C 
ATOM     13  O   UNL     1       0.168   5.389 -12.438  0.00  0.00    -0.270 OA
ATOM     14  N   UNL     1      -1.079   3.553 -12.370  0.00  0.00    -0.311 N 
ATOM     15  H   UNL     1      -1.715   2.833 -12.906  0.00  0.00    +0.149 HD
BRANCH  12  20
ATOM     16  C   UNL     1      -1.837   4.027 -16.506  0.00  0.00    +0.001 A 
ATOM     17  C   UNL     1      -1.277   5.098 -17.182  0.00  0.00    +0.001 A 
ATOM     18  C   UNL     1      -0.477   6.005 -16.512  0.00  0.00    +0.021 A 
ATOM     19  C   UNL     1      -0.231   5.848 -15.162  0.00  0.00    +0.053 A 
ATOM     20  C   UNL     1      -0.793   4.769 -14.475  0.00  0.00    +0.055 A 
ATOM     21  C   UNL     1      -1.595   3.855 -15.160  0.00  0.00    +0.014 A 
ATOM     22 CL   UNL     1       0.774   6.987 -14.322  0.00  0.00    -0.083 Cl
ENDBRANCH  12  20
ENDBRANCH  11  14
ENDBRANCH  10  11
ENDBRANCH   1  10
BRANCH   7  23
ATOM     23  C   UNL     1       0.097   1.007  -2.823  0.00  0.00    +0.262 C 
BRANCH  23  24
ATOM     24  S   UNL     1      -0.890   1.687  -1.462  0.00  0.00    -0.019 S 
ATOM     25  O   UNL     1      -2.177   1.084  -1.495  0.00  0.00    -0.174 OA
ATOM     26  O   UNL     1      -0.789   3.104  -1.497  0.00  0.00    -0.174 OA
BRANCH  24  27
ATOM     27  C   UNL     1      -0.013   1.086   0.008  0.00  0.00    +0.201 C 
BRANCH  27  28
ATOM     28  C   UNL     1      -0.718   1.572   1.248  0.00  0.00    -0.026 A 
ATOM     29  C   UNL     1      -0.360   2.779   1.818  0.00  0.00    +0.006 A 
ATOM     30  C   UNL     1      -1.010   3.228   2.952  0.00  0.00    +0.020 A 
ATOM     31  C   UNL     1      -2.012   2.464   3.523  0.00  0.00    +0.041 A 
ATOM     32  C   UNL     1      -2.367   1.253   2.955  0.00  0.00    +0.020 A 
ATOM     33  C   UNL     1      -1.719   0.808   1.817  0.00  0.00    +0.006 A 
ATOM     34 CL   UNL     1      -2.825   3.024   4.951  0.00  0.00    -0.084 Cl
ENDBRANCH  27  28
ENDBRANCH  24  27
ENDBRANCH  23  24
ENDBRANCH   7  23
TORSDOF 8
