REMARK  Name = ZINC02276961
REMARK  8 active torsions:
REMARK  status: ('A' for Active; 'I' for Inactive)
REMARK    1  A    between atoms: C_1  and  O_2
REMARK    2  A    between atoms: O_2  and  C_3
REMARK    3  A    between atoms: C_6  and  C_9
REMARK    4  A    between atoms: N_11  and  C_12
REMARK    5  A    between atoms: C_12  and  C_13
REMARK    6  A    between atoms: N_15  and  N_16
REMARK    7  A    between atoms: N_24  and  C_27
REMARK    8  A    between atoms: C_27  and  C_28
REMARK                            x       y       z     vdW  Elec       q    Type
REMARK                         _______ _______ _______ _____ _____    ______ ____
ROOT
ATOM      1  N   UNL     1       3.567  -8.181  -6.197  0.00  0.00    -0.174 NA
ATOM      2  C   UNL     1       3.999  -8.968  -7.152  0.00  0.00    +0.153 C 
ATOM      3  C   UNL     1       4.692  -8.574  -8.401  0.00  0.00    +0.028 A 
ATOM      4  C   UNL     1       5.080  -7.347  -8.929  0.00  0.00    +0.012 A 
ATOM      5  C   UNL     1       5.726  -7.299 -10.148  0.00  0.00    +0.001 A 
ATOM      6  C   UNL     1       5.986  -8.469 -10.841  0.00  0.00    +0.002 A 
ATOM      7  C   UNL     1       5.606  -9.692 -10.326  0.00  0.00    +0.024 A 
ATOM      8  C   UNL     1       4.954  -9.760  -9.100  0.00  0.00    +0.046 A 
ATOM      9  N   UNL     1       4.472 -10.840  -8.368  0.00  0.00    -0.261 N 
ATOM     10  C   UNL     1       3.908 -10.441  -7.216  0.00  0.00    +0.272 C 
ATOM     11  O   UNL     1       3.408 -11.164  -6.375  0.00  0.00    -0.268 OA
ENDROOT
BRANCH   1  14
ATOM     12  C   UNL     1       3.232  -5.979  -5.358  0.00  0.00    +0.249 C 
ATOM     13  O   UNL     1       2.923  -6.450  -4.284  0.00  0.00    -0.272 OA
ATOM     14  N   UNL     1       3.571  -6.792  -6.378  0.00  0.00    -0.205 N 
ATOM     15  H   UNL     1       3.819  -6.415  -7.237  0.00  0.00    +0.177 HD
BRANCH  12  16
ATOM     16  C   UNL     1       3.237  -4.484  -5.552  0.00  0.00    +0.202 C 
BRANCH  16  19
ATOM     17  C   UNL     1       2.767  -2.484  -4.243  0.00  0.00    +0.244 C 
ATOM     18  O   UNL     1       3.040  -1.815  -5.221  0.00  0.00    -0.270 OA
ATOM     19  N   UNL     1       2.835  -3.829  -4.306  0.00  0.00    -0.303 N 
ATOM     20  H   UNL     1       2.617  -4.362  -3.525  0.00  0.00    +0.150 HD
BRANCH  17  24
ATOM     21  C   UNL     1       1.599  -0.583  -0.629  0.00  0.00    +0.120 A 
ATOM     22  C   UNL     1       1.911   0.183  -1.746  0.00  0.00    +0.046 A 
ATOM     23  C   UNL     1       2.291  -0.429  -2.920  0.00  0.00    +0.016 A 
ATOM     24  C   UNL     1       2.361  -1.823  -2.987  0.00  0.00    +0.037 A 
ATOM     25  C   UNL     1       2.047  -2.590  -1.862  0.00  0.00    +0.016 A 
ATOM     26  C   UNL     1       1.674  -1.970  -0.690  0.00  0.00    +0.046 A 
BRANCH  21  28
ATOM     27  C   UNL     1       1.170   1.452   0.519  0.00  0.00    +0.277 C 
ATOM     28  O   UNL     1       1.226   0.024   0.525  0.00  0.00    -0.495 OA
ENDBRANCH  21  28
ENDBRANCH  17  24
ENDBRANCH  16  19
ENDBRANCH  12  16
ENDBRANCH   1  14
BRANCH   9  29
ATOM     29  C   UNL     1       4.572 -12.237  -8.797  0.00  0.00    +0.149 C 
BRANCH  29  30
ATOM     30  C   UNL     1       5.860 -12.829  -8.285  0.00  0.00    -0.028 A 
ATOM     31  C   UNL     1       7.010 -12.747  -9.048  0.00  0.00    +0.007 A 
ATOM     32  C   UNL     1       8.192 -13.290  -8.579  0.00  0.00    +0.022 A 
ATOM     33  C   UNL     1       8.224 -13.914  -7.345  0.00  0.00    +0.059 A 
ATOM     34  C   UNL     1       7.073 -13.995  -6.580  0.00  0.00    +0.060 A 
ATOM     35  C   UNL     1       5.892 -13.447  -7.049  0.00  0.00    +0.026 A 
ATOM     36 CL   UNL     1       7.112 -14.779  -5.032  0.00  0.00    -0.082 Cl
ATOM     37 CL   UNL     1       9.708 -14.596  -6.756  0.00  0.00    -0.082 Cl
ENDBRANCH  29  30
ENDBRANCH   9  29
TORSDOF 7
