REMARK  Name = ZINC08986546
REMARK  9 active torsions:
REMARK  status: ('A' for Active; 'I' for Inactive)
REMARK    1  A    between atoms: C_1  and  C_2
REMARK    2  A    between atoms: C_6  and  C_29
REMARK    3  A    between atoms: C_7  and  O_8
REMARK    4  A    between atoms: O_8  and  C_9
REMARK    5  A    between atoms: C_9  and  C_10
REMARK    6  A    between atoms: N_12  and  N_13
REMARK    7  A    between atoms: C_14  and  C_15
REMARK    8  A    between atoms: N_19  and  C_20
REMARK    9  A    between atoms: C_23  and  N_26
REMARK                            x       y       z     vdW  Elec       q    Type
REMARK                         _______ _______ _______ _____ _____    ______ ____
ROOT
ATOM      1  N   UNL     1       1.122   3.482   0.010  0.00  0.00    -0.186 NA
ATOM      2  C   UNL     1       2.272   4.167   0.003  0.00  0.00    +0.156 C 
ENDROOT
BRANCH   2   3
ATOM      3  C   UNL     1       2.253   5.548   0.010  0.00  0.00    +0.066 A 
ATOM      4  C   UNL     1       1.058   6.417   0.020  0.00  0.00    +0.029 A 
ATOM      5  C   UNL     1       1.516   7.696   0.028  0.00  0.00    +0.020 A 
ATOM      6  C   UNL     1       2.918   7.667   0.015  0.00  0.00    +0.092 A 
ATOM      7  N   UNL     1       3.355   6.395   0.004  0.00  0.00    -0.315 N 
BRANCH   7   8
ATOM      8  C   UNL     1       4.696   5.992  -0.009  0.00  0.00    +0.047 A 
ATOM      9  C   UNL     1       5.149   5.052   0.907  0.00  0.00    +0.028 A 
ATOM     10  C   UNL     1       6.471   4.653   0.888  0.00  0.00    +0.035 A 
ATOM     11  C   UNL     1       7.345   5.196  -0.036  0.00  0.00    +0.126 A 
ATOM     12  C   UNL     1       6.898   6.136  -0.946  0.00  0.00    +0.035 A 
ATOM     13  C   UNL     1       5.576   6.535  -0.936  0.00  0.00    +0.028 A 
BRANCH  11  14
ATOM     14  N   UNL     1       8.763   4.770  -0.051  0.00  0.00    +0.056 N 
ATOM     15  O   UNL     1       9.597   5.286  -0.929  0.00  0.00    -0.126 OA
ATOM     16  O   UNL     1       9.190   3.874   0.816  0.00  0.00    -0.126 OA
ENDBRANCH  11  14
ENDBRANCH   7   8
ENDBRANCH   2   3
BRANCH   1  19
ATOM     17  C   UNL     1      -0.018   1.503   0.010  0.00  0.00    +0.270 C 
ATOM     18  O   UNL     1      -1.073   2.093   0.018  0.00  0.00    -0.270 OA
ATOM     19  N   UNL     1       1.139   2.192   0.003  0.00  0.00    -0.204 N 
ATOM     20  H   UNL     1       1.986   1.719  -0.008  0.00  0.00    +0.177 HD
BRANCH  17  21
ATOM     21  C   UNL     1       0.002  -0.004   0.002  0.00  0.00    +0.326 C 
BRANCH  21  22
ATOM     22  O   UNL     1      -1.339  -0.499   0.012  0.00  0.00    -0.482 OA
BRANCH  22  29
ATOM     23  C   UNL     1      -1.527  -1.777  -2.500  0.00  0.00    +0.047 C 
ATOM     24  C   UNL     1      -1.597  -2.531  -1.197  0.00  0.00    -0.007 A 
ATOM     25  C   UNL     1      -1.754  -3.904  -1.201  0.00  0.00    +0.022 A 
ATOM     26  C   UNL     1      -1.824  -4.596  -0.005  0.00  0.00    +0.019 A 
ATOM     27  C   UNL     1      -1.731  -3.916   1.196  0.00  0.00    +0.022 A 
ATOM     28  C   UNL     1      -1.569  -2.545   1.204  0.00  0.00    -0.007 A 
ATOM     29  C   UNL     1      -1.498  -1.848   0.006  0.00  0.00    +0.127 A 
ATOM     30  C   UNL     1      -1.467  -1.805   2.513  0.00  0.00    +0.047 C 
ATOM     31 BR   UNL     1      -2.046  -6.474  -0.013  0.00  0.00    -0.050 Br
ENDBRANCH  22  29
ENDBRANCH  21  22
ENDBRANCH  17  21
ENDBRANCH   1  19
TORSDOF 7
