REMARK  Name = ZINC13126947
REMARK  6 active torsions:
REMARK  status: ('A' for Active; 'I' for Inactive)
REMARK    1  A    between atoms: C_6  and  S_7
REMARK    2  A    between atoms: S_7  and  N_10
REMARK    3  A    between atoms: C_16  and  C_18
REMARK    4  A    between atoms: C_18  and  C_19
REMARK    5  A    between atoms: C_19  and  C_20
REMARK    6  A    between atoms: C_22  and  C_25
REMARK                            x       y       z     vdW  Elec       q    Type
REMARK                         _______ _______ _______ _____ _____    ______ ____
ROOT
ATOM      1  N   UNL     1       4.337  -1.074  -1.641  0.00  0.00    -0.174 NA
ATOM      2  C   UNL     1       3.904  -2.282  -2.356  0.00  0.00    +0.128 C 
ATOM      3  C   UNL     1       3.138  -1.851  -3.618  0.00  0.00    +0.125 C 
ATOM      4  N   UNL     1       3.943  -0.853  -4.337  0.00  0.00    -0.299 N 
ATOM      5  C   UNL     1       4.382   0.352  -3.620  0.00  0.00    +0.125 C 
ATOM      6  C   UNL     1       5.143  -0.076  -2.359  0.00  0.00    +0.128 C 
ATOM      7  C   UNL     1       4.274  -1.041  -5.630  0.00  0.00    +0.216 C 
ATOM      8  O   UNL     1       4.940  -0.211  -6.212  0.00  0.00    -0.276 OA
ENDROOT
BRANCH   1   9
ATOM      9  S   UNL     1       3.931  -0.843  -0.052  0.00  0.00    +0.061 S 
ATOM     10  O   UNL     1       4.904   0.038   0.492  0.00  0.00    -0.153 OA
ATOM     11  O   UNL     1       3.679  -2.131   0.494  0.00  0.00    -0.153 OA
BRANCH   9  17
ATOM     12  C   UNL     1       1.208  -0.680  -0.016  0.00  0.00    +0.032 A 
ATOM     13  C   UNL     1       0.002  -0.004   0.002  0.00  0.00    +0.051 A 
ATOM     14  C   UNL     1      -0.017   1.382   0.010  0.00  0.00    +0.162 A 
ATOM     15  C   UNL     1       1.180   2.090   0.002  0.00  0.00    +0.164 A 
ATOM     16  C   UNL     1       2.386   1.406  -0.017  0.00  0.00    +0.078 A 
ATOM     17  C   UNL     1       2.397   0.023  -0.027  0.00  0.00    +0.109 A 
ATOM     18  O   UNL     1       1.184   3.451   0.018  0.00  0.00    -0.485 OA
ATOM     19  C   UNL     1      -0.040   4.103  -0.340  0.00  0.00    +0.270 C 
ATOM     20  C   UNL     1      -1.188   3.413   0.408  0.00  0.00    +0.270 C 
ATOM     21  O   UNL     1      -1.211   2.034   0.019  0.00  0.00    -0.485 OA
ENDBRANCH   9  17
ENDBRANCH   1   9
BRANCH   7  22
ATOM     22  C   UNL     1       3.818  -2.283  -6.351  0.00  0.00    +0.105 C 
BRANCH  22  23
ATOM     23  C   UNL     1       4.325  -2.249  -7.795  0.00  0.00    +0.108 C 
BRANCH  23  24
ATOM     24  C   UNL     1       3.868  -3.491  -8.517  0.00  0.00    +0.228 A 
ATOM     25  N   UNL     1       2.752  -3.635  -9.187  0.00  0.00    -0.191 NA
ATOM     26  C   UNL     1       2.772  -4.903  -9.657  0.00  0.00    +0.203 A 
ATOM     27  N   UNL     1       3.888  -5.449  -9.248  0.00  0.00    -0.056 NA
ATOM     28  O   UNL     1       4.529  -4.650  -8.598  0.00  0.00    -0.338 OA
BRANCH  26  29
ATOM     29  C   UNL     1       1.725  -5.552 -10.482  0.00  0.00    +0.029 A 
ATOM     30  C   UNL     1       1.868  -6.871 -10.909  0.00  0.00    +0.019 A 
ATOM     31  C   UNL     1       0.872  -7.401 -11.653  0.00  0.00    +0.046 A 
ATOM     32  S   UNL     1      -0.277  -6.043 -11.774  0.00  0.00    -0.104 S 
ATOM     33  C   UNL     1       0.599  -4.871 -10.846  0.00  0.00    +0.057 A 
ENDBRANCH  26  29
ENDBRANCH  23  24
ENDBRANCH  22  23
ENDBRANCH   7  22
TORSDOF 6
