REMARK  Name = ZINC39302178
REMARK  5 active torsions:
REMARK  status: ('A' for Active; 'I' for Inactive)
REMARK    1  A    between atoms: N_11  and  C_12
REMARK    2  A    between atoms: C_12  and  C_13
REMARK    3  A    between atoms: C_13  and  N_14
REMARK    4  A    between atoms: C_15  and  C_17
REMARK    5  A    between atoms: C_23  and  C_25
REMARK                            x       y       z     vdW  Elec       q    Type
REMARK                         _______ _______ _______ _____ _____    ______ ____
ROOT
ATOM      1  C   UNL     1       8.948   0.268   2.506  0.00  0.00    +0.091 C 
ATOM      2  C   UNL     1       9.708  -0.901   1.877  0.00  0.00    +0.040 C 
ATOM      3  C   UNL     1       9.697  -2.083   2.802  0.00  0.00    -0.030 C 
ATOM      4  C   UNL     1       9.415  -2.013   4.064  0.00  0.00    -0.030 C 
ATOM      5  C   UNL     1       9.050  -0.743   4.775  0.00  0.00    +0.040 C 
ATOM      6  C   UNL     1       9.462   0.473   3.937  0.00  0.00    +0.091 C 
ENDROOT
BRANCH   6   7
ATOM      7  C   UNL     1       8.859   1.726   4.517  0.00  0.00    +0.220 C 
ATOM      8  O   UNL     1       7.857   1.659   5.196  0.00  0.00    -0.275 OA
ATOM      9  N   UNL     1       9.434   2.923   4.282  0.00  0.00    -0.298 N 
ATOM     10  C   UNL     1      10.575   3.036   3.363  0.00  0.00    +0.126 C 
ATOM     11  C   UNL     1      10.235   4.072   2.284  0.00  0.00    +0.125 C 
ATOM     12  N   UNL     1       9.731   5.286   2.941  0.00  0.00    -0.314 N 
ATOM     13  C   UNL     1       8.590   5.172   3.860  0.00  0.00    +0.125 C 
ATOM     14  C   UNL     1       8.926   4.138   4.934  0.00  0.00    +0.126 C 
ATOM     15  C   UNL     1      10.324   6.519   2.698  0.00  0.00    +0.099 A 
ATOM     16  C   UNL     1      11.477   6.590   1.923  0.00  0.00    +0.042 A 
ATOM     17  C   UNL     1      12.056   7.824   1.689  0.00  0.00    +0.005 A 
ATOM     18  C   UNL     1      11.461   8.950   2.240  0.00  0.00    +0.018 A 
ATOM     19  C   UNL     1      10.317   8.808   2.999  0.00  0.00    +0.084 A 
ATOM     20  N   UNL     1       9.783   7.618   3.202  0.00  0.00    -0.350 N 
ATOM     21  H   UNL     1       8.976   7.546   3.736  0.00  0.00    +0.166 HD
ENDBRANCH   6   7
BRANCH   1  23
ATOM     22  N   UNL     1       6.573   0.958   2.577  0.00  0.00    -0.313 N 
ATOM     23  C   UNL     1       7.474  -0.044   2.538  0.00  0.00    +0.217 C 
ATOM     24  O   UNL     1       7.098  -1.197   2.529  0.00  0.00    -0.275 OA
ATOM     25  H   UNL     1       6.874   1.880   2.584  0.00  0.00    +0.149 HD
BRANCH  22  26
ATOM     26  C   UNL     1       5.141   0.655   2.608  0.00  0.00    +0.126 C 
BRANCH  26  27
ATOM     27  C   UNL     1       4.344   1.960   2.649  0.00  0.00    +0.145 C 
BRANCH  27  38
ATOM     28  C   UNL     1       0.138   1.005   5.680  0.00  0.00    +0.002 A 
ATOM     29  C   UNL     1       1.429   1.269   6.104  0.00  0.00    +0.002 A 
ATOM     30  C   UNL     1       2.431   1.501   5.181  0.00  0.00    +0.028 A 
ATOM     31  C   UNL     1       2.142   1.470   3.826  0.00  0.00    +0.070 A 
ATOM     32  C   UNL     1       0.839   1.204   3.399  0.00  0.00    +0.067 A 
ATOM     33  C   UNL     1      -0.160   0.972   4.332  0.00  0.00    +0.028 A 
ATOM     34  N   UNL     1       0.857   1.237   2.006  0.00  0.00    -0.306 N 
ATOM     35  H   UNL     1       0.095   1.089   1.425  0.00  0.00    +0.170 HD
ATOM     36  C   UNL     1       2.113   1.511   1.605  0.00  0.00    +0.328 A 
ATOM     37  O   UNL     1       2.472   1.612   0.447  0.00  0.00    -0.247 OA
ATOM     38  N   UNL     1       2.911   1.657   2.680  0.00  0.00    -0.291 N 
ENDBRANCH  27  38
ENDBRANCH  26  27
ENDBRANCH  22  26
ENDBRANCH   1  23
TORSDOF 5
