REMARK  Name = ZINC39838018
REMARK  12 active torsions:
REMARK  status: ('A' for Active; 'I' for Inactive)
REMARK    1  A    between atoms: C_1  and  C_2
REMARK    2  A    between atoms: C_16  and  C_18
REMARK    3  A    between atoms: C_20  and  O_28
REMARK    4  A    between atoms: C_21  and  O_26
REMARK    5  A    between atoms: C_22  and  O_24
REMARK    6  A    between atoms: O_24  and  C_25
REMARK    7  A    between atoms: O_26  and  C_27
REMARK    8  A    between atoms: O_28  and  C_29
REMARK    9  A    between atoms: C_33  and  C_35
REMARK   10  A    between atoms: C_35  and  C_36
REMARK   11  A    between atoms: C_36  and  C_37
REMARK   12  A    between atoms: C_36  and  C_38
REMARK                            x       y       z     vdW  Elec       q    Type
REMARK                         _______ _______ _______ _____ _____    ______ ____
ROOT
ATOM      1  C   UNL     1      -0.018   1.503   0.010  0.00  0.00    +0.044 C 
ATOM      2  C   UNL     1       0.002  -0.004   0.002  0.00  0.00    -0.050 A 
ATOM      3  C   UNL     1       0.006  -0.689  -1.205  0.00  0.00    +0.007 A 
ATOM      4  C   UNL     1       0.022  -2.065  -1.235  0.00  0.00    +0.047 A 
ATOM      5  C   UNL     1       0.035  -2.790  -0.043  0.00  0.00    +0.139 A 
ATOM      6  C   UNL     1       0.037  -2.086   1.172  0.00  0.00    +0.065 A 
ATOM      7  C   UNL     1       0.023  -0.692   1.183  0.00  0.00    +0.018 A 
ATOM      8  C   UNL     1       0.067  -2.849   2.446  0.00  0.00    +0.199 A 
ATOM      9  O   UNL     1      -0.098  -2.332   3.537  0.00  0.00    -0.287 OA
ATOM     10  C   UNL     1       0.313  -4.283   2.266  0.00  0.00    +0.072 A 
ATOM     11  C   UNL     1       0.294  -4.850   1.023  0.00  0.00    +0.199 A 
ATOM     12  O   UNL     1       0.043  -4.142  -0.096  0.00  0.00    -0.450 OA
ATOM     13  C   UNL     1       0.582  -6.287   1.166  0.00  0.00    +0.289 C 
ATOM     14  O   UNL     1       0.643  -7.080   0.247  0.00  0.00    -0.266 OA
ATOM     15  N   UNL     1       0.769  -6.595   2.466  0.00  0.00    -0.230 N 
ATOM     16  C   UNL     1       0.613  -5.362   3.254  0.00  0.00    +0.152 C 
ATOM     17  C   UNL     1       1.059  -7.856   2.972  0.00  0.00    +0.191 A 
ATOM     18  N   UNL     1       1.251  -8.249   4.223  0.00  0.00    -0.125 NA
ATOM     19  N   UNL     1       1.508  -9.450   4.511  0.00  0.00    -0.145 NA
ATOM     20  C   UNL     1       1.603 -10.388   3.590  0.00  0.00    +0.104 A 
ATOM     21  S   UNL     1       1.272  -9.417   2.122  0.00  0.00    -0.035 S 
ENDROOT
BRANCH  16  22
ATOM     22  C   UNL     1       1.889  -5.051   3.992  0.00  0.00    -0.015 A 
ATOM     23  C   UNL     1       3.110  -5.309   3.396  0.00  0.00    +0.055 A 
ATOM     24  C   UNL     1       4.287  -5.025   4.072  0.00  0.00    +0.165 A 
ATOM     25  C   UNL     1       4.238  -4.480   5.350  0.00  0.00    +0.204 A 
ATOM     26  C   UNL     1       3.009  -4.221   5.945  0.00  0.00    +0.165 A 
ATOM     27  C   UNL     1       1.837  -4.504   5.260  0.00  0.00    +0.055 A 
BRANCH  26  28
ATOM     28  O   UNL     1       2.956  -3.688   7.194  0.00  0.00    -0.491 OA
ATOM     29  C   UNL     1       1.659  -3.449   7.744  0.00  0.00    +0.277 C 
ENDBRANCH  26  28
BRANCH  25  30
ATOM     30  O   UNL     1       5.391  -4.200   6.016  0.00  0.00    -0.488 OA
ATOM     31  C   UNL     1       5.946  -2.895   5.835  0.00  0.00    +0.277 C 
ENDBRANCH  25  30
BRANCH  24  32
ATOM     32  O   UNL     1       5.487  -5.280   3.486  0.00  0.00    -0.491 OA
ATOM     33  C   UNL     1       5.462  -5.841   2.172  0.00  0.00    +0.277 C 
ENDBRANCH  24  32
ENDBRANCH  16  22
BRANCH  20  34
ATOM     34  C   UNL     1       1.898 -11.859   3.732  0.00  0.00    +0.068 C 
BRANCH  34  35
ATOM     35  C   UNL     1       0.588 -12.627   3.911  0.00  0.00    -0.011 C 
ATOM     36  C   UNL     1      -0.253 -12.505   2.639  0.00  0.00    +0.007 C 
ATOM     37  C   UNL     1       0.894 -14.102   4.179  0.00  0.00    +0.007 C 
ENDBRANCH  34  35
ENDBRANCH  20  34
TORSDOF 6
