REMARK  Name = ZINC20906920
REMARK  7 active torsions:
REMARK  status: ('A' for Active; 'I' for Inactive)
REMARK    1  A    between atoms: C_9  and  O_32
REMARK    2  A    between atoms: C_10  and  C_11
REMARK    3  A    between atoms: N_12  and  N_13
REMARK    4  A    between atoms: C_16  and  S_19
REMARK    5  A    between atoms: S_19  and  C_20
REMARK    6  A    between atoms: C_20  and  C_21
REMARK    7  A    between atoms: N_23  and  C_24
REMARK                            x       y       z     vdW  Elec       q    Type
REMARK                         _______ _______ _______ _____ _____    ______ ____
ROOT
ATOM      1  N   UNL     1      -2.576   8.058   0.134  0.00  0.00    -0.205 N 
ATOM      2  C   UNL     1      -2.566   9.445   0.132  0.00  0.00    +0.232 A 
ATOM      3  N   UNL     1      -3.667  10.256   0.137  0.00  0.00    -0.186 NA
ATOM      4  C   UNL     1      -3.236  11.552   0.132  0.00  0.00    +0.211 A 
ATOM      5  N   UNL     1      -1.924  11.543   0.124  0.00  0.00    -0.144 NA
ATOM      6  N   UNL     1      -1.500  10.208   0.129  0.00  0.00    -0.245 N 
ATOM      7  H   UNL     1      -3.532   7.514   0.141  0.00  0.00    +0.177 HD
ATOM      8  H   UNL     1      -0.499   9.754   0.132  0.00  0.00    +0.192 HD
ENDROOT
BRANCH   1  10
ATOM      9  C   UNL     1      -1.377   6.049   0.131  0.00  0.00    +0.142 C 
ATOM     10  N   UNL     1      -1.367   7.349   0.128  0.00  0.00    -0.187 NA
BRANCH   9  20
ATOM     11  C   UNL     1      -0.018   1.074   0.132  0.00  0.00    +0.001 A 
ATOM     12  C   UNL     1      -1.239   1.744   0.133  0.00  0.00    +0.001 A 
ATOM     13  C   UNL     1      -1.291   3.106   0.136  0.00  0.00    +0.009 A 
ATOM     14  C   UNL     1      -0.100   3.844   0.127  0.00  0.00    -0.006 A 
ATOM     15  C   UNL     1       1.143   3.166   0.121  0.00  0.00    -0.017 A 
ATOM     16  C   UNL     1       1.158   1.760   0.123  0.00  0.00    +0.008 A 
ATOM     17  C   UNL     1       2.337   3.908   0.111  0.00  0.00    +0.012 A 
ATOM     18  C   UNL     1       2.311   5.268   0.110  0.00  0.00    +0.046 A 
ATOM     19  C   UNL     1       1.113   5.979   0.115  0.00  0.00    +0.126 A 
ATOM     20  C   UNL     1      -0.109   5.305   0.124  0.00  0.00    +0.044 A 
BRANCH  19  21
ATOM     21  O   UNL     1       1.134   7.337   0.113  0.00  0.00    -0.506 OA
ATOM     22  H   UNL     1       0.190   7.902   0.117  0.00  0.00    +0.292 HD
ENDBRANCH  19  21
ENDBRANCH   9  20
ENDBRANCH   1  10
BRANCH   4  23
ATOM     23  S   UNL     1      -4.262  12.985   0.135  0.00  0.00    -0.075 S 
BRANCH  23  24
ATOM     24  C   UNL     1      -3.087  14.367   0.125  0.00  0.00    +0.173 C 
BRANCH  24  25
ATOM     25  C   UNL     1      -3.843  15.670   0.127  0.00  0.00    +0.228 C 
ATOM     26  O   UNL     1      -5.056  15.667   0.134  0.00  0.00    -0.275 OA
ATOM     27  N   UNL     1      -3.172  16.839   0.120  0.00  0.00    -0.284 N 
ATOM     28  H   UNL     1      -2.074  16.843   0.189  0.00  0.00    +0.155 HD
BRANCH  27  29
ATOM     29  C   UNL     1      -3.872  18.047   0.027  0.00  0.00    +0.053 A 
ATOM     30  C   UNL     1      -5.116  18.179   0.630  0.00  0.00    +0.044 A 
ATOM     31  C   UNL     1      -5.803  19.375   0.541  0.00  0.00    +0.043 A 
ATOM     32  C   UNL     1      -5.256  20.438  -0.158  0.00  0.00    +0.021 A 
ATOM     33  C   UNL     1      -4.020  20.308  -0.764  0.00  0.00    +0.023 A 
ATOM     34  C   UNL     1      -3.327  19.116  -0.674  0.00  0.00    +0.062 A 
ATOM     35 CL   UNL     1      -1.775  18.954  -1.435  0.00  0.00    -0.082 Cl
ATOM     36 CL   UNL     1      -7.355  19.543   1.300  0.00  0.00    -0.083 Cl
ENDBRANCH  27  29
ENDBRANCH  24  25
ENDBRANCH  23  24
ENDBRANCH   4  23
TORSDOF 7
