REMARK  Name = ZINC35337451
REMARK  4 active torsions:
REMARK  status: ('A' for Active; 'I' for Inactive)
REMARK    1  A    between atoms: C_3  and  N_35
REMARK    2  A    between atoms: C_6  and  C_7
REMARK    3  A    between atoms: C_18  and  S_31
REMARK    4  A    between atoms: S_31  and  N_34
REMARK                            x       y       z     vdW  Elec       q    Type
REMARK                         _______ _______ _______ _____ _____    ______ ____
ROOT
ATOM      1  C   UNL     1      -1.293  -0.775   0.010  0.00  0.00    +0.108 C 
ATOM      2  C   UNL     1      -1.588  -1.233   1.420  0.00  0.00    +0.029 C 
ATOM      3  C   UNL     1      -0.509  -2.200   1.957  0.00  0.00    +0.033 C 
ATOM      4  C   UNL     1      -1.276  -3.011   2.987  0.00  0.00    -0.030 C 
ATOM      5  C   UNL     1      -2.561  -2.977   2.732  0.00  0.00    -0.023 C 
ATOM      6  C   UNL     1      -2.844  -2.125   1.487  0.00  0.00    +0.049 C 
ATOM      7  C   UNL     1      -2.901  -3.084   0.324  0.00  0.00    -0.017 A 
ATOM      8  C   UNL     1      -3.861  -4.085   0.373  0.00  0.00    +0.034 A 
ATOM      9  C   UNL     1      -3.953  -5.022  -0.635  0.00  0.00    +0.106 A 
ATOM     10  C   UNL     1      -3.070  -4.977  -1.698  0.00  0.00    +0.034 A 
ATOM     11  C   UNL     1      -2.119  -3.982  -1.766  0.00  0.00    -0.017 A 
ATOM     12  C   UNL     1      -2.054  -2.998  -0.767  0.00  0.00    +0.038 A 
ATOM     13  N   UNL     1      -1.178  -1.915  -0.899  0.00  0.00    -0.322 N 
ATOM     14  C   UNL     1      -0.157  -1.870  -1.969  0.00  0.00    +0.110 C 
ATOM     15  C   UNL     1      -0.844  -2.435  -3.201  0.00  0.00    +0.021 C 
ATOM     16  C   UNL     1      -1.131  -3.923  -2.861  0.00  0.00    +0.048 C 
ATOM     17  C   UNL     1      -1.363  -4.545  -4.187  0.00  0.00    -0.023 C 
ATOM     18  C   UNL     1      -0.690  -3.854  -5.100  0.00  0.00    -0.030 C 
ATOM     19  C   UNL     1       0.029  -2.666  -4.442  0.00  0.00    +0.033 C 
ENDROOT
BRANCH   1  25
ATOM     20  C   UNL     1      -0.017   1.378   0.010  0.00  0.00    +0.008 A 
ATOM     21  C   UNL     1       1.171   2.086   0.002  0.00  0.00    +0.033 A 
ATOM     22  C   UNL     1       2.377   1.411  -0.013  0.00  0.00    +0.126 A 
ATOM     23  C   UNL     1       2.396   0.029  -0.020  0.00  0.00    +0.033 A 
ATOM     24  C   UNL     1       1.208  -0.679  -0.012  0.00  0.00    +0.008 A 
ATOM     25  C   UNL     1       0.002  -0.004   0.002  0.00  0.00    -0.027 A 
BRANCH  22  26
ATOM     26  N   UNL     1       3.649   2.168  -0.022  0.00  0.00    +0.056 N 
ATOM     27  O   UNL     1       3.633   3.377  -0.016  0.00  0.00    -0.126 OA
ATOM     28  O   UNL     1       4.704   1.578  -0.035  0.00  0.00    -0.126 OA
ENDBRANCH  22  26
ENDBRANCH   1  25
BRANCH   9  29
ATOM     29  S   UNL     1      -5.191  -6.273  -0.569  0.00  0.00    +0.056 S 
ATOM     30  O   UNL     1      -4.718  -7.356  -1.358  0.00  0.00    -0.153 OA
ATOM     31  O   UNL     1      -5.542  -6.425   0.800  0.00  0.00    -0.153 OA
BRANCH  29  32
ATOM     32  N   UNL     1      -6.532  -5.677  -1.337  0.00  0.00    -0.204 NA
ATOM     33  H   UNL     1      -6.516  -4.785  -1.716  0.00  0.00    +0.144 HD
ATOM     34  H   UNL     1      -7.332  -6.221  -1.408  0.00  0.00    +0.144 HD
ENDBRANCH  29  32
ENDBRANCH   9  29
TORSDOF 4
