REMARK  Name = ZINC39728358
REMARK  9 active torsions:
REMARK  status: ('A' for Active; 'I' for Inactive)
REMARK    1  A    between atoms: C_1  and  C_2
REMARK    2  A    between atoms: C_2  and  C_3
REMARK    3  A    between atoms: N_10  and  O_11
REMARK    4  A    between atoms: O_11  and  C_12
REMARK    5  A    between atoms: C_12  and  C_13
REMARK    6  A    between atoms: C_17  and  C_24
REMARK    7  A    between atoms: C_20  and  C_23
REMARK    8  A    between atoms: N_27  and  C_32
REMARK    9  A    between atoms: N_30  and  C_31
REMARK                            x       y       z     vdW  Elec       q    Type
REMARK                         _______ _______ _______ _____ _____    ______ ____
ROOT
ATOM      1  C   UNL     1       0.789  -0.277   1.292  0.00  0.00    -0.004 C 
ATOM      2  C   UNL     1       0.092  -0.523   2.417  0.00  0.00    +0.118 C 
ATOM      3  N   UNL     1       0.554  -1.224   3.461  0.00  0.00    -0.243 NA
ATOM      4  C   UNL     1       1.753  -1.715   3.508  0.00  0.00    +0.123 C 
ATOM      5  C   UNL     1       2.730  -1.381   2.396  0.00  0.00    +0.191 C 
ATOM      6  C   UNL     1       2.139  -0.720   1.169  0.00  0.00    +0.104 C 
ATOM      7  N   UNL     1       2.820  -0.564   0.073  0.00  0.00    -0.088 NA
ATOM      8  C   UNL     1       3.353  -2.689   1.992  0.00  0.00    +0.239 C 
ATOM      9  O   UNL     1       3.706  -2.872   0.846  0.00  0.00    -0.274 OA
ATOM     10  N   UNL     1       3.516  -3.656   2.917  0.00  0.00    -0.228 N 
ATOM     11  C   UNL     1       3.046  -3.536   4.170  0.00  0.00    +0.316 C 
ATOM     12  O   UNL     1       3.401  -4.330   5.018  0.00  0.00    -0.252 OA
ATOM     13  N   UNL     1       2.184  -2.549   4.506  0.00  0.00    -0.245 N 
ATOM     14  C   UNL     1       1.727  -2.379   5.887  0.00  0.00    +0.141 C 
ATOM     15  C   UNL     1       4.231  -4.880   2.544  0.00  0.00    +0.143 C 
ENDROOT
BRANCH   1  17
ATOM     16  C   UNL     1      -0.424  -0.538  -0.855  0.00  0.00    +0.009 C 
ATOM     17  C   UNL     1       0.138   0.466   0.154  0.00  0.00    +0.035 C 
ENDBRANCH   1  17
BRANCH   7  18
ATOM     18  O   UNL     1       2.185  -0.064  -1.090  0.00  0.00    -0.384 OA
BRANCH  18  19
ATOM     19  C   UNL     1       3.052   0.057  -2.219  0.00  0.00    +0.358 C 
BRANCH  19  20
ATOM     20  C   UNL     1       2.276   0.595  -3.393  0.00  0.00    +0.256 C 
ATOM     21  O   UNL     1       1.096   0.850  -3.275  0.00  0.00    -0.272 OA
ATOM     22  N   UNL     1       2.893   0.793  -4.575  0.00  0.00    -0.294 N 
ATOM     23  C   UNL     1       4.322   0.485  -4.745  0.00  0.00    +0.139 C 
ATOM     24  C   UNL     1       5.008   1.705  -5.371  0.00  0.00    +0.133 C 
ATOM     25  O   UNL     1       4.297   2.091  -6.550  0.00  0.00    -0.371 OA
ATOM     26  C   UNL     1       2.948   2.501  -6.312  0.00  0.00    +0.133 C 
ATOM     27  C   UNL     1       2.155   1.317  -5.736  0.00  0.00    +0.139 C 
ATOM     28  C   UNL     1       2.311   2.949  -7.629  0.00  0.00    +0.039 C 
ATOM     29  C   UNL     1       6.450   1.349  -5.736  0.00  0.00    +0.039 C 
ENDBRANCH  19  20
ENDBRANCH  18  19
ENDBRANCH   7  18
TORSDOF 4
