REMARK  Name = ZINC14189478
REMARK  7 active torsions:
REMARK  status: ('A' for Active; 'I' for Inactive)
REMARK    1  A    between atoms: C_1  and  C_2
REMARK    2  A    between atoms: C_5  and  C_7
REMARK    3  A    between atoms: C_8  and  C_9
REMARK    4  A    between atoms: N_11  and  C_15
REMARK    5  A    between atoms: C_15  and  N_16
REMARK    6  A    between atoms: N_20  and  S_23
REMARK    7  A    between atoms: S_23  and  C_26
REMARK                            x       y       z     vdW  Elec       q    Type
REMARK                         _______ _______ _______ _____ _____    ______ ____
ROOT
ATOM      1  N   UNL     1      -0.700   1.560   1.217  0.00  0.00    +0.394 N 
ATOM      2  C   UNL     1      -0.761   3.020   1.247  0.00  0.00    -0.075 C 
ATOM      3  C   UNL     1      -2.068   3.449   1.875  0.00  0.00    -0.001 C 
ATOM      4  C   UNL     1      -1.872   3.652   3.387  0.00  0.00    +0.107 C 
ATOM      5  N   UNL     1      -1.000   2.609   3.960  0.00  0.00    -0.178 NA
ATOM      6  C   UNL     1      -1.105   1.214   3.585  0.00  0.00    +0.091 C 
ATOM      7  C   UNL     1      -0.185   0.929   2.373  0.00  0.00    -0.059 C 
ATOM      8  H   UNL     1      -1.750   1.232   1.237  0.00  0.00    -0.079 HD
ENDROOT
BRANCH   5   9
ATOM      9  S   UNL     1       0.144   3.050   5.074  0.00  0.00    +0.061 S 
ATOM     10  O   UNL     1      -0.308   4.263   5.661  0.00  0.00    -0.153 OA
ATOM     11  O   UNL     1       0.429   1.891   5.845  0.00  0.00    -0.153 OA
BRANCH   9  12
ATOM     12  C   UNL     1       1.615   3.438   4.186  0.00  0.00    +0.106 A 
ATOM     13  C   UNL     1       2.548   2.451   3.930  0.00  0.00    +0.031 A 
ATOM     14  C   UNL     1       3.700   2.754   3.229  0.00  0.00    +0.040 A 
ATOM     15  C   UNL     1       3.924   4.048   2.791  0.00  0.00    +0.124 A 
ATOM     16  C   UNL     1       2.991   5.037   3.052  0.00  0.00    +0.040 A 
ATOM     17  C   UNL     1       1.837   4.731   3.749  0.00  0.00    +0.031 A 
ATOM     18  F   UNL     1       5.052   4.346   2.110  0.00  0.00    -0.205 F 
ENDBRANCH   9  12
ENDBRANCH   5   9
BRANCH   1  19
ATOM     19  C   UNL     1      -0.013   1.086   0.008  0.00  0.00    +0.072 C 
BRANCH  19  22
ATOM     20  C   UNL     1      -1.285   2.715  -3.003  0.00  0.00    +0.153 A 
ATOM     21  N   UNL     1      -0.316   2.612  -2.030  0.00  0.00    -0.153 NA
ATOM     22  N   UNL     1      -0.721   1.571  -1.179  0.00  0.00    -0.257 N 
ATOM     23  C   UNL     1      -1.886   1.101  -1.669  0.00  0.00    +0.174 A 
ATOM     24  S   UNL     1      -2.801  -0.182  -1.000  0.00  0.00    -0.012 S 
ATOM     25  N   UNL     1      -2.213   1.800  -2.758  0.00  0.00    -0.318 N 
ATOM     26  H   UNL     1      -3.087   1.714  -3.419  0.00  0.00    +0.169 HD
BRANCH  20  28
ATOM     27  C   UNL     1      -2.311   3.630  -4.969  0.00  0.00    +0.050 C 
ATOM     28  C   UNL     1      -1.289   3.635  -4.074  0.00  0.00    +0.051 C 
BRANCH  27  33
ATOM     29  C   UNL     1      -0.912   7.299  -7.999  0.00  0.00    +0.086 C 
ATOM     30  C   UNL     1      -1.710   6.173  -7.394  0.00  0.00    +0.103 A 
ATOM     31  C   UNL     1      -2.882   5.697  -7.871  0.00  0.00    +0.045 A 
ATOM     32  C   UNL     1      -3.283   4.654  -7.022  0.00  0.00    +0.049 A 
ATOM     33  C   UNL     1      -2.316   4.551  -6.043  0.00  0.00    +0.128 A 
ATOM     34  O   UNL     1      -1.373   5.483  -6.295  0.00  0.00    -0.461 OA
ENDBRANCH  27  33
ENDBRANCH  20  28
ENDBRANCH  19  22
ENDBRANCH   1  19
TORSDOF 6
