REMARK  Name = ZINC39914732
REMARK  10 active torsions:
REMARK  status: ('A' for Active; 'I' for Inactive)
REMARK    1  A    between atoms: C_1  and  C_2
REMARK    2  A    between atoms: C_2  and  O_3
REMARK    3  A    between atoms: O_3  and  C_4
REMARK    4  A    between atoms: C_7  and  C_10
REMARK    5  A    between atoms: C_13  and  C_29
REMARK    6  A    between atoms: N_20  and  C_21
REMARK    7  A    between atoms: C_21  and  C_22
REMARK    8  A    between atoms: C_25  and  C_28
REMARK    9  A    between atoms: C_32  and  C_36
REMARK   10  A    between atoms: C_34  and  O_35
REMARK                            x       y       z     vdW  Elec       q    Type
REMARK                         _______ _______ _______ _____ _____    ______ ____
ROOT
ATOM      1  C   UNL     1       1.121  -6.008  -1.858  0.00  0.00    +0.142 C 
ATOM      2  C   UNL     1       2.524  -6.472  -1.574  0.00  0.00    +0.035 A 
ATOM      3  C   UNL     1       3.567  -6.577  -0.647  0.00  0.00    +0.102 A 
ATOM      4  N   UNL     1       4.572  -7.179  -1.251  0.00  0.00    -0.173 NA
ATOM      5  N   UNL     1       4.267  -7.465  -2.466  0.00  0.00    -0.272 N 
ATOM      6  H   UNL     1       4.854  -7.911  -3.097  0.00  0.00    +0.189 HD
ATOM      7  C   UNL     1       2.995  -7.050  -2.737  0.00  0.00    +0.126 A 
ATOM      8  C   UNL     1       1.942  -6.971  -3.756  0.00  0.00    +0.266 C 
ATOM      9  O   UNL     1       2.043  -7.393  -4.893  0.00  0.00    -0.268 OA
ATOM     10  N   UNL     1       0.848  -6.368  -3.255  0.00  0.00    -0.281 N 
ENDROOT
BRANCH   3  11
ATOM     11  C   UNL     1       3.545  -6.097   0.757  0.00  0.00    +0.045 A 
ATOM     12  C   UNL     1       2.370  -5.587   1.304  0.00  0.00    +0.034 A 
ATOM     13  C   UNL     1       2.355  -5.142   2.612  0.00  0.00    +0.045 A 
ATOM     14  C   UNL     1       3.506  -5.200   3.381  0.00  0.00    -0.029 A 
ATOM     15  C   UNL     1       4.676  -5.703   2.846  0.00  0.00    +0.050 A 
ATOM     16  C   UNL     1       4.703  -6.159   1.538  0.00  0.00    +0.126 A 
ATOM     17  C   UNL     1       3.481  -4.712   4.806  0.00  0.00    +0.045 C 
ATOM     18 CL   UNL     1       0.890  -4.507   3.293  0.00  0.00    -0.083 Cl
BRANCH  16  19
ATOM     19  O   UNL     1       5.852  -6.660   1.014  0.00  0.00    -0.506 OA
ATOM     20  H   UNL     1       6.412  -5.996   0.589  0.00  0.00    +0.292 HD
ENDBRANCH  16  19
ENDBRANCH   3  11
BRANCH   1  24
ATOM     21  C   UNL     1       0.840  -1.775  -1.348  0.00  0.00    +0.121 A 
ATOM     22  C   UNL     1       1.649  -2.302  -2.344  0.00  0.00    +0.046 A 
ATOM     23  C   UNL     1       1.739  -3.671  -2.506  0.00  0.00    +0.009 A 
ATOM     24  C   UNL     1       1.022  -4.515  -1.678  0.00  0.00    -0.022 A 
ATOM     25  C   UNL     1       0.215  -3.992  -0.685  0.00  0.00    +0.009 A 
ATOM     26  C   UNL     1       0.127  -2.624  -0.514  0.00  0.00    +0.046 A 
BRANCH  21  27
ATOM     27  O   UNL     1       0.751  -0.428  -1.185  0.00  0.00    -0.492 OA
BRANCH  27  29
ATOM     28  C   UNL     1       1.287   1.861  -1.746  0.00  0.00    +0.048 C 
ATOM     29  C   UNL     1       1.513   0.385  -2.080  0.00  0.00    +0.225 C 
ENDBRANCH  27  29
ENDBRANCH  21  27
ENDBRANCH   1  24
BRANCH  10  30
ATOM     30  C   UNL     1      -0.401  -6.114  -3.978  0.00  0.00    +0.144 C 
BRANCH  30  31
ATOM     31  C   UNL     1      -0.328  -4.767  -4.649  0.00  0.00    -0.030 A 
ATOM     32  C   UNL     1      -0.752  -3.636  -3.976  0.00  0.00    +0.005 A 
ATOM     33  C   UNL     1      -0.685  -2.400  -4.591  0.00  0.00    +0.003 A 
ATOM     34  C   UNL     1      -0.194  -2.295  -5.879  0.00  0.00    -0.050 A 
ATOM     35  C   UNL     1       0.230  -3.425  -6.551  0.00  0.00    +0.003 A 
ATOM     36  C   UNL     1       0.167  -4.661  -5.935  0.00  0.00    +0.005 A 
ATOM     37  C   UNL     1      -0.122  -0.947  -6.550  0.00  0.00    +0.044 C 
ENDBRANCH  30  31
ENDBRANCH  10  30
TORSDOF 7
