REMARK  Name = ZINC38775128
REMARK  4 active torsions:
REMARK  status: ('A' for Active; 'I' for Inactive)
REMARK    1  A    between atoms: C_12  and  C_16
REMARK    2  A    between atoms: N_18  and  C_19
REMARK    3  A    between atoms: C_19  and  C_20
REMARK    4  A    between atoms: C_20  and  N_21
REMARK                            x       y       z     vdW  Elec       q    Type
REMARK                         _______ _______ _______ _____ _____    ______ ____
ROOT
ATOM      1  C   UNL     1       7.418  -0.040  -0.324  0.00  0.00    +0.251 C 
ATOM      2  O   UNL     1       7.511   1.158  -0.130  0.00  0.00    -0.270 OA
ATOM      3  N   UNL     1       8.524  -0.774  -0.552  0.00  0.00    -0.310 N 
ATOM      4  H   UNL     1       8.450  -1.729  -0.707  0.00  0.00    +0.149 HD
ENDROOT
BRANCH   1  16
ATOM      5  C   UNL     1      -0.016   1.359   0.009  0.00  0.00    +0.001 A 
ATOM      6  C   UNL     1       1.167   2.090   0.002  0.00  0.00    +0.001 A 
ATOM      7  C   UNL     1       2.378   1.461  -0.014  0.00  0.00    +0.009 A 
ATOM      8  C   UNL     1       2.433   0.065  -0.022  0.00  0.00    -0.007 A 
ATOM      9  C   UNL     1       1.231  -0.683  -0.012  0.00  0.00    -0.017 A 
ATOM     10  C   UNL     1       0.002  -0.004   0.002  0.00  0.00    +0.008 A 
ATOM     11  C   UNL     1       1.288  -2.090  -0.016  0.00  0.00    +0.012 A 
ATOM     12  C   UNL     1       2.478  -2.744  -0.019  0.00  0.00    +0.047 A 
ATOM     13  C   UNL     1       3.694  -2.057  -0.028  0.00  0.00    +0.140 A 
ATOM     14  C   UNL     1       3.708  -0.654  -0.044  0.00  0.00    +0.026 A 
ATOM     15  C   UNL     1       4.932   0.043  -0.075  0.00  0.00    +0.032 A 
ATOM     16  C   UNL     1       6.096  -0.686  -0.308  0.00  0.00    +0.122 A 
ATOM     17  C   UNL     1       5.946  -2.133  -0.539  0.00  0.00    +0.350 A 
ATOM     18  O   UNL     1       6.767  -2.757  -1.184  0.00  0.00    -0.244 OA
ATOM     19  O   UNL     1       4.861  -2.744  -0.006  0.00  0.00    -0.422 OA
ENDBRANCH   1  16
BRANCH   3  20
ATOM     20  C   UNL     1       9.840  -0.130  -0.568  0.00  0.00    +0.120 C 
BRANCH  20  21
ATOM     21  C   UNL     1      10.918  -1.179  -0.847  0.00  0.00    +0.103 C 
BRANCH  21  22
ATOM     22  N   UNL     1      12.238  -0.533  -0.863  0.00  0.00    -0.298 NA
ATOM     23  C   UNL     1      12.352   0.404  -1.988  0.00  0.00    +0.103 C 
ATOM     24  C   UNL     1      13.664   1.186  -1.866  0.00  0.00    +0.122 C 
ATOM     25  N   UNL     1      14.771   0.226  -1.742  0.00  0.00    -0.307 N 
ATOM     26  C   UNL     1      14.665  -0.831  -0.723  0.00  0.00    +0.122 C 
ATOM     27  C   UNL     1      13.313  -1.534  -0.891  0.00  0.00    +0.103 C 
ATOM     28  C   UNL     1      15.880   0.313  -2.559  0.00  0.00    +0.162 A 
ATOM     29  N   UNL     1      16.139   1.185  -3.506  0.00  0.00    -0.223 NA
ATOM     30  C   UNL     1      17.277   1.149  -4.234  0.00  0.00    +0.099 A 
ATOM     31  C   UNL     1      18.177   0.109  -3.912  0.00  0.00    +0.042 A 
ATOM     32  S   UNL     1      17.332  -0.729  -2.592  0.00  0.00    -0.052 S 
ATOM     33  C   UNL     1      19.375  -0.061  -4.559  0.00  0.00    +0.017 A 
ATOM     34  C   UNL     1      19.734   0.810  -5.572  0.00  0.00    +0.003 A 
ATOM     35  C   UNL     1      18.875   1.843  -5.916  0.00  0.00    +0.022 A 
ATOM     36  C   UNL     1      17.676   2.022  -5.273  0.00  0.00    +0.067 A 
ATOM     37 CL   UNL     1      16.637   3.331  -5.742  0.00  0.00    -0.081 Cl
ENDBRANCH  21  22
ENDBRANCH  20  21
ENDBRANCH   3  20
TORSDOF 4
