REMARK  Name = ZINC20691143
REMARK  6 active torsions:
REMARK  status: ('A' for Active; 'I' for Inactive)
REMARK    1  A    between atoms: C_1  and  C_2
REMARK    2  A    between atoms: C_4  and  C_29
REMARK    3  A    between atoms: C_5  and  C_9
REMARK    4  A    between atoms: C_6  and  C_8
REMARK    5  A    between atoms: C_20  and  S_25
REMARK    6  A    between atoms: S_25  and  N_28
REMARK                            x       y       z     vdW  Elec       q    Type
REMARK                         _______ _______ _______ _____ _____    ______ ____
ROOT
ATOM      1  C   UNL     1       1.505   0.989   1.096  0.00  0.00    +0.105 C 
ATOM      2  C   UNL     1       0.297   1.012   2.015  0.00  0.00    +0.029 C 
ATOM      3  C   UNL     1       0.385   1.901   3.263  0.00  0.00    +0.033 C 
ATOM      4  C   UNL     1      -0.527   1.153   4.239  0.00  0.00    -0.030 C 
ATOM      5  C   UNL     1      -0.576  -0.134   3.918  0.00  0.00    -0.023 C 
ATOM      6  C   UNL     1       0.305  -0.365   2.745  0.00  0.00    +0.049 C 
ATOM      7  C   UNL     1       0.018  -1.413   1.743  0.00  0.00    -0.018 A 
ATOM      8  C   UNL     1      -0.711  -2.544   2.042  0.00  0.00    +0.034 A 
ATOM      9  C   UNL     1      -0.940  -3.503   1.073  0.00  0.00    +0.105 A 
ATOM     10  C   UNL     1      -0.435  -3.331  -0.203  0.00  0.00    +0.030 A 
ATOM     11  C   UNL     1       0.291  -2.200  -0.514  0.00  0.00    +0.025 A 
ATOM     12  C   UNL     1       0.521  -1.226   0.450  0.00  0.00    +0.031 A 
ATOM     13  N   UNL     1       1.230  -0.070   0.101  0.00  0.00    -0.336 N 
ATOM     14  H   UNL     1       1.583   0.042  -0.934  0.00  0.00    +0.147 HD
ENDROOT
BRANCH   1  19
ATOM     15  C   UNL     1       6.284  -0.277   4.089  0.00  0.00    +0.044 C 
ATOM     16  C   UNL     1       5.038   0.054   3.308  0.00  0.00    -0.050 A 
ATOM     17  C   UNL     1       4.430  -0.917   2.533  0.00  0.00    +0.007 A 
ATOM     18  C   UNL     1       3.287  -0.614   1.817  0.00  0.00    -0.045 A 
ATOM     19  C   UNL     1       2.752   0.659   1.876  0.00  0.00    -0.021 A 
ATOM     20  C   UNL     1       3.362   1.631   2.646  0.00  0.00    -0.045 A 
ATOM     21  C   UNL     1       4.503   1.327   3.366  0.00  0.00    +0.007 A 
ATOM     22  C   UNL     1       2.782   3.021   2.706  0.00  0.00    +0.044 C 
ATOM     23  C   UNL     1       2.624  -1.672   0.973  0.00  0.00    +0.044 C 
ENDBRANCH   1  19
BRANCH   9  24
ATOM     24  S   UNL     1      -1.874  -4.945   1.465  0.00  0.00    +0.056 S 
ATOM     25  O   UNL     1      -1.483  -5.947   0.535  0.00  0.00    -0.153 OA
ATOM     26  O   UNL     1      -1.770  -5.128   2.870  0.00  0.00    -0.153 OA
BRANCH  24  27
ATOM     27  N   UNL     1      -3.462  -4.600   1.149  0.00  0.00    -0.204 NA
ATOM     28  H   UNL     1      -4.082  -5.479   1.381  0.00  0.00    +0.144 HD
ATOM     29  H   UNL     1      -3.577  -4.341   0.086  0.00  0.00    +0.144 HD
ENDBRANCH  24  27
ENDBRANCH   9  24
TORSDOF 3
