REMARK  Name = ZINC12710880
REMARK  6 active torsions:
REMARK  status: ('A' for Active; 'I' for Inactive)
REMARK    1  A    between atoms: C_4  and  C_7
REMARK    2  A    between atoms: C_7  and  N_8
REMARK    3  A    between atoms: N_11  and  C_12
REMARK    4  A    between atoms: N_11  and  C_18
REMARK    5  A    between atoms: C_12  and  C_13
REMARK    6  A    between atoms: C_18  and  C_19
REMARK                            x       y       z     vdW  Elec       q    Type
REMARK                         _______ _______ _______ _____ _____    ______ ____
ROOT
ATOM      1  N   UNL     1      -5.559  -0.300   3.430  0.00  0.00    -0.295 N 
ATOM      2  C   UNL     1      -5.123  -0.177   2.160  0.00  0.00    +0.303 C 
ATOM      3  O   UNL     1      -4.429  -1.046   1.669  0.00  0.00    -0.253 OA
ATOM      4  N   UNL     1      -5.458   0.908   1.435  0.00  0.00    -0.276 N 
ATOM      5  H   UNL     1      -6.113   0.393   3.822  0.00  0.00    +0.151 HD
ENDROOT
BRANCH   1   6
ATOM      6  C   UNL     1      -5.195  -1.481   4.218  0.00  0.00    +0.141 C 
BRANCH   6  10
ATOM      7  C   UNL     1      -6.921  -1.179   8.114  0.00  0.00    +0.000 A 
ATOM      8  C   UNL     1      -7.623  -1.791   7.093  0.00  0.00    +0.000 A 
ATOM      9  C   UNL     1      -7.065  -1.889   5.832  0.00  0.00    +0.005 A 
ATOM     10  C   UNL     1      -5.804  -1.374   5.593  0.00  0.00    -0.030 A 
ATOM     11  C   UNL     1      -5.100  -0.767   6.615  0.00  0.00    +0.005 A 
ATOM     12  C   UNL     1      -5.660  -0.665   7.875  0.00  0.00    +0.000 A 
ENDBRANCH   6  10
ENDBRANCH   1   6
BRANCH   4  13
ATOM     13  C   UNL     1      -6.295   1.955   2.028  0.00  0.00    +0.152 C 
BRANCH  13  14
ATOM     14  C   UNL     1      -7.746   1.645   1.767  0.00  0.00    +0.007 A 
ATOM     15  C   UNL     1      -8.612   0.920   2.516  0.00  0.00    +0.013 A 
ATOM     16  C   UNL     1      -9.915   0.769   2.077  0.00  0.00    +0.008 A 
ATOM     17  C   UNL     1     -10.284   1.342   0.905  0.00  0.00    +0.045 A 
ATOM     18  S   UNL     1      -8.769   2.132   0.387  0.00  0.00    -0.100 S 
ENDBRANCH  13  14
ENDBRANCH   4  13
BRANCH   4  19
ATOM     19  C   UNL     1      -4.985   1.042   0.056  0.00  0.00    +0.150 C 
BRANCH  19  20
ATOM     20  C   UNL     1      -3.658   1.756   0.046  0.00  0.00    +0.035 A 
ATOM     21  C   UNL     1      -2.505   1.040   0.031  0.00  0.00    +0.020 A 
ATOM     22  C   UNL     1      -1.233   1.762   0.018  0.00  0.00    +0.003 A 
ATOM     23  C   UNL     1      -0.013   1.076   0.008  0.00  0.00    +0.059 A 
ATOM     24  C   UNL     1       1.169   1.783   0.001  0.00  0.00    +0.167 A 
ATOM     25  C   UNL     1       1.153   3.184   0.007  0.00  0.00    +0.168 A 
ATOM     26  C   UNL     1      -0.048   3.870   0.022  0.00  0.00    +0.075 A 
ATOM     27  C   UNL     1      -1.248   3.171   0.030  0.00  0.00    +0.053 A 
ATOM     28  N   UNL     1      -2.456   3.839   0.046  0.00  0.00    -0.322 N 
ATOM     29  H   UNL     1      -2.465   4.809   0.051  0.00  0.00    +0.169 HD
ATOM     30  C   UNL     1      -3.619   3.165   0.054  0.00  0.00    +0.254 A 
ATOM     31  O   UNL     1      -4.667   3.788   0.069  0.00  0.00    -0.268 OA
ATOM     32  O   UNL     1       2.442   3.631  -0.003  0.00  0.00    -0.453 OA
ATOM     33  C   UNL     1       3.244   2.506   0.399  0.00  0.00    +0.466 C 
ATOM     34  O   UNL     1       2.469   1.365  -0.013  0.00  0.00    -0.453 OA
ENDBRANCH  19  20
ENDBRANCH   4  19
TORSDOF 6
