REMARK  Name = ZINC39315044
REMARK  2 active torsions:
REMARK  status: ('A' for Active; 'I' for Inactive)
REMARK    1  A    between atoms: C_4  and  C_7
REMARK    2  A    between atoms: C_9  and  C_21
REMARK                            x       y       z     vdW  Elec       q    Type
REMARK                         _______ _______ _______ _____ _____    ______ ____
ROOT
ATOM      1  C   UNL     1       3.697  -0.686  -0.037  0.00  0.00    +0.134 C 
ATOM      2  C   UNL     1       3.683  -2.007  -0.050  0.00  0.00    +0.029 C 
ATOM      3  C   UNL     1       4.934  -2.842  -0.052  0.00  0.00    +0.066 C 
ATOM      4  C   UNL     1       6.117  -1.984  -0.518  0.00  0.00    +0.170 C 
ATOM      5  C   UNL     1       7.409  -2.649  -0.143  0.00  0.00    +0.233 C 
ATOM      6  O   UNL     1       7.645  -3.762  -0.562  0.00  0.00    -0.275 OA
ATOM      7  N   UNL     1       8.309  -2.040   0.645  0.00  0.00    -0.238 N 
ATOM      8  C   UNL     1       8.087  -0.813   1.142  0.00  0.00    +0.332 C 
ATOM      9  O   UNL     1       8.943  -0.286   1.826  0.00  0.00    -0.250 OA
ATOM     10  N   UNL     1       6.944  -0.154   0.903  0.00  0.00    -0.131 NA
ATOM     11  C   UNL     1       5.994  -0.637   0.155  0.00  0.00    +0.203 C 
ATOM     12  O   UNL     1       4.842   0.042  -0.045  0.00  0.00    -0.443 OA
ATOM     13  H   UNL     1       9.137  -2.497   0.860  0.00  0.00    +0.159 HD
ENDROOT
BRANCH   3  14
ATOM     14  C   UNL     1       5.200  -3.353   1.341  0.00  0.00    -0.039 A 
ATOM     15  C   UNL     1       5.391  -2.461   2.379  0.00  0.00    +0.005 A 
ATOM     16  C   UNL     1       5.635  -2.929   3.657  0.00  0.00    +0.015 A 
ATOM     17  C   UNL     1       5.689  -4.290   3.896  0.00  0.00    +0.018 A 
ATOM     18  C   UNL     1       5.498  -5.183   2.857  0.00  0.00    +0.015 A 
ATOM     19  C   UNL     1       5.249  -4.714   1.580  0.00  0.00    +0.005 A 
ATOM     20 BR   UNL     1       6.023  -4.931   5.644  0.00  0.00    -0.050 Br
ENDBRANCH   3  14
BRANCH   1  24
ATOM     21  C   UNL     1      -0.017   1.379   0.010  0.00  0.00    +0.000 A 
ATOM     22  C   UNL     1       1.169   2.093   0.002  0.00  0.00    +0.001 A 
ATOM     23  C   UNL     1       2.377   1.428  -0.013  0.00  0.00    +0.011 A 
ATOM     24  C   UNL     1       2.403   0.033  -0.021  0.00  0.00    +0.017 A 
ATOM     25  C   UNL     1       1.205  -0.680  -0.013  0.00  0.00    +0.011 A 
ATOM     26  C   UNL     1       0.002  -0.004   0.002  0.00  0.00    +0.001 A 
ENDBRANCH   1  24
TORSDOF 2
