REMARK  Name = ZINC63411316
REMARK  4 active torsions:
REMARK  status: ('A' for Active; 'I' for Inactive)
REMARK    1  A    between atoms: C_1  and  C_2
REMARK    2  A    between atoms: C_4  and  C_8
REMARK    3  A    between atoms: N_10  and  N_11
REMARK    4  A    between atoms: C_12  and  C_13
REMARK                            x       y       z     vdW  Elec       q    Type
REMARK                         _______ _______ _______ _____ _____    ______ ____
ROOT
ATOM      1  C   UNL     1      -1.192  -2.431   1.515  0.00  0.00    +0.262 C 
ATOM      2  O   UNL     1      -0.263  -2.907   2.132  0.00  0.00    -0.271 OA
ATOM      3  N   UNL     1      -2.429  -2.947   1.654  0.00  0.00    -0.205 N 
ATOM      4  H   UNL     1      -3.172  -2.566   1.160  0.00  0.00    +0.177 HD
ENDROOT
BRANCH   1   8
ATOM      5  C   UNL     1      -0.118   2.130   1.891  0.00  0.00    +0.067 C 
ATOM      6  C   UNL     1      -0.239   0.746   1.308  0.00  0.00    +0.059 C 
ATOM      7  C   UNL     1      -1.371   0.039   1.263  0.00  0.00    +0.035 C 
ATOM      8  C   UNL     1      -0.963  -1.261   0.593  0.00  0.00    +0.240 C 
ATOM      9  N   UNL     1       0.475  -1.066   0.340  0.00  0.00    -0.170 NA
ATOM     10  N   UNL     1       0.781   0.054   0.756  0.00  0.00    -0.159 NA
ENDBRANCH   1   8
BRANCH   3  11
ATOM     11  N   UNL     1      -2.642  -4.035   2.511  0.00  0.00    -0.188 NA
ATOM     12  C   UNL     1      -3.806  -4.607   2.556  0.00  0.00    +0.138 C 
BRANCH  12  13
ATOM     13  C   UNL     1      -4.742  -4.464   1.426  0.00  0.00    -0.004 A 
ATOM     14  C   UNL     1      -4.293  -3.964   0.201  0.00  0.00    +0.009 A 
ATOM     15  C   UNL     1      -5.174  -3.833  -0.852  0.00  0.00    +0.002 A 
ATOM     16  C   UNL     1      -6.500  -4.196  -0.698  0.00  0.00    +0.015 A 
ATOM     17  C   UNL     1      -6.953  -4.692   0.512  0.00  0.00    +0.018 A 
ATOM     18  C   UNL     1      -6.081  -4.834   1.573  0.00  0.00    +0.024 A 
ATOM     19 BR   UNL     1      -8.768  -5.184   0.711  0.00  0.00    -0.050 Br
ENDBRANCH  12  13
ENDBRANCH   3  11
TORSDOF 3
