REMARK  Name = ZINC12489509
REMARK  11 active torsions:
REMARK  status: ('A' for Active; 'I' for Inactive)
REMARK    1  A    between atoms: C_1  and  C_2
REMARK    2  A    between atoms: C_6  and  N_9
REMARK    3  A    between atoms: C_7  and  C_8
REMARK    4  A    between atoms: N_9  and  C_10
REMARK    5  A    between atoms: C_10  and  C_12
REMARK    6  A    between atoms: C_10  and  C_18
REMARK    7  A    between atoms: N_20  and  C_21
REMARK    8  A    between atoms: C_21  and  C_22
REMARK    9  A    between atoms: C_28  and  C_30
REMARK   10  A    between atoms: C_30  and  N_31
REMARK   11  A    between atoms: C_32  and  C_34
REMARK                            x       y       z     vdW  Elec       q    Type
REMARK                         _______ _______ _______ _____ _____    ______ ____
ROOT
ATOM      1  N   UNL     1      -3.432   3.161  -0.955  0.00  0.00    -0.254 N 
ATOM      2  C   UNL     1      -3.872   3.771  -2.074  0.00  0.00    +0.238 C 
ATOM      3  O   UNL     1      -3.558   4.920  -2.302  0.00  0.00    -0.274 OA
ENDROOT
BRANCH   1   9
ATOM      4  C   UNL     1      -2.384  -1.637  -1.181  0.00  0.00    +0.044 C 
ATOM      5  C   UNL     1      -3.305  -0.510  -0.791  0.00  0.00    -0.046 A 
ATOM      6  C   UNL     1      -4.511  -0.786  -0.173  0.00  0.00    +0.004 A 
ATOM      7  C   UNL     1      -5.359   0.245   0.186  0.00  0.00    +0.002 A 
ATOM      8  C   UNL     1      -5.005   1.555  -0.072  0.00  0.00    +0.024 A 
ATOM      9  C   UNL     1      -3.795   1.836  -0.692  0.00  0.00    +0.041 A 
ATOM     10  C   UNL     1      -2.947   0.797  -1.057  0.00  0.00    -0.026 A 
ATOM     11  C   UNL     1      -1.636   1.097  -1.736  0.00  0.00    +0.046 C 
ENDBRANCH   1   9
BRANCH   1  12
ATOM     12  C   UNL     1      -2.575   3.887  -0.014  0.00  0.00    +0.197 C 
BRANCH  12  13
ATOM     13  C   UNL     1      -2.117   2.950   1.073  0.00  0.00    -0.018 A 
ATOM     14  C   UNL     1      -3.045   2.345   1.901  0.00  0.00    +0.006 A 
ATOM     15  C   UNL     1      -2.625   1.488   2.901  0.00  0.00    +0.000 A 
ATOM     16  C   UNL     1      -1.277   1.229   3.068  0.00  0.00    +0.000 A 
ATOM     17  C   UNL     1      -0.350   1.831   2.239  0.00  0.00    +0.000 A 
ATOM     18  C   UNL     1      -0.770   2.691   1.241  0.00  0.00    +0.006 A 
ENDBRANCH  12  13
BRANCH  12  19
ATOM     19  C   UNL     1      -3.351   5.025   0.597  0.00  0.00    +0.239 C 
ATOM     20  O   UNL     1      -4.506   5.212   0.279  0.00  0.00    -0.273 OA
ATOM     21  N   UNL     1      -2.761   5.835   1.498  0.00  0.00    -0.311 N 
ATOM     22  H   UNL     1      -1.837   5.686   1.754  0.00  0.00    +0.149 HD
BRANCH  21  23
ATOM     23  C   UNL     1      -3.516   6.941   2.093  0.00  0.00    +0.135 C 
BRANCH  23  24
ATOM     24  C   UNL     1      -2.620   7.699   3.076  0.00  0.00    +0.135 C 
ATOM     25  C   UNL     1      -3.405   8.866   3.707  0.00  0.00    +0.035 C 
ATOM     26  C   UNL     1      -3.353   8.579   5.227  0.00  0.00    +0.031 C 
ATOM     27  C   UNL     1      -2.130   7.634   5.338  0.00  0.00    +0.160 C 
ATOM     28  O   UNL     1      -2.220   6.826   4.145  0.00  0.00    -0.375 OA
ENDBRANCH  23  24
ENDBRANCH  21  23
ENDBRANCH  12  19
ENDBRANCH   1  12
BRANCH   2  29
ATOM     29  C   UNL     1      -4.753   3.025  -3.042  0.00  0.00    +0.201 C 
BRANCH  29  30
ATOM     30  N   UNL     1      -5.093   3.899  -4.167  0.00  0.00    -0.302 N 
ATOM     31  C   UNL     1      -5.877   3.442  -5.163  0.00  0.00    +0.251 C 
ATOM     32  O   UNL     1      -6.304   2.303  -5.127  0.00  0.00    -0.270 OA
ATOM     33  H   UNL     1      -4.752   4.807  -4.196  0.00  0.00    +0.150 HD
BRANCH  31  34
ATOM     34  C   UNL     1      -6.217   4.317  -6.289  0.00  0.00    +0.074 A 
ATOM     35  C   UNL     1      -6.999   4.046  -7.401  0.00  0.00    +0.021 A 
ATOM     36  C   UNL     1      -7.157   5.058  -8.316  0.00  0.00    +0.008 A 
ATOM     37  C   UNL     1      -6.551   6.254  -8.093  0.00  0.00    +0.046 A 
ATOM     38  S   UNL     1      -5.737   6.011  -6.582  0.00  0.00    -0.092 S 
ENDBRANCH  31  34
ENDBRANCH  29  30
ENDBRANCH   2  29
TORSDOF 9
