REMARK  Name = ZINC09134924
REMARK  11 active torsions:
REMARK  status: ('A' for Active; 'I' for Inactive)
REMARK    1  A    between atoms: C_1  and  C_2
REMARK    2  A    between atoms: C_9  and  C_38
REMARK    3  A    between atoms: C_10  and  C_17
REMARK    4  A    between atoms: C_15  and  C_16
REMARK    5  A    between atoms: C_17  and  C_18
REMARK    6  A    between atoms: N_20  and  C_21
REMARK    7  A    between atoms: C_21  and  C_22
REMARK    8  A    between atoms: C_22  and  C_24
REMARK    9  A    between atoms: C_22  and  C_31
REMARK   10  A    between atoms: C_24  and  C_25
REMARK   11  A    between atoms: N_27  and  C_28
REMARK                            x       y       z     vdW  Elec       q    Type
REMARK                         _______ _______ _______ _____ _____    ______ ____
ROOT
ATOM      1  C   UNL     1      -7.348   1.532  -0.324  0.00  0.00    +0.218 C 
ATOM      2  O   UNL     1      -7.557   0.338  -0.341  0.00  0.00    -0.275 OA
ATOM      3  N   UNL     1      -6.087   1.994  -0.204  0.00  0.00    -0.314 N 
ATOM      4  H   UNL     1      -5.920   2.949  -0.191  0.00  0.00    +0.149 HD
ENDROOT
BRANCH   1   5
ATOM      5  C   UNL     1      -8.497   2.500  -0.436  0.00  0.00    +0.138 C 
BRANCH   5  15
ATOM      6  C   UNL     1     -13.815  -0.925  -5.673  0.00  0.00    +0.047 C 
ATOM      7  C   UNL     1     -14.085  -0.998  -4.193  0.00  0.00    -0.005 A 
ATOM      8  C   UNL     1     -15.134  -1.577  -3.594  0.00  0.00    +0.199 A 
ATOM      9  O   UNL     1     -15.040  -1.444  -2.259  0.00  0.00    -0.462 OA
ATOM     10  C   UNL     1     -13.923  -0.770  -1.918  0.00  0.00    +0.141 A 
ATOM     11  C   UNL     1     -13.252  -0.447  -3.115  0.00  0.00    +0.024 A 
ATOM     12  C   UNL     1     -12.056   0.257  -3.083  0.00  0.00    +0.023 A 
ATOM     13  C   UNL     1     -11.522   0.640  -1.853  0.00  0.00    +0.022 A 
ATOM     14  C   UNL     1     -10.263   1.390  -1.783  0.00  0.00    -0.029 A 
ATOM     15  C   UNL     1      -9.789   1.734  -0.558  0.00  0.00    +0.049 A 
ATOM     16  C   UNL     1     -10.512   1.377   0.600  0.00  0.00    +0.341 A 
ATOM     17  O   UNL     1     -10.078   1.697   1.692  0.00  0.00    -0.245 OA
ATOM     18  O   UNL     1     -11.666   0.696   0.530  0.00  0.00    -0.422 OA
ATOM     19  C   UNL     1     -12.193   0.317  -0.656  0.00  0.00    +0.146 A 
ATOM     20  C   UNL     1     -13.386  -0.384  -0.699  0.00  0.00    +0.035 A 
ATOM     21  C   UNL     1     -14.102  -0.729   0.582  0.00  0.00    +0.051 C 
ATOM     22  C   UNL     1      -9.514   1.763  -3.036  0.00  0.00    +0.045 C 
ENDBRANCH   5  15
ENDBRANCH   1   5
BRANCH   3  23
ATOM     23  C   UNL     1      -4.970   1.053  -0.094  0.00  0.00    +0.112 C 
BRANCH  23  24
ATOM     24  C   UNL     1      -3.658   1.831   0.029  0.00  0.00    +0.045 C 
BRANCH  24  25
ATOM     25  C   UNL     1      -3.655   2.607   1.321  0.00  0.00    -0.042 A 
ATOM     26  C   UNL     1      -3.768   1.941   2.527  0.00  0.00    +0.005 A 
ATOM     27  C   UNL     1      -3.759   2.652   3.713  0.00  0.00    +0.020 A 
ATOM     28  C   UNL     1      -3.647   4.030   3.692  0.00  0.00    +0.041 A 
ATOM     29  C   UNL     1      -3.539   4.697   2.484  0.00  0.00    +0.020 A 
ATOM     30  C   UNL     1      -3.543   3.985   1.300  0.00  0.00    +0.005 A 
ATOM     31 CL   UNL     1      -3.643   4.924   5.180  0.00  0.00    -0.084 Cl
ENDBRANCH  24  25
BRANCH  24  32
ATOM     32  C   UNL     1      -2.482   0.853   0.018  0.00  0.00    +0.105 C 
BRANCH  32  33
ATOM     33  C   UNL     1      -1.187   1.624   0.017  0.00  0.00    +0.214 C 
ATOM     34  O   UNL     1      -1.204   2.837   0.023  0.00  0.00    -0.276 OA
ATOM     35  N   UNL     1      -0.011   0.966   0.007  0.00  0.00    -0.312 N 
ATOM     36  H   UNL     1       0.002  -0.004   0.002  0.00  0.00    +0.149 HD
BRANCH  35  37
ATOM     37  C   UNL     1       1.248   1.716  -0.001  0.00  0.00    +0.073 C 
ATOM     38  C   UNL     1       2.348   1.238  -0.950  0.00  0.00    +0.024 C 
ATOM     39  C   UNL     1       2.489   1.017   0.557  0.00  0.00    +0.024 C 
ENDBRANCH  35  37
ENDBRANCH  32  33
ENDBRANCH  24  32
ENDBRANCH  23  24
ENDBRANCH   3  23
TORSDOF 8
