REMARK  Name = ZINC21249155
REMARK  12 active torsions:
REMARK  status: ('A' for Active; 'I' for Inactive)
REMARK    1  A    between atoms: C_1  and  C_2
REMARK    2  A    between atoms: C_2  and  C_3
REMARK    3  A    between atoms: C_2  and  O_4
REMARK    4  A    between atoms: O_4  and  C_5
REMARK    5  A    between atoms: C_8  and  C_13
REMARK    6  A    between atoms: C_10  and  O_11
REMARK    7  A    between atoms: O_11  and  C_12
REMARK    8  A    between atoms: C_18  and  C_23
REMARK    9  A    between atoms: C_25  and  O_31
REMARK   10  A    between atoms: C_28  and  O_29
REMARK   11  A    between atoms: O_29  and  C_30
REMARK   12  A    between atoms: O_31  and  C_32
REMARK                            x       y       z     vdW  Elec       q    Type
REMARK                         _______ _______ _______ _____ _____    ______ ____
ROOT
ATOM      1  C   UNL     1       1.843  -2.704   1.232  0.00  0.00    +0.136 C 
ATOM      2  C   UNL     1       3.322  -2.644   1.530  0.00  0.00    +0.036 C 
ATOM      3  C   UNL     1       4.198  -1.773   1.001  0.00  0.00    +0.017 C 
ATOM      4  C   UNL     1       5.659  -1.804   1.419  0.00  0.00    +0.060 C 
ATOM      5  C   UNL     1       6.081  -3.241   1.722  0.00  0.00    +0.036 C 
ATOM      6  C   UNL     1       5.196  -3.756   2.862  0.00  0.00    +0.088 C 
ATOM      7  C   UNL     1       3.760  -3.623   2.452  0.00  0.00    +0.163 C 
ATOM      8  O   UNL     1       2.942  -4.385   2.929  0.00  0.00    -0.292 OA
ATOM      9  N   UNL     1       3.887  -0.812   0.095  0.00  0.00    -0.316 N 
ATOM     10  C   UNL     1       2.801   0.050   0.195  0.00  0.00    +0.052 A 
ATOM     11  C   UNL     1       2.953   1.419   0.332  0.00  0.00    +0.025 A 
ATOM     12  C   UNL     1       1.830   2.227   0.367  0.00  0.00    +0.002 A 
ATOM     13  C   UNL     1       0.567   1.672   0.266  0.00  0.00    +0.002 A 
ATOM     14  C   UNL     1       0.412   0.301   0.145  0.00  0.00    +0.025 A 
ATOM     15  C   UNL     1       1.534  -0.511   0.126  0.00  0.00    +0.049 A 
ATOM     16  N   UNL     1       1.426  -1.901   0.102  0.00  0.00    -0.331 N 
ATOM     17  H   UNL     1       4.515  -0.674  -0.798  0.00  0.00    +0.152 HD
ATOM     18  H   UNL     1       1.015  -2.386  -0.796  0.00  0.00    +0.147 HD
ENDROOT
BRANCH   1  22
ATOM     19  C   UNL     1      -0.289  -1.366   4.690  0.00  0.00    +0.162 A 
ATOM     20  C   UNL     1       0.555  -0.500   4.015  0.00  0.00    +0.050 A 
ATOM     21  C   UNL     1       1.243  -0.935   2.897  0.00  0.00    +0.009 A 
ATOM     22  C   UNL     1       1.091  -2.234   2.451  0.00  0.00    -0.019 A 
ATOM     23  C   UNL     1       0.246  -3.103   3.117  0.00  0.00    +0.055 A 
ATOM     24  C   UNL     1      -0.442  -2.674   4.240  0.00  0.00    +0.162 A 
BRANCH  24  25
ATOM     25  O   UNL     1      -1.270  -3.529   4.900  0.00  0.00    -0.491 OA
ATOM     26  C   UNL     1      -1.378  -4.856   4.381  0.00  0.00    +0.277 C 
ENDBRANCH  24  25
BRANCH  19  27
ATOM     27  O   UNL     1      -0.966  -0.940   5.789  0.00  0.00    -0.486 OA
BRANCH  27  29
ATOM     28  C   UNL     1      -2.089   0.877   6.921  0.00  0.00    +0.051 C 
ATOM     29  C   UNL     1      -0.858   0.446   6.121  0.00  0.00    +0.167 C 
ATOM     30  C   UNL     1       0.401   0.672   6.961  0.00  0.00    +0.051 C 
ENDBRANCH  27  29
ENDBRANCH  19  27
ENDBRANCH   1  22
BRANCH   5  31
ATOM     31  C   UNL     1       7.528  -3.270   2.143  0.00  0.00    +0.002 A 
ATOM     32  C   UNL     1       7.937  -2.561   3.256  0.00  0.00    +0.053 A 
ATOM     33  C   UNL     1       9.268  -2.592   3.647  0.00  0.00    +0.121 A 
ATOM     34  C   UNL     1      10.189  -3.326   2.914  0.00  0.00    +0.049 A 
ATOM     35  C   UNL     1       9.780  -4.031   1.799  0.00  0.00    +0.049 A 
ATOM     36  C   UNL     1       8.449  -4.005   1.411  0.00  0.00    +0.124 A 
BRANCH  36  37
ATOM     37  O   UNL     1       8.046  -4.699   0.314  0.00  0.00    -0.495 OA
ATOM     38  C   UNL     1       9.048  -5.434  -0.393  0.00  0.00    +0.277 C 
ENDBRANCH  36  37
BRANCH  33  39
ATOM     39  O   UNL     1       9.670  -1.897   4.744  0.00  0.00    -0.495 OA
ATOM     40  C   UNL     1      11.056  -1.969   5.085  0.00  0.00    +0.277 C 
ENDBRANCH  33  39
ENDBRANCH   5  31
TORSDOF 7
