REMARK  Name = ZINC09594088
REMARK  9 active torsions:
REMARK  status: ('A' for Active; 'I' for Inactive)
REMARK    1  A    between atoms: C_1  and  C_2
REMARK    2  A    between atoms: C_5  and  C_8
REMARK    3  A    between atoms: C_11  and  C_14
REMARK    4  A    between atoms: C_19  and  C_21
REMARK    5  A    between atoms: C_21  and  N_22
REMARK    6  A    between atoms: C_25  and  C_29
REMARK    7  A    between atoms: C_25  and  C_30
REMARK    8  A    between atoms: C_34  and  O_36
REMARK    9  A    between atoms: O_36  and  C_37
REMARK                            x       y       z     vdW  Elec       q    Type
REMARK                         _______ _______ _______ _____ _____    ______ ____
ROOT
ATOM      1  C   UNL     1       0.625  -3.587  -1.314  0.00  0.00    +0.069 C 
ATOM      2  N   UNL     1       0.219  -3.659  -0.094  0.00  0.00    -0.181 NA
ATOM      3  N   UNL     1       0.787  -2.709   0.753  0.00  0.00    -0.181 N 
ATOM      4  C   UNL     1       1.717  -1.875  -0.025  0.00  0.00    +0.173 C 
ATOM      5  C   UNL     1       1.623  -2.459  -1.448  0.00  0.00    +0.090 C 
ATOM      6  C   UNL     1       0.527  -2.576   2.068  0.00  0.00    +0.253 C 
ATOM      7  O   UNL     1       1.082  -1.710   2.712  0.00  0.00    -0.272 OA
ENDROOT
BRANCH   1  12
ATOM      8  C   UNL     1      -1.088  -7.030  -5.591  0.00  0.00    +0.044 C 
ATOM      9  C   UNL     1      -0.640  -6.128  -4.470  0.00  0.00    -0.050 A 
ATOM     10  C   UNL     1      -1.152  -6.304  -3.197  0.00  0.00    +0.004 A 
ATOM     11  C   UNL     1      -0.745  -5.483  -2.166  0.00  0.00    +0.010 A 
ATOM     12  C   UNL     1       0.186  -4.470  -2.410  0.00  0.00    -0.002 A 
ATOM     13  C   UNL     1       0.694  -4.294  -3.700  0.00  0.00    +0.010 A 
ATOM     14  C   UNL     1       0.282  -5.126  -4.719  0.00  0.00    +0.004 A 
ENDBRANCH   1  12
BRANCH   4  15
ATOM     15  C   UNL     1       1.274  -0.435  -0.012  0.00  0.00    +0.128 A 
ATOM     16  C   UNL     1       2.086   0.638  -0.014  0.00  0.00    +0.046 A 
ATOM     17  C   UNL     1       1.254   1.781  -0.000  0.00  0.00    +0.041 A 
ATOM     18  C   UNL     1      -0.016   1.339   0.009  0.00  0.00    +0.195 A 
ATOM     19  O   UNL     1       0.002  -0.004   0.002  0.00  0.00    -0.466 OA
ENDBRANCH   4  15
BRANCH   6  20
ATOM     20  C   UNL     1      -0.452  -3.504   2.741  0.00  0.00    +0.215 C 
BRANCH  20  21
ATOM     21  N   UNL     1      -0.558  -3.156   4.160  0.00  0.00    -0.215 N 
ATOM     22  C   UNL     1      -1.444  -2.271   4.658  0.00  0.00    +0.251 C 
ATOM     23  O   UNL     1      -2.270  -1.635   4.040  0.00  0.00    -0.272 OA
ATOM     24  C   UNL     1      -1.191  -2.235   6.152  0.00  0.00    +0.135 C 
ATOM     25  N   UNL     1      -0.089  -3.194   6.340  0.00  0.00    -0.281 N 
ATOM     26  C   UNL     1       0.207  -3.683   5.122  0.00  0.00    +0.310 C 
ATOM     27  O   UNL     1       1.076  -4.508   4.919  0.00  0.00    -0.252 OA
ATOM     28  C   UNL     1      -0.765  -0.833   6.592  0.00  0.00    +0.047 C 
ATOM     29  H   UNL     1       0.337  -3.430   7.179  0.00  0.00    +0.152 HD
BRANCH  24  30
ATOM     30  C   UNL     1      -2.418  -2.676   6.908  0.00  0.00    -0.012 A 
ATOM     31  C   UNL     1      -3.675  -2.452   6.377  0.00  0.00    +0.006 A 
ATOM     32  C   UNL     1      -4.802  -2.857   7.067  0.00  0.00    +0.004 A 
ATOM     33  C   UNL     1      -4.675  -3.486   8.291  0.00  0.00    +0.045 A 
ATOM     34  C   UNL     1      -3.415  -3.711   8.826  0.00  0.00    +0.120 A 
ATOM     35  C   UNL     1      -2.285  -3.309   8.129  0.00  0.00    +0.051 A 
BRANCH  34  36
ATOM     36  O   UNL     1      -3.288  -4.330  10.030  0.00  0.00    -0.495 OA
ATOM     37  C   UNL     1      -4.494  -4.721  10.689  0.00  0.00    +0.277 C 
ENDBRANCH  34  36
ENDBRANCH  24  30
ENDBRANCH  20  21
ENDBRANCH   6  20
TORSDOF 6
