REMARK  Name = ZINC40214393
REMARK  10 active torsions:
REMARK  status: ('A' for Active; 'I' for Inactive)
REMARK    1  A    between atoms: C_1  and  C_2
REMARK    2  A    between atoms: C_9  and  C_11
REMARK    3  A    between atoms: C_11  and  N_12
REMARK    4  A    between atoms: C_20  and  C_21
REMARK    5  A    between atoms: C_21  and  C_22
REMARK    6  A    between atoms: C_22  and  C_23
REMARK    7  A    between atoms: C_23  and  C_24
REMARK    8  A    between atoms: C_24  and  C_25
REMARK    9  A    between atoms: C_25  and  N_26
REMARK   10  A    between atoms: C_27  and  C_29
REMARK                            x       y       z     vdW  Elec       q    Type
REMARK                         _______ _______ _______ _____ _____    ______ ____
ROOT
ATOM      1  N   UNL     1       2.616   0.983   3.988  0.00  0.00    -0.319 N 
ATOM      2  C   UNL     1       3.700   1.820   3.814  0.00  0.00    +0.069 A 
ATOM      3  C   UNL     1       4.711   1.908   2.867  0.00  0.00    +0.028 A 
ATOM      4  C   UNL     1       5.673   2.889   2.984  0.00  0.00    +0.002 A 
ATOM      5  C   UNL     1       5.636   3.787   4.041  0.00  0.00    +0.002 A 
ATOM      6  C   UNL     1       4.649   3.715   4.982  0.00  0.00    +0.030 A 
ATOM      7  C   UNL     1       3.663   2.730   4.884  0.00  0.00    +0.089 A 
ATOM      8  N   UNL     1       2.582   2.408   5.639  0.00  0.00    -0.232 NA
ATOM      9  C   UNL     1       1.966   1.391   5.112  0.00  0.00    +0.111 A 
ENDROOT
BRANCH   1  10
ATOM     10  C   UNL     1       2.232  -0.133   3.120  0.00  0.00    +0.219 C 
BRANCH  10  18
ATOM     11  C   UNL     1       0.008   1.528  -0.006  0.00  0.00    +0.028 C 
ATOM     12  C   UNL     1       0.016  -0.002  -0.007  0.00  0.00    +0.073 C 
ATOM     13  C   UNL     1       0.633  -0.512  -1.313  0.00  0.00    +0.022 C 
ATOM     14  C   UNL     1       0.765  -2.035  -1.250  0.00  0.00    +0.003 C 
ATOM     15  C   UNL     1       1.692  -2.421  -0.095  0.00  0.00    +0.019 C 
ATOM     16  C   UNL     1       1.087  -1.933   1.225  0.00  0.00    +0.108 C 
ATOM     17  N   UNL     1       0.819  -0.492   1.122  0.00  0.00    -0.297 N 
ATOM     18  C   UNL     1       1.304   0.365   2.042  0.00  0.00    +0.236 C 
ATOM     19  O   UNL     1       0.994   1.537   2.003  0.00  0.00    -0.274 OA
ENDBRANCH  10  18
ENDBRANCH   1  10
BRANCH   9  20
ATOM     20  C   UNL     1       0.718   0.754   5.666  0.00  0.00    +0.074 C 
BRANCH  20  21
ATOM     21  C   UNL     1       1.104  -0.356   6.646  0.00  0.00    +0.008 C 
BRANCH  21  22
ATOM     22  C   UNL     1      -0.163  -1.003   7.209  0.00  0.00    +0.002 C 
BRANCH  22  23
ATOM     23  C   UNL     1       0.222  -2.113   8.188  0.00  0.00    +0.019 C 
BRANCH  23  24
ATOM     24  C   UNL     1      -1.045  -2.759   8.751  0.00  0.00    +0.104 C 
BRANCH  24  25
ATOM     25  N   UNL     1      -0.675  -3.822   9.689  0.00  0.00    -0.311 N 
ATOM     26  C   UNL     1      -1.635  -4.535  10.312  0.00  0.00    +0.244 C 
ATOM     27  O   UNL     1      -2.807  -4.296  10.096  0.00  0.00    -0.270 OA
ATOM     28  H   UNL     1       0.260  -4.013   9.862  0.00  0.00    +0.149 HD
BRANCH  26  29
ATOM     29  C   UNL     1      -1.262  -5.607  11.258  0.00  0.00    +0.037 A 
ATOM     30  C   UNL     1       0.083  -5.881  11.513  0.00  0.00    +0.014 A 
ATOM     31  C   UNL     1       0.424  -6.883  12.397  0.00  0.00    +0.016 A 
ATOM     32  C   UNL     1      -0.564  -7.617  13.031  0.00  0.00    +0.018 A 
ATOM     33  C   UNL     1      -1.900  -7.351  12.783  0.00  0.00    +0.016 A 
ATOM     34  C   UNL     1      -2.254  -6.347  11.905  0.00  0.00    +0.014 A 
ATOM     35 BR   UNL     1      -0.087  -8.990  14.241  0.00  0.00    -0.050 Br
ENDBRANCH  26  29
ENDBRANCH  24  25
ENDBRANCH  23  24
ENDBRANCH  22  23
ENDBRANCH  21  22
ENDBRANCH  20  21
ENDBRANCH   9  20
TORSDOF 9
