REMARK  Name = ZINC15276317
REMARK  8 active torsions:
REMARK  status: ('A' for Active; 'I' for Inactive)
REMARK    1  A    between atoms: C_1  and  C_2
REMARK    2  A    between atoms: C_2  and  C_3
REMARK    3  A    between atoms: C_2  and  C_4
REMARK    4  A    between atoms: C_4  and  C_5
REMARK    5  A    between atoms: C_5  and  C_32
REMARK    6  A    between atoms: C_10  and  C_12
REMARK    7  A    between atoms: C_17  and  O_18
REMARK    8  A    between atoms: N_22  and  C_25
REMARK                            x       y       z     vdW  Elec       q    Type
REMARK                         _______ _______ _______ _____ _____    ______ ____
ROOT
ATOM      1  C   UNL     1      -0.940   8.189   0.341  0.00  0.00    +0.048 C 
ATOM      2  C   UNL     1      -0.714   6.831   0.899  0.00  0.00    +0.086 C 
ATOM      3  C   UNL     1       0.493   6.350   0.000  0.00  0.00    +0.077 C 
ATOM      4  C   UNL     1       1.381   7.558   0.184  0.00  0.00    -0.023 C 
ATOM      5  C   UNL     1       0.680   5.020   0.625  0.00  0.00    +0.229 C 
ATOM      6  O   UNL     1       1.725   4.437   0.817  0.00  0.00    -0.275 OA
ATOM      7  N   UNL     1      -0.582   4.588   0.937  0.00  0.00    -0.210 N 
ATOM      8  C   UNL     1      -1.506   5.603   0.915  0.00  0.00    +0.229 C 
ATOM      9  O   UNL     1      -2.714   5.503   0.910  0.00  0.00    -0.275 OA
ATOM     10  N   UNL     1       0.415   8.682   0.004  0.00  0.00    +0.396 N 
ATOM     11  H   UNL     1       0.667   9.459   0.627  0.00  0.00    -0.083 HD
ATOM     12  H   UNL     1       0.435   9.005  -0.970  0.00  0.00    -0.083 HD
ENDROOT
BRANCH   4  13
ATOM     13  C   UNL     1       2.461   7.594  -0.866  0.00  0.00    -0.018 A 
ATOM     14  C   UNL     1       2.354   6.804  -1.995  0.00  0.00    +0.020 A 
ATOM     15  C   UNL     1       3.342   6.841  -2.962  0.00  0.00    +0.018 A 
ATOM     16  C   UNL     1       4.445   7.660  -2.796  0.00  0.00    +0.019 A 
ATOM     17  C   UNL     1       4.559   8.446  -1.666  0.00  0.00    +0.047 A 
ATOM     18  C   UNL     1       3.566   8.415  -0.698  0.00  0.00    +0.119 A 
ATOM     19 BR   UNL     1       3.189   5.765  -4.510  0.00  0.00    -0.050 Br
BRANCH  18  20
ATOM     20  O   UNL     1       3.676   9.188   0.415  0.00  0.00    -0.507 OA
ATOM     21  H   UNL     1       4.197   8.786   1.123  0.00  0.00    +0.292 HD
ENDBRANCH  18  20
ENDBRANCH   4  13
BRANCH   7  22
ATOM     22  C   UNL     1      -0.895   3.258   1.251  0.00  0.00    +0.045 A 
ATOM     23  C   UNL     1      -2.201   2.905   1.562  0.00  0.00    +0.024 A 
ATOM     24  C   UNL     1      -2.507   1.593   1.866  0.00  0.00    +0.003 A 
ATOM     25  C   UNL     1      -1.513   0.633   1.870  0.00  0.00    +0.020 A 
ATOM     26  C   UNL     1      -0.210   0.981   1.560  0.00  0.00    +0.043 A 
ATOM     27  C   UNL     1       0.101   2.292   1.250  0.00  0.00    +0.044 A 
ATOM     28 CL   UNL     1       1.035  -0.230   1.561  0.00  0.00    -0.083 Cl
ENDBRANCH   7  22
BRANCH   1  29
ATOM     29  C   UNL     1      -1.582   9.081   1.372  0.00  0.00    +0.346 C 
ATOM     30  O   UNL     1      -2.236   8.598   2.266  0.00  0.00    -0.248 OA
ATOM     31  O   UNL     1      -1.426  10.412   1.298  0.00  0.00    -0.248 OA
ENDBRANCH   1  29
BRANCH   1  32
ATOM     32  C   UNL     1      -1.809   8.112  -0.915  0.00  0.00    +0.002 C 
BRANCH  32  34
ATOM     33  C   UNL     1      -0.815  10.186  -1.892  0.00  0.00    +0.007 C 
ATOM     34  C   UNL     1      -2.111   9.527  -1.414  0.00  0.00    -0.018 C 
ATOM     35  C   UNL     1      -3.106   9.457  -2.574  0.00  0.00    +0.007 C 
ENDBRANCH  32  34
ENDBRANCH   1  32
TORSDOF 6
