REMARK  Name = ZINC59921574
REMARK  9 active torsions:
REMARK  status: ('A' for Active; 'I' for Inactive)
REMARK    1  A    between atoms: C_1  and  C_2
REMARK    2  A    between atoms: C_2  and  O_3
REMARK    3  A    between atoms: O_3  and  C_4
REMARK    4  A    between atoms: C_6  and  C_11
REMARK    5  A    between atoms: C_9  and  O_10
REMARK    6  A    between atoms: N_12  and  N_13
REMARK    7  A    between atoms: C_14  and  C_16
REMARK    8  A    between atoms: N_19  and  S_22
REMARK    9  A    between atoms: S_22  and  C_25
REMARK                            x       y       z     vdW  Elec       q    Type
REMARK                         _______ _______ _______ _____ _____    ______ ____
ROOT
ATOM      1  N   UNL     1      -0.645  -7.119   1.244  0.00  0.00    -0.207 N 
ATOM      2  C   UNL     1      -0.538  -8.452   1.078  0.00  0.00    +0.235 C 
ATOM      3  O   UNL     1       0.024  -8.898   0.100  0.00  0.00    -0.274 OA
ATOM      4  H   UNL     1      -1.095  -6.762   2.026  0.00  0.00    +0.177 HD
ENDROOT
BRANCH   2   5
ATOM      5  C   UNL     1      -1.117  -9.388   2.108  0.00  0.00    +0.079 C 
ATOM      6  C   UNL     1      -0.454  -9.129   3.462  0.00  0.00    +0.030 C 
ATOM      7  C   UNL     1      -1.069 -10.058   4.513  0.00  0.00    +0.110 C 
ATOM      8  N   UNL     1      -0.955 -11.445   4.042  0.00  0.00    -0.177 NA
ATOM      9  C   UNL     1      -1.479 -11.785   2.712  0.00  0.00    +0.110 C 
ATOM     10  C   UNL     1      -0.860 -10.835   1.681  0.00  0.00    +0.030 C 
BRANCH   8  11
ATOM     11  S   UNL     1      -0.249 -12.604   4.992  0.00  0.00    +0.061 S 
ATOM     12  O   UNL     1       0.212 -13.622   4.115  0.00  0.00    -0.153 OA
ATOM     13  O   UNL     1       0.616 -11.922   5.889  0.00  0.00    -0.153 OA
BRANCH  11  14
ATOM     14  C   UNL     1      -1.525 -13.322   5.972  0.00  0.00    +0.106 A 
ATOM     15  C   UNL     1      -1.835 -12.783   7.207  0.00  0.00    +0.029 A 
ATOM     16  C   UNL     1      -2.836 -13.346   7.975  0.00  0.00    +0.017 A 
ATOM     17  C   UNL     1      -3.528 -14.450   7.509  0.00  0.00    +0.018 A 
ATOM     18  C   UNL     1      -3.218 -14.989   6.274  0.00  0.00    +0.017 A 
ATOM     19  C   UNL     1      -2.220 -14.422   5.503  0.00  0.00    +0.029 A 
ATOM     20 BR   UNL     1      -4.897 -15.221   8.561  0.00  0.00    -0.050 Br
ENDBRANCH  11  14
ENDBRANCH   8  11
ENDBRANCH   2   5
BRANCH   1  22
ATOM     21  C   UNL     1      -0.211  -4.964   0.447  0.00  0.00    +0.138 C 
ATOM     22  N   UNL     1      -0.108  -6.248   0.287  0.00  0.00    -0.188 NA
BRANCH  21  25
ATOM     23  C   UNL     1       0.777  -1.811  -1.336  0.00  0.00    +0.162 A 
ATOM     24  C   UNL     1       0.244  -2.665  -0.389  0.00  0.00    +0.059 A 
ATOM     25  C   UNL     1       0.354  -4.048  -0.560  0.00  0.00    -0.002 A 
ATOM     26  C   UNL     1       1.002  -4.560  -1.687  0.00  0.00    +0.013 A 
ATOM     27  C   UNL     1       1.531  -3.701  -2.627  0.00  0.00    +0.050 A 
ATOM     28  C   UNL     1       1.417  -2.329  -2.460  0.00  0.00    +0.158 A 
BRANCH  28  29
ATOM     29  O   UNL     1       1.935  -1.487  -3.393  0.00  0.00    -0.503 OA
ATOM     30  H   UNL     1       2.854  -1.235  -3.229  0.00  0.00    +0.292 HD
ENDBRANCH  28  29
BRANCH  23  31
ATOM     31  O   UNL     1       0.671  -0.465  -1.174  0.00  0.00    -0.489 OA
BRANCH  31  33
ATOM     32  C   UNL     1      -0.019   1.526   0.010  0.00  0.00    +0.048 C 
ATOM     33  C   UNL     1       0.002  -0.004   0.002  0.00  0.00    +0.226 C 
ENDBRANCH  31  33
ENDBRANCH  23  31
ENDBRANCH  21  25
ENDBRANCH   1  22
TORSDOF 8
