REMARK  Name = ZINC36638054
REMARK  15 active torsions:
REMARK  status: ('A' for Active; 'I' for Inactive)
REMARK    1  A    between atoms: C_1  and  C_2
REMARK    2  A    between atoms: C_2  and  C_3
REMARK    3  A    between atoms: C_3  and  C_4
REMARK    4  A    between atoms: C_4  and  N_5
REMARK    5  A    between atoms: N_5  and  C_6
REMARK    6  A    between atoms: N_5  and  S_7
REMARK    7  A    between atoms: S_7  and  C_10
REMARK    8  A    between atoms: C_13  and  C_16
REMARK    9  A    between atoms: N_18  and  C_19
REMARK   10  A    between atoms: C_19  and  C_20
REMARK   11  A    between atoms: C_20  and  N_21
REMARK   12  A    between atoms: N_21  and  C_22
REMARK   13  A    between atoms: N_21  and  C_24
REMARK   14  A    between atoms: C_22  and  C_23
REMARK   15  A    between atoms: C_24  and  C_25
REMARK                            x       y       z     vdW  Elec       q    Type
REMARK                         _______ _______ _______ _____ _____    ______ ____
ROOT
ATOM      1  C   UNL     1      -6.597   1.905   3.431  0.00  0.00    +0.252 C 
ATOM      2  O   UNL     1      -6.140   0.907   2.911  0.00  0.00    -0.270 OA
ATOM      3  N   UNL     1      -7.892   2.230   3.246  0.00  0.00    -0.248 N 
ATOM      4  C   UNL     1      -8.734   1.361   2.573  0.00  0.00    +0.168 A 
ATOM      5  N   UNL     1     -10.028   1.456   2.376  0.00  0.00    -0.221 NA
ATOM      6  C   UNL     1     -10.729   0.523   1.693  0.00  0.00    +0.115 A 
ATOM      7  C   UNL     1     -12.116   0.505   1.412  0.00  0.00    +0.150 A 
ATOM      8  C   UNL     1     -12.673  -0.527   0.700  0.00  0.00    +0.040 A 
ATOM      9  C   UNL     1     -11.903  -1.583   0.232  0.00  0.00    +0.004 A 
ATOM     10  C   UNL     1     -10.545  -1.596   0.489  0.00  0.00    +0.017 A 
ATOM     11  C   UNL     1      -9.978  -0.568   1.201  0.00  0.00    +0.044 A 
ATOM     12  S   UNL     1      -8.334  -0.172   1.745  0.00  0.00    -0.052 S 
ATOM     13  F   UNL     1     -12.900   1.514   1.850  0.00  0.00    -0.203 F 
ENDROOT
BRANCH   1  17
ATOM     14  C   UNL     1      -4.112   4.373   5.834  0.00  0.00    +0.106 A 
ATOM     15  C   UNL     1      -4.132   3.005   6.043  0.00  0.00    +0.029 A 
ATOM     16  C   UNL     1      -4.937   2.198   5.266  0.00  0.00    +0.015 A 
ATOM     17  C   UNL     1      -5.732   2.764   4.268  0.00  0.00    +0.037 A 
ATOM     18  C   UNL     1      -5.707   4.145   4.063  0.00  0.00    +0.015 A 
ATOM     19  C   UNL     1      -4.901   4.941   4.851  0.00  0.00    +0.029 A 
BRANCH  14  20
ATOM     20  S   UNL     1      -3.080   5.396   6.831  0.00  0.00    +0.061 S 
ATOM     21  O   UNL     1      -2.834   6.578   6.081  0.00  0.00    -0.153 OA
ATOM     22  O   UNL     1      -2.032   4.568   7.315  0.00  0.00    -0.153 OA
BRANCH  20  23
ATOM     23  N   UNL     1      -3.971   5.851   8.151  0.00  0.00    -0.180 NA
ATOM     24  C   UNL     1      -4.774   7.075   8.107  0.00  0.00    +0.131 C 
BRANCH  23  25
ATOM     25  C   UNL     1      -3.956   5.028   9.364  0.00  0.00    +0.109 C 
BRANCH  25  26
ATOM     26  C   UNL     1      -5.149   4.071   9.345  0.00  0.00    +0.017 C 
BRANCH  26  28
ATOM     27  C   UNL     1      -6.327   2.254  10.592  0.00  0.00    +0.004 C 
ATOM     28  C   UNL     1      -5.134   3.212  10.611  0.00  0.00    -0.002 C 
ENDBRANCH  26  28
ENDBRANCH  25  26
ENDBRANCH  23  25
ENDBRANCH  20  23
ENDBRANCH  14  20
ENDBRANCH   1  17
BRANCH   3  29
ATOM     29  C   UNL     1      -8.409   3.502   3.757  0.00  0.00    +0.097 C 
BRANCH  29  30
ATOM     30  C   UNL     1      -8.461   4.524   2.620  0.00  0.00    -0.059 C 
BRANCH  30  31
ATOM     31  N   UNL     1      -8.948   5.809   3.139  0.00  0.00    +0.380 N 
ATOM     32  H   UNL     1      -9.827   5.668   3.615  0.00  0.00    -0.082 HD
BRANCH  31  33
ATOM     33  C   UNL     1      -7.965   6.362   4.080  0.00  0.00    -0.082 C 
ATOM     34  C   UNL     1      -8.526   7.636   4.715  0.00  0.00    -0.017 C 
ENDBRANCH  31  33
BRANCH  31  35
ATOM     35  C   UNL     1      -9.140   6.747   2.025  0.00  0.00    -0.082 C 
ATOM     36  C   UNL     1     -10.273   6.245   1.126  0.00  0.00    -0.017 C 
ENDBRANCH  31  35
ENDBRANCH  30  31
ENDBRANCH  29  30
ENDBRANCH   3  29
TORSDOF 11
