REMARK  Name = ZINC08740228
REMARK  14 active torsions:
REMARK  status: ('A' for Active; 'I' for Inactive)
REMARK    1  A    between atoms: C_1  and  C_2
REMARK    2  A    between atoms: C_2  and  C_4
REMARK    3  A    between atoms: C_2  and  N_11
REMARK    4  A    between atoms: C_4  and  C_5
REMARK    5  A    between atoms: C_5  and  C_6
REMARK    6  A    between atoms: N_11  and  C_12
REMARK    7  A    between atoms: C_20  and  N_36
REMARK    8  A    between atoms: C_26  and  O_34
REMARK    9  A    between atoms: C_27  and  O_32
REMARK   10  A    between atoms: C_28  and  O_30
REMARK   11  A    between atoms: O_30  and  C_31
REMARK   12  A    between atoms: O_32  and  C_33
REMARK   13  A    between atoms: O_34  and  C_35
REMARK   14  A    between atoms: C_37  and  C_39
REMARK                            x       y       z     vdW  Elec       q    Type
REMARK                         _______ _______ _______ _____ _____    ______ ____
ROOT
ATOM      1  C   UNL     1       1.227   3.592  -0.455  0.00  0.00    +0.075 A 
ATOM      2  C   UNL     1       0.344   4.628  -0.525  0.00  0.00    +0.027 A 
ATOM      3  C   UNL     1      -0.995   4.602  -0.399  0.00  0.00    +0.011 A 
ATOM      4  C   UNL     1      -1.890   3.583  -0.193  0.00  0.00    -0.009 A 
ATOM      5  C   UNL     1      -1.589   2.225  -0.105  0.00  0.00    -0.016 A 
ATOM      6  C   UNL     1      -0.349   1.702  -0.114  0.00  0.00    +0.058 A 
ATOM      7  C   UNL     1       0.891   2.258  -0.239  0.00  0.00    +0.200 A 
ATOM      8  O   UNL     1       1.833   1.481  -0.151  0.00  0.00    -0.286 OA
ATOM      9  C   UNL     1      -2.732   1.237   0.004  0.00  0.00    +0.104 C 
ATOM     10  C   UNL     1      -3.268   1.158   1.419  0.00  0.00    +0.032 C 
ATOM     11  C   UNL     1      -3.437   2.552   2.019  0.00  0.00    +0.038 C 
ATOM     12  C   UNL     1      -4.079   3.467   1.009  0.00  0.00    -0.032 A 
ATOM     13  C   UNL     1      -3.326   3.968  -0.040  0.00  0.00    +0.031 A 
ATOM     14  C   UNL     1      -3.910   4.829  -0.984  0.00  0.00    +0.173 A 
ATOM     15  C   UNL     1      -5.249   5.176  -0.850  0.00  0.00    +0.204 A 
ATOM     16  C   UNL     1      -5.995   4.666   0.207  0.00  0.00    +0.165 A 
ATOM     17  C   UNL     1      -5.408   3.813   1.133  0.00  0.00    +0.054 A 
ENDROOT
BRANCH   9  18
ATOM     18  N   UNL     1      -2.259  -0.089  -0.402  0.00  0.00    -0.309 N 
ATOM     19  C   UNL     1      -2.251  -0.432  -1.705  0.00  0.00    +0.210 C 
ATOM     20  O   UNL     1      -2.636   0.357  -2.542  0.00  0.00    -0.276 OA
ATOM     21  C   UNL     1      -1.764  -1.796  -2.123  0.00  0.00    +0.109 C 
ATOM     22  H   UNL     1      -1.951  -0.720   0.268  0.00  0.00    +0.149 HD
ENDBRANCH   9  18
BRANCH   1  23
ATOM     23  N   UNL     1       2.570   3.892  -0.611  0.00  0.00    -0.338 N 
ATOM     24  H   UNL     1       3.236   3.192  -0.525  0.00  0.00    +0.146 HD
BRANCH  23  26
ATOM     25  C   UNL     1       2.752   5.560  -2.391  0.00  0.00    +0.028 C 
ATOM     26  C   UNL     1       2.984   5.266  -0.907  0.00  0.00    +0.068 C 
BRANCH  26  27
ATOM     27  C   UNL     1       4.470   5.432  -0.581  0.00  0.00    +0.029 C 
BRANCH  27  28
ATOM     28  C   UNL     1       4.684   5.260   0.924  0.00  0.00    +0.076 C 
BRANCH  28  29
ATOM     29  C   UNL     1       6.147   5.423   1.246  0.00  0.00    +0.105 A 
ATOM     30  C   UNL     1       6.760   6.581   1.552  0.00  0.00    +0.044 A 
ATOM     31  C   UNL     1       8.121   6.274   1.781  0.00  0.00    +0.041 A 
ATOM     32  C   UNL     1       8.260   4.950   1.593  0.00  0.00    +0.195 A 
ATOM     33  O   UNL     1       7.061   4.439   1.269  0.00  0.00    -0.468 OA
ENDBRANCH  28  29
ENDBRANCH  27  28
ENDBRANCH  26  27
ENDBRANCH  23  26
ENDBRANCH   1  23
BRANCH  16  34
ATOM     34  O   UNL     1      -7.306   5.003   0.333  0.00  0.00    -0.491 OA
ATOM     35  C   UNL     1      -8.015   4.444   1.441  0.00  0.00    +0.277 C 
ENDBRANCH  16  34
BRANCH  15  36
ATOM     36  O   UNL     1      -5.829   6.014  -1.752  0.00  0.00    -0.488 OA
ATOM     37  C   UNL     1      -5.688   7.416  -1.518  0.00  0.00    +0.277 C 
ENDBRANCH  15  36
BRANCH  14  38
ATOM     38  O   UNL     1      -3.174   5.322  -2.014  0.00  0.00    -0.491 OA
ATOM     39  C   UNL     1      -3.091   4.521  -3.194  0.00  0.00    +0.277 C 
ENDBRANCH  14  38
TORSDOF 9
