REMARK  Name = ZINC02023798
REMARK  14 active torsions:
REMARK  status: ('A' for Active; 'I' for Inactive)
REMARK    1  A    between atoms: C_1  and  C_2
REMARK    2  A    between atoms: C_3  and  C_34
REMARK    3  A    between atoms: C_3  and  C_35
REMARK    4  A    between atoms: C_5  and  O_10
REMARK    5  A    between atoms: C_7  and  C_8
REMARK    6  A    between atoms: C_7  and  C_9
REMARK    7  A    between atoms: O_10  and  P_11
REMARK    8  A    between atoms: P_19  and  O_22
REMARK    9  A    between atoms: O_22  and  C_23
REMARK   10  A    between atoms: C_25  and  C_32
REMARK   11  A    between atoms: C_25  and  C_33
REMARK   12  A    between atoms: C_26  and  C_31
REMARK   13  A    between atoms: C_27  and  C_29
REMARK   14  A    between atoms: C_27  and  C_30
REMARK                            x       y       z     vdW  Elec       q    Type
REMARK                         _______ _______ _______ _____ _____    ______ ____
ROOT
ATOM      1  P   UNL     1      -3.554   1.339   3.525  0.00  0.00    +0.335 P 
ATOM      2  O   UNL     1      -5.085   1.296   2.989  0.00  0.00    -0.311 OA
ATOM      3  C   UNL     1      -6.155   1.041   3.915  0.00  0.00    +0.183 C 
ATOM      4  C   UNL     1      -6.068   2.044   5.069  0.00  0.00    +0.066 C 
ATOM      5  C   UNL     1      -4.750   1.863   5.827  0.00  0.00    +0.183 C 
ATOM      6  O   UNL     1      -3.655   2.133   4.936  0.00  0.00    -0.311 OA
ATOM      7  C   UNL     1      -6.132   3.465   4.503  0.00  0.00    +0.183 C 
ATOM      8  O   UNL     1      -6.004   4.406   5.583  0.00  0.00    -0.311 OA
ATOM      9  P   UNL     1      -7.007   4.309   6.855  0.00  0.00    +0.335 P 
ATOM     10  O   UNL     1      -7.128   2.715   7.136  0.00  0.00    -0.311 OA
ATOM     11  C   UNL     1      -7.237   1.804   6.029  0.00  0.00    +0.183 C 
ENDROOT
BRANCH   1  12
ATOM     12  O   UNL     1      -2.727   2.279   2.513  0.00  0.00    -0.308 OA
BRANCH  12  17
ATOM     13  C   UNL     1      -0.162   3.477  -1.533  0.00  0.00    +0.008 C 
ATOM     14  C   UNL     1      -0.695   2.066  -1.237  0.00  0.00    -0.003 C 
ATOM     15  C   UNL     1      -0.019   1.528   0.010  0.00  0.00    -0.029 C 
ATOM     16  C   UNL     1      -0.658   2.031   1.299  0.00  0.00    +0.038 C 
ATOM     17  C   UNL     1      -2.167   1.801   1.283  0.00  0.00    +0.128 C 
ATOM     18  C   UNL     1      -2.773   2.584   0.121  0.00  0.00    +0.038 C 
ATOM     19  C   UNL     1      -2.212   2.101  -1.210  0.00  0.00    -0.029 C 
ATOM     20  C   UNL     1      -2.685   3.085  -2.304  0.00  0.00    +0.011 C 
ATOM     21  C   UNL     1      -2.795   0.726  -1.554  0.00  0.00    +0.011 C 
ATOM     22  C   UNL     1       0.002  -0.004   0.002  0.00  0.00    +0.011 C 
ATOM     23  C   UNL     1       1.450   2.006  -0.001  0.00  0.00    +0.011 C 
ENDBRANCH  12  17
ENDBRANCH   1  12
BRANCH   9  24
ATOM     24  O   UNL     1      -6.235   4.951   8.114  0.00  0.00    -0.308 OA
BRANCH  24  25
ATOM     25  C   UNL     1      -6.212   6.359   8.379  0.00  0.00    +0.128 C 
ATOM     26  C   UNL     1      -4.764   6.844   8.380  0.00  0.00    +0.038 C 
ATOM     27  C   UNL     1      -4.694   8.342   8.650  0.00  0.00    -0.029 C 
ATOM     28  C   UNL     1      -5.455   8.746   9.901  0.00  0.00    -0.003 C 
ATOM     29  C   UNL     1      -6.822   8.107  10.077  0.00  0.00    -0.029 C 
ATOM     30  C   UNL     1      -6.819   6.617   9.756  0.00  0.00    +0.038 C 
ATOM     31  C   UNL     1      -7.879   8.824   9.233  0.00  0.00    +0.011 C 
ATOM     32  C   UNL     1      -7.232   8.266  11.559  0.00  0.00    +0.011 C 
ATOM     33  C   UNL     1      -5.612  10.275   9.919  0.00  0.00    +0.008 C 
ATOM     34  C   UNL     1      -5.189   9.120   7.428  0.00  0.00    +0.011 C 
ATOM     35  C   UNL     1      -3.209   8.711   8.859  0.00  0.00    +0.011 C 
ENDBRANCH  24  25
ENDBRANCH   9  24
TORSDOF 4
