REMARK  Name = ZINC02725176
REMARK  9 active torsions:
REMARK  status: ('A' for Active; 'I' for Inactive)
REMARK    1  A    between atoms: C_1  and  C_2
REMARK    2  A    between atoms: C_5  and  C_35
REMARK    3  A    between atoms: N_8  and  S_10
REMARK    4  A    between atoms: S_10  and  C_13
REMARK    5  A    between atoms: C_16  and  C_19
REMARK    6  A    between atoms: N_21  and  C_22
REMARK    7  A    between atoms: C_23  and  C_31
REMARK    8  A    between atoms: C_30  and  N_66
REMARK    9  A    between atoms: N_33  and  C_34
REMARK                            x       y       z     vdW  Elec       q    Type
REMARK                         _______ _______ _______ _____ _____    ______ ____
ROOT
ATOM      1  C   UNL     1      -2.235  -4.124   0.619  0.00  0.00    +0.249 C 
ATOM      2  O   UNL     1      -2.968  -3.176   0.823  0.00  0.00    -0.270 OA
ATOM      3  N   UNL     1      -0.951  -3.919   0.264  0.00  0.00    -0.275 N 
ATOM      4  H   UNL     1      -0.366  -4.676   0.101  0.00  0.00    +0.156 HD
ENDROOT
BRANCH   3   5
ATOM      5  C   UNL     1      -0.467  -2.628   0.130  0.00  0.00    +0.085 A 
ATOM      6  C   UNL     1       0.812  -2.218  -0.224  0.00  0.00    +0.068 A 
ATOM      7  C   UNL     1       1.062  -0.791  -0.293  0.00  0.00    -0.027 A 
ATOM      8  C   UNL     1       0.002  -0.004   0.002  0.00  0.00    -0.021 A 
ATOM      9  S   UNL     1      -1.311  -1.132   0.365  0.00  0.00    -0.079 S 
ATOM     10  C   UNL     1      -0.018   1.492   0.010  0.00  0.00    -0.036 C 
ATOM     11  C   UNL     1       2.151   1.297  -1.053  0.00  0.00    -0.074 C 
ATOM     12  C   UNL     1       2.400  -0.164  -0.666  0.00  0.00    +0.018 C 
ATOM     13  C   UNL     1       1.430   3.432  -0.162  0.00  0.00    -0.096 C 
ATOM     14  N   UNL     1       1.388   1.965   0.023  0.00  0.00    +0.381 N 
ATOM     15  H   UNL     1       1.811   1.730   0.928  0.00  0.00    -0.082 HD
BRANCH   6  16
ATOM     16  C   UNL     1       1.869  -3.191  -0.516  0.00  0.00    +0.246 C 
ATOM     17  O   UNL     1       2.589  -3.595   0.379  0.00  0.00    -0.270 OA
ATOM     18  N   UNL     1       2.044  -3.638  -1.775  0.00  0.00    -0.314 N 
ATOM     19  C   UNL     1       3.101  -4.610  -2.067  0.00  0.00    +0.128 C 
ATOM     20  H   UNL     1       1.470  -3.317  -2.488  0.00  0.00    +0.149 HD
ENDBRANCH   6  16
ENDBRANCH   3   5
BRANCH   1  24
ATOM     21  C   UNL     1      -3.719  -8.083   1.029  0.00  0.00    +0.106 A 
ATOM     22  C   UNL     1      -4.556  -7.006   1.261  0.00  0.00    +0.029 A 
ATOM     23  C   UNL     1      -4.080  -5.718   1.130  0.00  0.00    +0.015 A 
ATOM     24  C   UNL     1      -2.751  -5.502   0.762  0.00  0.00    +0.037 A 
ATOM     25  C   UNL     1      -1.914  -6.593   0.523  0.00  0.00    +0.015 A 
ATOM     26  C   UNL     1      -2.400  -7.876   0.663  0.00  0.00    +0.029 A 
BRANCH  21  27
ATOM     27  S   UNL     1      -4.335  -9.725   1.198  0.00  0.00    +0.061 S 
ATOM     28  O   UNL     1      -3.211 -10.555   1.458  0.00  0.00    -0.153 OA
ATOM     29  O   UNL     1      -5.448  -9.652   2.078  0.00  0.00    -0.153 OA
BRANCH  27  35
ATOM     30  C   UNL     1      -5.750  -7.784  -1.778  0.00  0.00    +0.009 C 
ATOM     31  C   UNL     1      -6.377  -9.167  -1.961  0.00  0.00    +0.002 C 
ATOM     32  C   UNL     1      -5.593  -9.948  -3.018  0.00  0.00    +0.009 C 
ATOM     33  C   UNL     1      -4.131 -10.073  -2.583  0.00  0.00    +0.002 C 
ATOM     34  C   UNL     1      -4.060 -10.845  -1.262  0.00  0.00    +0.112 C 
ATOM     35  N   UNL     1      -4.928 -10.181  -0.279  0.00  0.00    -0.176 NA
ATOM     36  C   UNL     1      -6.333  -9.934  -0.630  0.00  0.00    +0.112 C 
ATOM     37  C   UNL     1      -3.341 -10.825  -3.656  0.00  0.00    +0.009 C 
ENDBRANCH  27  35
ENDBRANCH  21  27
ENDBRANCH   1  24
TORSDOF 5
