REMARK  Name = ZINC08681744
REMARK  7 active torsions:
REMARK  status: ('A' for Active; 'I' for Inactive)
REMARK    1  A    between atoms: C_1  and  C_2
REMARK    2  A    between atoms: C_7  and  C_13
REMARK    3  A    between atoms: C_8  and  O_12
REMARK    4  A    between atoms: C_13  and  C_15
REMARK    5  A    between atoms: C_13  and  N_62
REMARK    6  A    between atoms: N_19  and  C_20
REMARK    7  A    between atoms: C_20  and  C_21
REMARK                            x       y       z     vdW  Elec       q    Type
REMARK                         _______ _______ _______ _____ _____    ______ ____
ROOT
ATOM      1  C   UNL     1       1.117   1.509  -2.518  0.00  0.00    +0.039 C 
ENDROOT
BRANCH   1   8
ATOM      2  C   UNL     1       6.642   2.282   3.113  0.00  0.00    +0.044 C 
ATOM      3  C   UNL     1       5.759   2.200   1.894  0.00  0.00    -0.048 A 
ATOM      4  C   UNL     1       6.289   2.506   0.642  0.00  0.00    +0.004 A 
ATOM      5  C   UNL     1       5.517   2.440  -0.478  0.00  0.00    +0.010 A 
ATOM      6  C   UNL     1       4.170   2.061  -0.371  0.00  0.00    +0.001 A 
ATOM      7  C   UNL     1       3.339   1.982  -1.507  0.00  0.00    +0.017 A 
ATOM      8  C   UNL     1       2.041   1.606  -1.332  0.00  0.00    +0.008 A 
ATOM      9  C   UNL     1       1.566   1.311  -0.048  0.00  0.00    +0.215 A 
ATOM     10  N   UNL     1       2.345   1.391   1.010  0.00  0.00    -0.213 NA
ATOM     11  C   UNL     1       3.629   1.749   0.900  0.00  0.00    +0.075 A 
ATOM     12  C   UNL     1       4.457   1.828   2.033  0.00  0.00    +0.031 A 
BRANCH   9  13
ATOM     13  O   UNL     1       0.272   0.939   0.111  0.00  0.00    -0.492 OA
ATOM     14  H   UNL     1       0.127  -0.015   0.047  0.00  0.00    +0.294 HD
ENDBRANCH   9  13
ENDBRANCH   1   8
BRANCH   1  24
ATOM     15  C   UNL     1       1.514   3.817  -3.142  0.00  0.00    -0.072 C 
ATOM     16  C   UNL     1       2.337   4.667  -4.110  0.00  0.00    +0.017 C 
ATOM     17  C   UNL     1       1.936   4.361  -5.531  0.00  0.00    -0.048 A 
ATOM     18  C   UNL     1       2.296   5.257  -6.527  0.00  0.00    +0.004 A 
ATOM     19  C   UNL     1       1.953   5.013  -7.841  0.00  0.00    +0.000 A 
ATOM     20  C   UNL     1       1.246   3.870  -8.167  0.00  0.00    +0.000 A 
ATOM     21  C   UNL     1       0.885   2.979  -7.176  0.00  0.00    +0.002 A 
ATOM     22  C   UNL     1       1.228   3.224  -5.854  0.00  0.00    -0.061 A 
ATOM     23  C   UNL     1       0.809   2.224  -4.809  0.00  0.00    -0.041 C 
ATOM     24  N   UNL     1       1.607   2.411  -3.585  0.00  0.00    +0.392 N 
ATOM     25  H   UNL     1       2.588   2.187  -3.787  0.00  0.00    -0.080 HD
ENDBRANCH   1  24
BRANCH   1  26
ATOM     26  C   UNL     1       1.108   0.092  -3.034  0.00  0.00    +0.143 A 
ATOM     27  N   UNL     1       2.096  -0.528  -3.631  0.00  0.00    -0.115 NA
ATOM     28  N   UNL     1       1.701  -1.721  -3.917  0.00  0.00    -0.023 NA
ATOM     29  N   UNL     1       0.484  -1.874  -3.525  0.00  0.00    -0.044 NA
ATOM     30  N   UNL     1       0.084  -0.778  -2.975  0.00  0.00    -0.228 N 
BRANCH  30  31
ATOM     31  C   UNL     1      -1.238  -0.528  -2.395  0.00  0.00    +0.178 C 
BRANCH  31  32
ATOM     32  C   UNL     1      -2.171   0.028  -3.473  0.00  0.00    +0.140 C 
ATOM     33  C   UNL     1      -3.531   0.403  -2.846  0.00  0.00    +0.035 C 
ATOM     34  C   UNL     1      -4.535  -0.049  -3.942  0.00  0.00    +0.031 C 
ATOM     35  C   UNL     1      -3.812  -1.299  -4.505  0.00  0.00    +0.160 C 
ATOM     36  O   UNL     1      -2.414  -0.972  -4.469  0.00  0.00    -0.375 OA
ENDBRANCH  31  32
ENDBRANCH  30  31
ENDBRANCH   1  26
TORSDOF 6
