REMARK  Name = ZINC12288881
REMARK  9 active torsions:
REMARK  status: ('A' for Active; 'I' for Inactive)
REMARK    1  A    between atoms: C_1  and  C_2
REMARK    2  A    between atoms: C_5  and  S_8
REMARK    3  A    between atoms: S_8  and  C_11
REMARK    4  A    between atoms: C_11  and  C_12
REMARK    5  A    between atoms: C_12  and  C_13
REMARK    6  A    between atoms: C_13  and  N_15
REMARK    7  A    between atoms: N_17  and  C_28
REMARK    8  A    between atoms: C_20  and  N_25
REMARK    9  A    between atoms: C_28  and  C_29
REMARK                            x       y       z     vdW  Elec       q    Type
REMARK                         _______ _______ _______ _____ _____    ______ ____
ROOT
ATOM      1  N   UNL     1      -2.886   1.607   0.175  0.00  0.00    -0.156 NA
ATOM      2  C   UNL     1      -2.041   1.772   1.191  0.00  0.00    +0.167 A 
ATOM      3  N   UNL     1      -0.698   1.558   1.213  0.00  0.00    -0.317 N 
ATOM      4  C   UNL     1       0.021   1.792   2.370  0.00  0.00    +0.060 A 
ATOM      5  C   UNL     1       1.400   1.637   2.584  0.00  0.00    +0.059 A 
ATOM      6  C   UNL     1       1.957   1.917   3.809  0.00  0.00    +0.128 A 
ATOM      7  C   UNL     1       1.180   2.360   4.867  0.00  0.00    +0.034 A 
ATOM      8  C   UNL     1      -0.182   2.522   4.684  0.00  0.00    +0.019 A 
ATOM      9  C   UNL     1      -0.740   2.241   3.459  0.00  0.00    +0.039 A 
ATOM     10  S   UNL     1      -2.388   2.307   2.803  0.00  0.00    -0.052 S 
ENDROOT
BRANCH   6  11
ATOM     11  N   UNL     1       3.414   1.742   4.002  0.00  0.00    +0.056 N 
ATOM     12  O   UNL     1       4.108   1.353   3.079  0.00  0.00    -0.126 OA
ATOM     13  O   UNL     1       3.920   1.987   5.083  0.00  0.00    -0.126 OA
ENDBRANCH   6  11
BRANCH   1  14
ATOM     14  C   UNL     1      -4.178   1.868   0.338  0.00  0.00    +0.240 C 
ATOM     15  O   UNL     1      -4.590   2.256   1.415  0.00  0.00    -0.274 OA
BRANCH  14  16
ATOM     16  C   UNL     1      -5.135   1.681  -0.811  0.00  0.00    +0.121 C 
BRANCH  16  17
ATOM     17  C   UNL     1      -6.551   2.048  -0.361  0.00  0.00    +0.181 C 
BRANCH  17  18
ATOM     18  S   UNL     1      -7.702   1.823  -1.745  0.00  0.00    -0.003 S 
ATOM     19  O   UNL     1      -7.439   2.781  -2.761  0.00  0.00    -0.169 OA
ATOM     20  O   UNL     1      -7.822   0.444  -2.063  0.00  0.00    -0.169 OA
BRANCH  18  25
ATOM     21  C   UNL     1     -13.101   3.369   0.464  0.00  0.00    +0.044 C 
ATOM     22  C   UNL     1     -11.752   2.983  -0.088  0.00  0.00    -0.050 A 
ATOM     23  C   UNL     1     -10.948   3.939  -0.678  0.00  0.00    +0.005 A 
ATOM     24  C   UNL     1      -9.711   3.585  -1.185  0.00  0.00    +0.027 A 
ATOM     25  C   UNL     1      -9.279   2.275  -1.099  0.00  0.00    +0.088 A 
ATOM     26  C   UNL     1     -10.085   1.317  -0.513  0.00  0.00    +0.027 A 
ATOM     27  C   UNL     1     -11.320   1.672  -0.003  0.00  0.00    +0.005 A 
ENDBRANCH  18  25
ENDBRANCH  17  18
ENDBRANCH  16  17
ENDBRANCH  14  16
ENDBRANCH   1  14
BRANCH   3  28
ATOM     28  C   UNL     1      -0.013   1.086   0.008  0.00  0.00    +0.151 C 
BRANCH  28  29
ATOM     29  C   UNL     1      -0.742   1.585  -1.213  0.00  0.00    -0.013 C 
ATOM     30  C   UNL     1      -1.236   0.732  -2.075  0.00  0.00    +0.005 C 
ENDBRANCH  28  29
ENDBRANCH   3  28
TORSDOF 8
