REMARK  Name = ZINC24508421
REMARK  6 active torsions:
REMARK  status: ('A' for Active; 'I' for Inactive)
REMARK    1  A    between atoms: C_1  and  C_2
REMARK    2  A    between atoms: C_2  and  C_3
REMARK    3  A    between atoms: C_2  and  N_4
REMARK    4  A    between atoms: C_5  and  S_9
REMARK    5  A    between atoms: S_9  and  C_10
REMARK    6  A    between atoms: C_10  and  C_11
REMARK                            x       y       z     vdW  Elec       q    Type
REMARK                         _______ _______ _______ _____ _____    ______ ____
ROOT
ATOM      1  C   UNL     1       2.379   1.322  -0.015  0.00  0.00    +0.059 A 
ATOM      2  C   UNL     1       1.199   2.040   0.002  0.00  0.00    +0.094 A 
ATOM      3  C   UNL     1      -0.016   1.346   0.009  0.00  0.00    +0.259 A 
ATOM      4  O   UNL     1      -1.076   1.952   0.018  0.00  0.00    -0.267 OA
ATOM      5  N   UNL     1       0.002  -0.004   0.002  0.00  0.00    -0.268 N 
ATOM      6  C   UNL     1      -1.172  -0.694   0.009  0.00  0.00    +0.096 A 
ATOM      7  C   UNL     1      -1.179  -2.046   0.002  0.00  0.00    +0.018 A 
ATOM      8  C   UNL     1       0.030  -2.757  -0.013  0.00  0.00    +0.005 A 
ATOM      9  C   UNL     1       1.210  -2.075  -0.021  0.00  0.00    +0.047 A 
ATOM     10  C   UNL     1       1.197  -0.669  -0.014  0.00  0.00    +0.140 A 
ATOM     11  N   UNL     1       2.349  -0.001  -0.022  0.00  0.00    -0.233 NA
ENDROOT
BRANCH   1  12
ATOM     12  C   UNL     1       3.701   2.046  -0.025  0.00  0.00    +0.133 C 
BRANCH  12  13
ATOM     13  S   UNL     1       4.458   1.939   1.616  0.00  0.00    -0.078 S 
BRANCH  13  15
ATOM     14  N   UNL     1       6.924   3.089   2.227  0.00  0.00    -0.218 N 
ATOM     15  C   UNL     1       5.944   2.841   1.325  0.00  0.00    +0.210 A 
ATOM     16  N   UNL     1       6.313   3.395   0.191  0.00  0.00    -0.101 NA
ATOM     17  N   UNL     1       7.449   3.979   0.324  0.00  0.00    -0.022 NA
ATOM     18  N   UNL     1       7.888   3.836   1.528  0.00  0.00    -0.043 NA
BRANCH  14  20
ATOM     19  C   UNL     1       8.201   1.791   3.859  0.00  0.00    +0.032 C 
ATOM     20  C   UNL     1       6.969   2.669   3.629  0.00  0.00    +0.106 C 
ATOM     21  C   UNL     1       7.048   3.904   4.530  0.00  0.00    +0.032 C 
ENDBRANCH  14  20
ENDBRANCH  13  15
ENDBRANCH  12  13
ENDBRANCH   1  12
TORSDOF 4
