REMARK  Name = ZINC19941544
REMARK  7 active torsions:
REMARK  status: ('A' for Active; 'I' for Inactive)
REMARK    1  A    between atoms: C_1  and  C_2
REMARK    2  A    between atoms: C_12  and  C_14
REMARK    3  A    between atoms: C_14  and  C_16
REMARK    4  A    between atoms: C_14  and  N_29
REMARK    5  A    between atoms: N_20  and  C_21
REMARK    6  A    between atoms: C_21  and  C_22
REMARK    7  A    between atoms: N_32  and  C_35
REMARK                            x       y       z     vdW  Elec       q    Type
REMARK                         _______ _______ _______ _____ _____    ______ ____
ROOT
ATOM      1  C   UNL     1       0.087  -2.864   4.922  0.00  0.00    +0.162 C 
ENDROOT
BRANCH   1  13
ATOM      2  C   UNL     1      -0.018   1.503   0.010  0.00  0.00    +0.046 C 
ATOM      3  C   UNL     1       0.002  -0.004   0.002  0.00  0.00    -0.026 A 
ATOM      4  C   UNL     1      -0.006  -0.690  -1.194  0.00  0.00    +0.005 A 
ATOM      5  C   UNL     1       0.019  -2.077  -1.215  0.00  0.00    +0.001 A 
ATOM      6  C   UNL     1       0.039  -2.790  -0.050  0.00  0.00    +0.010 A 
ATOM      7  C   UNL     1       0.042  -2.116   1.175  0.00  0.00    -0.001 A 
ATOM      8  C   UNL     1       0.023  -0.709   1.201  0.00  0.00    +0.052 A 
ATOM      9  N   UNL     1       0.026  -0.049   2.412  0.00  0.00    -0.322 N 
ATOM     10  H   UNL     1       0.013   1.051   2.439  0.00  0.00    +0.169 HD
ATOM     11  C   UNL     1       0.046  -0.730   3.570  0.00  0.00    +0.254 A 
ATOM     12  O   UNL     1       0.048  -0.114   4.622  0.00  0.00    -0.268 OA
ATOM     13  C   UNL     1       0.065  -2.141   3.600  0.00  0.00    +0.042 A 
ATOM     14  C   UNL     1       0.064  -2.849   2.443  0.00  0.00    +0.021 A 
ENDBRANCH   1  13
BRANCH   1  15
ATOM     15  N   UNL     1       1.223  -2.388   5.722  0.00  0.00    -0.292 NA
ATOM     16  C   UNL     1       2.488  -2.552   4.991  0.00  0.00    +0.067 C 
ATOM     17  C   UNL     1       3.634  -1.972   5.824  0.00  0.00    -0.063 C 
ATOM     18  N   UNL     1       3.687  -2.657   7.123  0.00  0.00    +0.383 N 
ATOM     19  C   UNL     1       2.423  -2.493   7.854  0.00  0.00    -0.063 C 
ATOM     20  C   UNL     1       1.277  -3.072   7.021  0.00  0.00    +0.067 C 
ATOM     21  H   UNL     1       3.834  -3.731   6.935  0.00  0.00    -0.081 HD
BRANCH  18  22
ATOM     22  C   UNL     1       4.823  -2.180   7.923  0.00  0.00    -0.068 C 
ATOM     23  C   UNL     1       4.632  -0.697   8.246  0.00  0.00    -0.015 C 
ATOM     24  C   UNL     1       5.816  -0.201   9.080  0.00  0.00    -0.002 C 
ATOM     25  C   UNL     1       7.111  -0.387   8.288  0.00  0.00    -0.000 C 
ATOM     26  C   UNL     1       7.302  -1.871   7.964  0.00  0.00    -0.002 C 
ATOM     27  C   UNL     1       6.119  -2.367   7.131  0.00  0.00    -0.015 C 
ENDBRANCH  18  22
ENDBRANCH   1  15
BRANCH   1  28
ATOM     28  C   UNL     1      -1.197  -2.595   5.663  0.00  0.00    +0.173 A 
ATOM     29  N   UNL     1      -1.525  -1.489   6.284  0.00  0.00    -0.111 NA
ATOM     30  N   UNL     1      -2.699  -1.649   6.790  0.00  0.00    -0.023 NA
ATOM     31  N   UNL     1      -3.126  -2.832   6.514  0.00  0.00    -0.044 NA
ATOM     32  N   UNL     1      -2.228  -3.446   5.820  0.00  0.00    -0.223 N 
BRANCH  32  33
ATOM     33  C   UNL     1      -2.314  -4.814   5.301  0.00  0.00    +0.182 C 
BRANCH  33  34
ATOM     34  C   UNL     1      -1.755  -5.774   6.320  0.00  0.00    -0.026 A 
ATOM     35  C   UNL     1      -0.413  -6.102   6.296  0.00  0.00    +0.008 A 
ATOM     36  C   UNL     1       0.102  -6.978   7.233  0.00  0.00    +0.038 A 
ATOM     37  C   UNL     1      -0.731  -7.536   8.189  0.00  0.00    +0.123 A 
ATOM     38  C   UNL     1      -2.076  -7.211   8.208  0.00  0.00    +0.038 A 
ATOM     39  C   UNL     1      -2.587  -6.330   7.274  0.00  0.00    +0.008 A 
ATOM     40  F   UNL     1      -0.230  -8.396   9.102  0.00  0.00    -0.205 F 
ENDBRANCH  33  34
ENDBRANCH  32  33
ENDBRANCH   1  28
TORSDOF 6
