REMARK  Name = ZINC66666681
REMARK  10 active torsions:
REMARK  status: ('A' for Active; 'I' for Inactive)
REMARK    1  A    between atoms: C_1  and  C_2
REMARK    2  A    between atoms: C_5  and  C_11
REMARK    3  A    between atoms: C_6  and  C_10
REMARK    4  A    between atoms: C_7  and  O_8
REMARK    5  A    between atoms: O_8  and  C_9
REMARK    6  A    between atoms: C_11  and  N_12
REMARK    7  A    between atoms: N_12  and  C_13
REMARK    8  A    between atoms: N_12  and  C_14
REMARK    9  A    between atoms: C_14  and  C_15
REMARK   10  A    between atoms: C_16  and  C_20
REMARK                            x       y       z     vdW  Elec       q    Type
REMARK                         _______ _______ _______ _____ _____    ______ ____
ROOT
ATOM      1  C   UNL     1      -0.018   1.503   0.010  0.00  0.00    +0.049 C 
ATOM      2  C   UNL     1       0.002  -0.004   0.002  0.00  0.00    +0.007 A 
ATOM      3  C   UNL     1       0.006  -0.697  -1.191  0.00  0.00    +0.089 A 
ATOM      4  N   UNL     1       0.024  -2.016  -1.207  0.00  0.00    -0.363 N 
ATOM      5  C   UNL     1       0.039  -2.726  -0.095  0.00  0.00    +0.037 A 
ATOM      6  C   UNL     1       0.036  -2.108   1.139  0.00  0.00    +0.012 A 
ATOM      7  C   UNL     1       0.023  -0.716   1.198  0.00  0.00    +0.129 A 
ATOM      8  C   UNL     1       0.053  -2.926   2.404  0.00  0.00    +0.049 C 
ATOM      9  H   UNL     1       0.027  -2.477  -2.060  0.00  0.00    +0.165 HD
ENDROOT
BRANCH   7  10
ATOM     10  O   UNL     1       0.025  -0.071   2.393  0.00  0.00    -0.494 OA
ATOM     11  C   UNL     1      -1.247   0.220   2.975  0.00  0.00    +0.277 C 
ENDBRANCH   7  10
BRANCH   5  12
ATOM     12  C   UNL     1       0.059  -4.231  -0.172  0.00  0.00    +0.138 C 
BRANCH  12  13
ATOM     13  N   UNL     1      -1.297  -4.750   0.049  0.00  0.00    -0.295 NA
ATOM     14  C   UNL     1      -2.197  -4.356  -1.043  0.00  0.00    +0.105 C 
BRANCH  13  15
ATOM     15  C   UNL     1      -1.281  -6.210   0.217  0.00  0.00    +0.128 C 
BRANCH  15  16
ATOM     16  C   UNL     1      -2.636  -6.677   0.682  0.00  0.00    +0.026 A 
ATOM     17  C   UNL     1      -3.715  -7.068  -0.044  0.00  0.00    +0.050 A 
ATOM     18  N   UNL     1      -4.788  -7.433   0.630  0.00  0.00    -0.252 NA
ATOM     19  C   UNL     1      -4.809  -7.417   1.939  0.00  0.00    +0.156 A 
ATOM     20  S   UNL     1      -3.266  -6.877   2.341  0.00  0.00    -0.079 S 
ATOM     21  C   UNL     1      -3.687  -7.085  -1.550  0.00  0.00    +0.066 C 
ENDBRANCH  15  16
ENDBRANCH  13  15
ENDBRANCH  12  13
ENDBRANCH   5  12
TORSDOF 5
