REMARK  Name = ZINC42651946
REMARK  5 active torsions:
REMARK  status: ('A' for Active; 'I' for Inactive)
REMARK    1  A    between atoms: C_1  and  C_2
REMARK    2  A    between atoms: C_5  and  C_9
REMARK    3  A    between atoms: C_6  and  C_8
REMARK    4  A    between atoms: C_15  and  S_22
REMARK    5  A    between atoms: S_22  and  N_25
REMARK                            x       y       z     vdW  Elec       q    Type
REMARK                         _______ _______ _______ _____ _____    ______ ____
ROOT
ATOM      1  C   UNL     1       0.059  -4.275  -0.021  0.00  0.00    +0.191 C 
ATOM      2  N   UNL     1       0.868  -4.761   1.094  0.00  0.00    -0.322 N 
ATOM      3  C   UNL     1       2.251  -4.621   1.155  0.00  0.00    +0.057 A 
ATOM      4  C   UNL     1       2.879  -4.681   2.398  0.00  0.00    +0.047 A 
ATOM      5  C   UNL     1       4.251  -4.562   2.490  0.00  0.00    +0.069 A 
ATOM      6  C   UNL     1       5.013  -4.384   1.349  0.00  0.00    +0.125 A 
ATOM      7  C   UNL     1       4.397  -4.318   0.113  0.00  0.00    +0.060 A 
ATOM      8  C   UNL     1       3.025  -4.428   0.018  0.00  0.00    +0.128 A 
ATOM      9  S   UNL     1       2.239  -4.302  -1.560  0.00  0.00    +0.062 S 
ATOM     10  O   UNL     1       2.817  -5.297  -2.392  0.00  0.00    -0.153 OA
ATOM     11  O   UNL     1       2.222  -2.924  -1.907  0.00  0.00    -0.153 OA
ATOM     12  N   UNL     1       0.654  -4.756  -1.285  0.00  0.00    -0.166 NA
ATOM     13 CL   UNL     1       5.023  -4.635   4.043  0.00  0.00    -0.081 Cl
ATOM     14  H   UNL     1       0.417  -5.204   1.831  0.00  0.00    +0.148 HD
ATOM     15  H   UNL     1       0.156  -5.303  -1.913  0.00  0.00    +0.150 HD
ENDROOT
BRANCH   1  20
ATOM     16  C   UNL     1      -0.018   1.503   0.010  0.00  0.00    +0.044 C 
ATOM     17  C   UNL     1       0.002  -0.004   0.002  0.00  0.00    -0.050 A 
ATOM     18  C   UNL     1       0.006  -0.689  -1.199  0.00  0.00    +0.004 A 
ATOM     19  C   UNL     1       0.025  -2.071  -1.207  0.00  0.00    +0.007 A 
ATOM     20  C   UNL     1       0.040  -2.768  -0.013  0.00  0.00    -0.009 A 
ATOM     21  C   UNL     1       0.037  -2.084   1.188  0.00  0.00    -0.044 A 
ATOM     22  C   UNL     1       0.023  -0.702   1.195  0.00  0.00    +0.007 A 
ATOM     23  C   UNL     1       0.054  -2.845   2.489  0.00  0.00    +0.044 C 
ENDBRANCH   1  20
BRANCH   6  24
ATOM     24  S   UNL     1       6.766  -4.242   1.470  0.00  0.00    +0.057 S 
ATOM     25  O   UNL     1       7.204  -5.317   2.289  0.00  0.00    -0.153 OA
ATOM     26  O   UNL     1       7.250  -4.044   0.149  0.00  0.00    -0.153 OA
BRANCH  24  27
ATOM     27  N   UNL     1       7.087  -2.849   2.306  0.00  0.00    -0.203 NA
ATOM     28  H   UNL     1       6.357  -2.293   2.621  0.00  0.00    +0.144 HD
ATOM     29  H   UNL     1       8.005  -2.589   2.481  0.00  0.00    +0.144 HD
ENDBRANCH  24  27
ENDBRANCH   6  24
TORSDOF 3
