REMARK  Name = ZINC01361404
REMARK  3 active torsions:
REMARK  status: ('A' for Active; 'I' for Inactive)
REMARK    1  A    between atoms: C_4  and  N_7
REMARK    2  A    between atoms: N_15  and  S_18
REMARK    3  A    between atoms: S_18  and  C_21
REMARK                            x       y       z     vdW  Elec       q    Type
REMARK                         _______ _______ _______ _____ _____    ______ ____
ROOT
ATOM      1  N   UNL     1       4.754  -0.861   1.022  0.00  0.00    -0.181 N 
ATOM      2  C   UNL     1       3.989  -1.890   0.579  0.00  0.00    +0.242 A 
ATOM      3  N   UNL     1       4.121  -1.934  -0.729  0.00  0.00    -0.092 NA
ATOM      4  N   UNL     1       4.912  -1.007  -1.133  0.00  0.00    -0.021 NA
ATOM      5  N   UNL     1       5.333  -0.309  -0.134  0.00  0.00    -0.038 NA
ATOM      6  N   UNL     1       3.217  -2.735   1.357  0.00  0.00    -0.296 N 
ATOM      7  C   UNL     1       1.780  -2.486   1.531  0.00  0.00    +0.125 C 
ATOM      8  C   UNL     1       1.010  -3.744   1.112  0.00  0.00    +0.128 C 
ATOM      9  N   UNL     1       1.613  -4.907   1.779  0.00  0.00    -0.174 NA
ATOM     10  C   UNL     1       3.050  -5.156   1.604  0.00  0.00    +0.128 C 
ATOM     11  C   UNL     1       3.819  -3.901   2.019  0.00  0.00    +0.125 C 
ENDROOT
BRANCH   1  15
ATOM     12  C   UNL     1       5.260   0.407   4.961  0.00  0.00    +0.000 A 
ATOM     13  C   UNL     1       6.348   0.351   4.109  0.00  0.00    +0.002 A 
ATOM     14  C   UNL     1       6.183  -0.069   2.803  0.00  0.00    +0.028 A 
ATOM     15  C   UNL     1       4.924  -0.435   2.347  0.00  0.00    +0.071 A 
ATOM     16  C   UNL     1       3.834  -0.378   3.204  0.00  0.00    +0.028 A 
ATOM     17  C   UNL     1       4.005   0.043   4.509  0.00  0.00    +0.002 A 
ENDBRANCH   1  15
BRANCH   9  18
ATOM     18  S   UNL     1       0.689  -5.918   2.709  0.00  0.00    +0.061 S 
ATOM     19  O   UNL     1       1.574  -6.552   3.623  0.00  0.00    -0.153 OA
ATOM     20  O   UNL     1      -0.435  -5.161   3.139  0.00  0.00    -0.153 OA
BRANCH  18  21
ATOM     21  C   UNL     1       0.070  -7.182   1.649  0.00  0.00    +0.109 A 
ATOM     22  C   UNL     1      -1.137  -7.005   0.997  0.00  0.00    +0.032 A 
ATOM     23  C   UNL     1      -1.626  -7.994   0.164  0.00  0.00    +0.051 A 
ATOM     24  C   UNL     1      -0.909  -9.165  -0.019  0.00  0.00    +0.166 A 
ATOM     25  C   UNL     1       0.306  -9.343   0.638  0.00  0.00    +0.168 A 
ATOM     26  C   UNL     1       0.793  -8.345   1.467  0.00  0.00    +0.078 A 
ATOM     27  O   UNL     1       0.812 -10.564   0.297  0.00  0.00    -0.453 OA
ATOM     28  C   UNL     1      -0.298 -11.300  -0.251  0.00  0.00    +0.466 C 
ATOM     29  O   UNL     1      -1.164 -10.274  -0.772  0.00  0.00    -0.453 OA
ENDBRANCH  18  21
ENDBRANCH   9  18
TORSDOF 3
