REMARK  Name = ZINC09185279
REMARK  7 active torsions:
REMARK  status: ('A' for Active; 'I' for Inactive)
REMARK    1  A    between atoms: C_1  and  O_2
REMARK    2  A    between atoms: O_2  and  C_3
REMARK    3  A    between atoms: C_6  and  C_9
REMARK    4  A    between atoms: C_9  and  C_10
REMARK    5  A    between atoms: C_10  and  N_11
REMARK    6  A    between atoms: C_12  and  C_27
REMARK    7  A    between atoms: C_31  and  N_33
REMARK                            x       y       z     vdW  Elec       q    Type
REMARK                         _______ _______ _______ _____ _____    ______ ____
ROOT
ATOM      1  N   UNL     1      -0.018   1.461   0.010  0.00  0.00    -0.283 N 
ATOM      2  C   UNL     1      -1.217   2.308   0.020  0.00  0.00    +0.145 C 
ATOM      3  C   UNL     1      -0.720   3.730   0.029  0.00  0.00    +0.072 A 
ATOM      4  C   UNL     1      -1.410   5.023   0.043  0.00  0.00    +0.199 A 
ATOM      5  O   UNL     1      -2.626   5.099   0.054  0.00  0.00    -0.287 OA
ATOM      6  C   UNL     1      -0.559   6.229   0.042  0.00  0.00    +0.064 A 
ATOM      7  C   UNL     1      -1.109   7.509   0.054  0.00  0.00    +0.015 A 
ATOM      8  C   UNL     1      -0.285   8.600   0.053  0.00  0.00    +0.001 A 
ATOM      9  C   UNL     1       1.094   8.437   0.040  0.00  0.00    +0.004 A 
ATOM     10  C   UNL     1       1.655   7.179   0.027  0.00  0.00    +0.047 A 
ATOM     11  C   UNL     1       0.836   6.054   0.028  0.00  0.00    +0.139 A 
ATOM     12  O   UNL     1       1.369   4.819   0.015  0.00  0.00    -0.450 OA
ATOM     13  C   UNL     1       0.635   3.689   0.016  0.00  0.00    +0.199 A 
ATOM     14  C   UNL     1       1.058   2.266   0.004  0.00  0.00    +0.283 C 
ATOM     15  O   UNL     1       2.212   1.885  -0.009  0.00  0.00    -0.267 OA
ENDROOT
BRANCH   2  16
ATOM     16  C   UNL     1      -2.033   2.038   1.257  0.00  0.00    -0.020 A 
ATOM     17  C   UNL     1      -1.402   1.837   2.471  0.00  0.00    +0.006 A 
ATOM     18  C   UNL     1      -2.151   1.590   3.607  0.00  0.00    +0.003 A 
ATOM     19  C   UNL     1      -3.530   1.544   3.528  0.00  0.00    +0.033 A 
ATOM     20  C   UNL     1      -4.161   1.746   2.315  0.00  0.00    +0.127 A 
ATOM     21  C   UNL     1      -3.412   1.997   1.180  0.00  0.00    +0.038 A 
BRANCH  20  22
ATOM     22  N   UNL     1      -5.638   1.697   2.231  0.00  0.00    +0.056 N 
ATOM     23  O   UNL     1      -6.298   1.478   3.232  0.00  0.00    -0.126 OA
ATOM     24  O   UNL     1      -6.194   1.875   1.162  0.00  0.00    -0.126 OA
ENDBRANCH  20  22
ENDBRANCH   2  16
BRANCH   1  25
ATOM     25  C   UNL     1       0.002  -0.004   0.002  0.00  0.00    +0.114 C 
BRANCH  25  26
ATOM     26  C   UNL     1       0.022  -0.522   1.442  0.00  0.00    +0.054 C 
BRANCH  26  30
ATOM     27  C   UNL     1       0.080  -4.795   1.418  0.00  0.00    +0.120 A 
ATOM     28  C   UNL     1       1.271  -4.084   1.411  0.00  0.00    +0.046 A 
ATOM     29  C   UNL     1       1.250  -2.702   1.419  0.00  0.00    +0.007 A 
ATOM     30  C   UNL     1       0.043  -2.029   1.433  0.00  0.00    -0.046 A 
ATOM     31  C   UNL     1      -1.146  -2.735   1.446  0.00  0.00    +0.007 A 
ATOM     32  C   UNL     1      -1.130  -4.116   1.433  0.00  0.00    +0.046 A 
BRANCH  27  34
ATOM     33  C   UNL     1      -1.166  -6.820   1.418  0.00  0.00    +0.277 C 
ATOM     34  O   UNL     1       0.099  -6.154   1.410  0.00  0.00    -0.495 OA
ENDBRANCH  27  34
ENDBRANCH  26  30
ENDBRANCH  25  26
ENDBRANCH   1  25
TORSDOF 6
