REMARK  Name = ZINC24038357
REMARK  7 active torsions:
REMARK  status: ('A' for Active; 'I' for Inactive)
REMARK    1  A    between atoms: C_1  and  C_2
REMARK    2  A    between atoms: C_2  and  C_19
REMARK    3  A    between atoms: N_5  and  N_9
REMARK    4  A    between atoms: C_10  and  C_11
REMARK    5  A    between atoms: C_14  and  O_18
REMARK    6  A    between atoms: C_22  and  O_25
REMARK    7  A    between atoms: O_25  and  C_26
REMARK                            x       y       z     vdW  Elec       q    Type
REMARK                         _______ _______ _______ _____ _____    ______ ____
ROOT
ATOM      1  C   UNL     1      -0.013   1.527   0.019  0.00  0.00    +0.047 C 
ATOM      2  C   UNL     1       0.003  -0.003   0.002  0.00  0.00    +0.137 C 
ATOM      3  C   UNL     1       0.818  -0.515  -1.169  0.00  0.00    +0.271 C 
ATOM      4  O   UNL     1       0.603  -0.330  -2.348  0.00  0.00    -0.271 OA
ATOM      5  N   UNL     1       1.832  -1.218  -0.627  0.00  0.00    -0.109 N 
ATOM      6  C   UNL     1       1.771  -1.222   0.709  0.00  0.00    +0.330 C 
ATOM      7  O   UNL     1       2.576  -1.791   1.421  0.00  0.00    -0.250 OA
ATOM      8  N   UNL     1       0.720  -0.527   1.178  0.00  0.00    -0.280 N 
ATOM      9  H   UNL     1       0.480  -0.395   2.109  0.00  0.00    +0.152 HD
ENDROOT
BRANCH   2  10
ATOM     10  C   UNL     1      -1.402  -0.546  -0.048  0.00  0.00    -0.015 A 
ATOM     11  C   UNL     1      -2.001  -0.800  -1.268  0.00  0.00    +0.010 A 
ATOM     12  C   UNL     1      -3.289  -1.297  -1.316  0.00  0.00    +0.046 A 
ATOM     13  C   UNL     1      -3.981  -1.542  -0.139  0.00  0.00    +0.120 A 
ATOM     14  C   UNL     1      -3.378  -1.287   1.084  0.00  0.00    +0.046 A 
ATOM     15  C   UNL     1      -2.088  -0.794   1.127  0.00  0.00    +0.010 A 
BRANCH  13  16
ATOM     16  O   UNL     1      -5.248  -2.031  -0.184  0.00  0.00    -0.495 OA
ATOM     17  C   UNL     1      -5.901  -2.259   1.067  0.00  0.00    +0.277 C 
ENDBRANCH  13  16
ENDBRANCH   2  10
BRANCH   5  18
ATOM     18  N   UNL     1       2.826  -1.867  -1.372  0.00  0.00    -0.176 NA
ATOM     19  C   UNL     1       2.748  -1.901  -2.667  0.00  0.00    +0.139 C 
BRANCH  19  20
ATOM     20  C   UNL     1       3.732  -2.676  -3.444  0.00  0.00    -0.004 A 
ATOM     21  C   UNL     1       4.745  -3.380  -2.788  0.00  0.00    +0.013 A 
ATOM     22  C   UNL     1       5.662  -4.104  -3.518  0.00  0.00    +0.047 A 
ATOM     23  C   UNL     1       5.581  -4.135  -4.904  0.00  0.00    +0.131 A 
ATOM     24  C   UNL     1       4.576  -3.436  -5.561  0.00  0.00    +0.060 A 
ATOM     25  C   UNL     1       3.650  -2.714  -4.838  0.00  0.00    +0.028 A 
ATOM     26 BR   UNL     1       4.472  -3.482  -7.449  0.00  0.00    -0.047 Br
BRANCH  23  27
ATOM     27  O   UNL     1       6.488  -4.850  -5.620  0.00  0.00    -0.506 OA
ATOM     28  H   UNL     1       6.227  -5.767  -5.781  0.00  0.00    +0.292 HD
ENDBRANCH  23  27
ENDBRANCH  19  20
ENDBRANCH   5  18
TORSDOF 5
