REMARK  Name = ZINC12053339
REMARK  9 active torsions:
REMARK  status: ('A' for Active; 'I' for Inactive)
REMARK    1  A    between atoms: C_1  and  N_2
REMARK    2  A    between atoms: N_2  and  C_3
REMARK    3  A    between atoms: C_3  and  C_4
REMARK    4  A    between atoms: C_9  and  C_11
REMARK    5  A    between atoms: C_11  and  C_12
REMARK    6  A    between atoms: C_19  and  C_20
REMARK    7  A    between atoms: C_19  and  N_60
REMARK    8  A    between atoms: C_20  and  C_21
REMARK    9  A    between atoms: C_20  and  C_27
REMARK                            x       y       z     vdW  Elec       q    Type
REMARK                         _______ _______ _______ _____ _____    ______ ____
ROOT
ATOM      1  C   UNL     1      -1.143  -3.586  -3.518  0.00  0.00    +0.028 C 
ATOM      2  C   UNL     1      -1.684  -4.922  -3.944  0.00  0.00    +0.200 C 
ATOM      3  O   UNL     1      -1.213  -5.924  -3.450  0.00  0.00    -0.278 OA
ATOM      4  N   UNL     1      -2.664  -5.051  -4.845  0.00  0.00    -0.318 N 
ATOM      5  C   UNL     1      -3.322  -3.909  -5.472  0.00  0.00    +0.085 C 
ATOM      6  C   UNL     1      -2.462  -2.654  -5.309  0.00  0.00    -0.059 C 
ATOM      7  H   UNL     1      -2.950  -5.944  -5.093  0.00  0.00    +0.149 HD
ATOM      8  N   UNL     1      -2.103  -2.527  -3.883  0.00  0.00    +0.389 N 
ATOM      9  H   UNL     1      -2.950  -2.632  -3.313  0.00  0.00    -0.081 HD
ENDROOT
BRANCH   1  10
ATOM     10  C   UNL     1      -0.946  -3.579  -2.001  0.00  0.00    +0.090 C 
BRANCH  10  13
ATOM     11  C   UNL     1      -0.385  -4.160   0.715  0.00  0.00    +0.132 C 
ATOM     12  N   UNL     1       0.396  -4.820  -0.335  0.00  0.00    -0.299 N 
ATOM     13  C   UNL     1       0.141  -4.554  -1.631  0.00  0.00    +0.215 C 
ATOM     14  O   UNL     1       0.788  -5.101  -2.500  0.00  0.00    -0.276 OA
BRANCH  12  15
ATOM     15  C   UNL     1       1.452  -5.769   0.025  0.00  0.00    +0.166 C 
BRANCH  15  16
ATOM     16  C   UNL     1       0.872  -7.157   0.116  0.00  0.00    +0.101 A 
ATOM     17  C   UNL     1       0.854  -8.135  -0.904  0.00  0.00    +0.069 A 
ATOM     18  C   UNL     1       0.233  -9.194  -0.332  0.00  0.00    +0.230 A 
ATOM     19  O   UNL     1      -0.079  -8.821   0.917  0.00  0.00    -0.363 OA
ATOM     20  N   UNL     1       0.283  -7.690   1.147  0.00  0.00    -0.082 NA
ENDBRANCH  15  16
ENDBRANCH  12  15
ENDBRANCH  10  13
ENDBRANCH   1  10
BRANCH   8  21
ATOM     21  C   UNL     1      -1.510  -1.195  -3.624  0.00  0.00    -0.065 C 
BRANCH  21  22
ATOM     22  C   UNL     1      -2.617  -0.141  -3.681  0.00  0.00    +0.032 C 
BRANCH  22  23
ATOM     23  C   UNL     1      -3.601  -0.384  -2.566  0.00  0.00    -0.042 A 
ATOM     24  C   UNL     1      -4.950  -0.496  -2.846  0.00  0.00    +0.004 A 
ATOM     25  C   UNL     1      -5.851  -0.725  -1.823  0.00  0.00    +0.000 A 
ATOM     26  C   UNL     1      -5.405  -0.831  -0.519  0.00  0.00    +0.000 A 
ATOM     27  C   UNL     1      -4.057  -0.713  -0.238  0.00  0.00    +0.000 A 
ATOM     28  C   UNL     1      -3.155  -0.490  -1.262  0.00  0.00    +0.004 A 
ENDBRANCH  22  23
BRANCH  22  29
ATOM     29  C   UNL     1      -2.012   1.231  -3.527  0.00  0.00    -0.042 A 
ATOM     30  C   UNL     1      -1.169   1.499  -2.465  0.00  0.00    +0.004 A 
ATOM     31  C   UNL     1      -0.611   2.756  -2.326  0.00  0.00    +0.000 A 
ATOM     32  C   UNL     1      -0.904   3.748  -3.244  0.00  0.00    +0.000 A 
ATOM     33  C   UNL     1      -1.751   3.481  -4.303  0.00  0.00    +0.000 A 
ATOM     34  C   UNL     1      -2.305   2.223  -4.444  0.00  0.00    +0.004 A 
ENDBRANCH  22  29
ENDBRANCH  21  22
ENDBRANCH   8  21
TORSDOF 8
