REMARK  Name = ZINC39580214
REMARK  9 active torsions:
REMARK  status: ('A' for Active; 'I' for Inactive)
REMARK    1  A    between atoms: C_1  and  C_2
REMARK    2  A    between atoms: C_3  and  C_12
REMARK    3  A    between atoms: C_12  and  O_13
REMARK    4  A    between atoms: O_13  and  C_14
REMARK    5  A    between atoms: C_14  and  C_16
REMARK    6  A    between atoms: C_16  and  N_17
REMARK    7  A    between atoms: C_22  and  C_29
REMARK    8  A    between atoms: C_25  and  C_27
REMARK    9  A    between atoms: C_25  and  C_28
REMARK                            x       y       z     vdW  Elec       q    Type
REMARK                         _______ _______ _______ _____ _____    ______ ____
ROOT
ATOM      1  C   UNL     1       2.876   1.358  -4.564  0.00  0.00    +0.238 C 
ENDROOT
BRANCH   1   2
ATOM      2  N   UNL     1       2.782   2.110  -5.816  0.00  0.00    -0.213 N 
ATOM      3  C   UNL     1       2.717   1.545  -7.042  0.00  0.00    +0.247 C 
ATOM      4  O   UNL     1       2.553   0.369  -7.282  0.00  0.00    -0.273 OA
ATOM      5  C   UNL     1       2.888   2.683  -8.018  0.00  0.00    +0.113 C 
ATOM      6  C   UNL     1       1.795   2.660  -9.076  0.00  0.00    +0.038 C 
ATOM      7  C   UNL     1       2.039   1.512 -10.055  0.00  0.00    -0.011 C 
ATOM      8  C   UNL     1       3.372   1.749 -10.762  0.00  0.00    +0.009 C 
ATOM      9  C   UNL     1       4.525   1.765  -9.765  0.00  0.00    -0.032 C 
ATOM     10  C   UNL     1       4.283   2.720  -8.609  0.00  0.00    +0.041 C 
ATOM     11  C   UNL     1       5.790   2.235 -10.516  0.00  0.00    +0.011 C 
ATOM     12  C   UNL     1       4.796   0.348  -9.252  0.00  0.00    +0.011 C 
ATOM     13  C   UNL     1       0.912   1.484 -11.093  0.00  0.00    +0.007 C 
ATOM     14  N   UNL     1       2.704   3.880  -7.166  0.00  0.00    -0.285 N 
ATOM     15  C   UNL     1       2.722   3.445  -5.894  0.00  0.00    +0.310 C 
ATOM     16  O   UNL     1       2.689   4.178  -4.926  0.00  0.00    -0.252 OA
ATOM     17  H   UNL     1       2.593   4.789  -7.478  0.00  0.00    +0.151 HD
ENDBRANCH   1   2
BRANCH   1  18
ATOM     18  C   UNL     1       1.490   1.041  -4.063  0.00  0.00    +0.326 C 
ATOM     19  O   UNL     1       0.523   1.407  -4.689  0.00  0.00    -0.249 OA
BRANCH  18  20
ATOM     20  O   UNL     1       1.330   0.353  -2.922  0.00  0.00    -0.457 OA
BRANCH  20  21
ATOM     21  C   UNL     1      -0.012   0.088  -2.507  0.00  0.00    +0.289 C 
BRANCH  21  24
ATOM     22  C   UNL     1      -0.018   1.503   0.010  0.00  0.00    +0.067 C 
ATOM     23  C   UNL     1       0.002  -0.004   0.002  0.00  0.00    +0.063 A 
ATOM     24  C   UNL     1       0.006  -0.688  -1.216  0.00  0.00    +0.100 A 
ATOM     25  N   UNL     1       0.024  -2.001  -1.247  0.00  0.00    -0.245 NA
ATOM     26  C   UNL     1       0.039  -2.692  -0.102  0.00  0.00    +0.090 A 
ATOM     27  C   UNL     1       0.059  -4.097  -0.102  0.00  0.00    +0.030 A 
ATOM     28  C   UNL     1       0.075  -4.771   1.080  0.00  0.00    +0.002 A 
ATOM     29  C   UNL     1       0.071  -4.088   2.296  0.00  0.00    +0.002 A 
ATOM     30  C   UNL     1       0.051  -2.728   2.334  0.00  0.00    +0.030 A 
ATOM     31  C   UNL     1       0.035  -1.997   1.134  0.00  0.00    +0.089 A 
ATOM     32  N   UNL     1       0.022  -0.660   1.140  0.00  0.00    -0.248 NA
ENDBRANCH  21  24
ENDBRANCH  20  21
ENDBRANCH  18  20
ENDBRANCH   1  18
TORSDOF 5
