REMARK  Name = ZINC29775424
REMARK  6 active torsions:
REMARK  status: ('A' for Active; 'I' for Inactive)
REMARK    1  A    between atoms: C_1  and  C_2
REMARK    2  A    between atoms: C_8  and  C_10
REMARK    3  A    between atoms: C_10  and  N_11
REMARK    4  A    between atoms: C_16  and  C_23
REMARK    5  A    between atoms: C_19  and  C_21
REMARK    6  A    between atoms: C_19  and  C_22
REMARK                            x       y       z     vdW  Elec       q    Type
REMARK                         _______ _______ _______ _____ _____    ______ ____
ROOT
ATOM      1  N   UNL     1       0.106  -6.551   2.652  0.00  0.00    -0.215 N 
ATOM      2  C   UNL     1      -1.000  -7.293   2.427  0.00  0.00    +0.247 C 
ATOM      3  O   UNL     1      -2.132  -7.012   2.753  0.00  0.00    -0.273 OA
ATOM      4  C   UNL     1      -0.516  -8.524   1.700  0.00  0.00    +0.113 C 
ATOM      5  C   UNL     1      -1.048  -9.789   2.356  0.00  0.00    +0.038 C 
ATOM      6  C   UNL     1      -2.538  -9.948   2.054  0.00  0.00    -0.011 C 
ATOM      7  C   UNL     1      -2.718 -10.092   0.544  0.00  0.00    +0.009 C 
ATOM      8  C   UNL     1      -2.224  -8.849  -0.186  0.00  0.00    -0.032 C 
ATOM      9  C   UNL     1      -0.811  -8.458   0.215  0.00  0.00    +0.041 C 
ATOM     10  C   UNL     1      -2.222  -9.161  -1.699  0.00  0.00    +0.011 C 
ATOM     11  C   UNL     1      -3.193  -7.685   0.041  0.00  0.00    +0.011 C 
ATOM     12  C   UNL     1      -3.064 -11.207   2.750  0.00  0.00    +0.007 C 
ATOM     13  N   UNL     1       0.951  -8.467   1.893  0.00  0.00    -0.285 N 
ATOM     14  C   UNL     1       1.219  -7.248   2.392  0.00  0.00    +0.310 C 
ATOM     15  O   UNL     1       2.342  -6.825   2.586  0.00  0.00    -0.252 OA
ATOM     16  H   UNL     1       1.580  -9.175   1.694  0.00  0.00    +0.151 HD
ENDROOT
BRANCH   1  17
ATOM     17  C   UNL     1       0.089  -5.172   3.144  0.00  0.00    +0.214 C 
BRANCH  17  25
ATOM     18  C   UNL     1      -0.018   1.503   0.010  0.00  0.00    +0.066 C 
ATOM     19  C   UNL     1       0.002  -0.004   0.002  0.00  0.00    +0.047 A 
ATOM     20  C   UNL     1       0.006  -0.706  -1.158  0.00  0.00    +0.071 A 
ATOM     21  S   UNL     1       0.032  -2.379  -0.535  0.00  0.00    -0.060 S 
ATOM     22  C   UNL     1       0.036  -2.015   1.108  0.00  0.00    +0.165 A 
ATOM     23  N   UNL     1       0.023  -0.700   1.124  0.00  0.00    -0.230 NA
ATOM     24  N   UNL     1       0.053  -2.891   2.187  0.00  0.00    -0.263 N 
ATOM     25  C   UNL     1       0.071  -4.222   1.974  0.00  0.00    +0.237 C 
ATOM     26  O   UNL     1       0.071  -4.655   0.841  0.00  0.00    -0.274 OA
ATOM     27  H   UNL     1       0.053  -2.545   3.093  0.00  0.00    +0.157 HD
ENDBRANCH  17  25
ENDBRANCH   1  17
TORSDOF 2
