REMARK  Name = ZINC19335194
REMARK  4 active torsions:
REMARK  status: ('A' for Active; 'I' for Inactive)
REMARK    1  A    between atoms: C_3  and  S_21
REMARK    2  A    between atoms: C_6  and  N_7
REMARK    3  A    between atoms: C_11  and  N_15
REMARK    4  A    between atoms: S_21  and  N_24
REMARK                            x       y       z     vdW  Elec       q    Type
REMARK                         _______ _______ _______ _____ _____    ______ ____
ROOT
ATOM      1  C   UNL     1       0.633  -2.756   0.092  0.00  0.00    +0.026 A 
ATOM      2  C   UNL     1       0.978  -4.094   0.075  0.00  0.00    +0.030 A 
ATOM      3  C   UNL     1       2.304  -4.466  -0.044  0.00  0.00    +0.106 A 
ATOM      4  C   UNL     1       3.289  -3.502  -0.153  0.00  0.00    +0.030 A 
ATOM      5  C   UNL     1       2.950  -2.163  -0.142  0.00  0.00    +0.026 A 
ATOM      6  C   UNL     1       1.619  -1.786  -0.023  0.00  0.00    +0.044 A 
ENDROOT
BRANCH   6   7
ATOM      7  N   UNL     1       1.272  -0.427  -0.012  0.00  0.00    -0.212 N 
ATOM      8  C   UNL     1       1.610   0.399   0.985  0.00  0.00    +0.225 C 
ATOM      9  O   UNL     1       2.238   0.086   1.974  0.00  0.00    -0.275 OA
ATOM     10  C   UNL     1       1.083   1.785   0.684  0.00  0.00    +0.090 C 
ATOM     11  C   UNL     1       0.374   1.615  -0.675  0.00  0.00    +0.029 C 
ATOM     12  C   UNL     1       0.576   0.150  -0.999  0.00  0.00    +0.213 C 
ATOM     13  O   UNL     1       0.170  -0.411  -1.994  0.00  0.00    -0.277 OA
BRANCH  11  14
ATOM     14  N   UNL     1       1.005   2.461  -1.697  0.00  0.00    +0.388 N 
ATOM     15  C   UNL     1       0.932   3.880  -1.323  0.00  0.00    -0.078 C 
ATOM     16  C   UNL     1       1.722   4.716  -2.332  0.00  0.00    -0.019 C 
ATOM     17  C   UNL     1       1.137   4.506  -3.731  0.00  0.00    -0.004 C 
ATOM     18  C   UNL     1       1.180   3.015  -4.077  0.00  0.00    -0.019 C 
ATOM     19  C   UNL     1       0.405   2.228  -3.017  0.00  0.00    -0.078 C 
ATOM     20  H   UNL     1       2.068   2.185  -1.758  0.00  0.00    -0.081 HD
ENDBRANCH  11  14
ENDBRANCH   6   7
BRANCH   3  21
ATOM     21  S   UNL     1       2.740  -6.173  -0.058  0.00  0.00    +0.061 S 
ATOM     22  O   UNL     1       1.588  -6.883  -0.492  0.00  0.00    -0.153 OA
ATOM     23  O   UNL     1       3.990  -6.268  -0.728  0.00  0.00    -0.153 OA
BRANCH  21  24
ATOM     24  N   UNL     1       3.010  -6.623   1.512  0.00  0.00    -0.172 NA
ATOM     25  C   UNL     1       4.351  -6.522   2.110  0.00  0.00    +0.137 C 
ATOM     26  C   UNL     1       4.226  -5.770   3.444  0.00  0.00    +0.177 C 
ATOM     27  O   UNL     1       3.221  -6.398   4.244  0.00  0.00    -0.377 OA
ATOM     28  C   UNL     1       1.911  -6.363   3.672  0.00  0.00    +0.177 C 
ATOM     29  C   UNL     1       1.917  -7.140   2.351  0.00  0.00    +0.137 C 
ENDBRANCH  21  24
ENDBRANCH   3  21
TORSDOF 4
