REMARK  Name = ZINC14956536
REMARK  7 active torsions:
REMARK  status: ('A' for Active; 'I' for Inactive)
REMARK    1  A    between atoms: C_1  and  O_2
REMARK    2  A    between atoms: O_2  and  C_3
REMARK    3  A    between atoms: C_6  and  C_9
REMARK    4  A    between atoms: C_9  and  C_10
REMARK    5  A    between atoms: C_10  and  N_11
REMARK    6  A    between atoms: C_22  and  N_62
REMARK    7  A    between atoms: C_26  and  N_62
REMARK                            x       y       z     vdW  Elec       q    Type
REMARK                         _______ _______ _______ _____ _____    ______ ____
ROOT
ATOM      1  N   UNL     1       5.241   3.472   1.866  0.00  0.00    -0.298 N 
ATOM      2  C   UNL     1       5.749   2.719   2.871  0.00  0.00    +0.203 A 
ATOM      3  N   UNL     1       5.171   1.620   3.305  0.00  0.00    -0.230 NA
ATOM      4  C   UNL     1       4.038   1.251   2.714  0.00  0.00    +0.116 A 
ATOM      5  C   UNL     1       3.431   1.969   1.660  0.00  0.00    +0.076 A 
ATOM      6  C   UNL     1       4.094   3.163   1.218  0.00  0.00    +0.262 A 
ATOM      7  O   UNL     1       3.652   3.853   0.315  0.00  0.00    -0.267 OA
ATOM      8  C   UNL     1       2.194   1.416   1.138  0.00  0.00    -0.023 A 
ATOM      9  C   UNL     1       1.750   0.273   1.712  0.00  0.00    -0.006 A 
ATOM     10  S   UNL     1       2.948  -0.114   2.963  0.00  0.00    -0.073 S 
ATOM     11  C   UNL     1       0.513  -0.496   1.364  0.00  0.00    +0.027 C 
ATOM     12  C   UNL     1       0.002  -0.004   0.002  0.00  0.00    -0.066 C 
ATOM     13  C   UNL     1      -0.019   1.527   0.010  0.00  0.00    -0.011 C 
ATOM     14  C   UNL     1       1.412   2.066  -0.000  0.00  0.00    +0.035 C 
ENDROOT
BRANCH  12  15
ATOM     15  N   UNL     1      -1.365  -0.509  -0.226  0.00  0.00    +0.383 N 
ATOM     16  H   UNL     1      -1.859   0.126  -0.864  0.00  0.00    -0.085 HD
ATOM     17  H   UNL     1      -1.865  -0.550   0.670  0.00  0.00    -0.085 HD
BRANCH  15  18
ATOM     18  C   UNL     1      -1.320  -1.858  -0.820  0.00  0.00    -0.063 C 
ATOM     19  C   UNL     1      -1.279  -1.778  -2.361  0.00  0.00    +0.020 C 
ATOM     20  C   UNL     1      -2.101  -2.960  -2.838  0.00  0.00    -0.046 A 
ATOM     21  C   UNL     1      -2.157  -3.569  -4.081  0.00  0.00    +0.004 A 
ATOM     22  C   UNL     1      -2.990  -4.652  -4.287  0.00  0.00    +0.000 A 
ATOM     23  C   UNL     1      -3.771  -5.129  -3.251  0.00  0.00    +0.000 A 
ATOM     24  C   UNL     1      -3.716  -4.522  -2.012  0.00  0.00    +0.004 A 
ATOM     25  C   UNL     1      -2.882  -3.437  -1.802  0.00  0.00    -0.046 A 
ATOM     26  C   UNL     1      -2.643  -2.608  -0.558  0.00  0.00    +0.020 C 
ENDBRANCH  15  18
ENDBRANCH  12  15
BRANCH   1  27
ATOM     27  C   UNL     1       5.968   4.678   1.463  0.00  0.00    +0.131 C 
BRANCH  27  28
ATOM     28  C   UNL     1       6.972   4.325   0.364  0.00  0.00    +0.057 C 
BRANCH  28  32
ATOM     29  C   UNL     1       9.092   7.845  -0.813  0.00  0.00    +0.120 A 
ATOM     30  C   UNL     1       9.582   7.049   0.212  0.00  0.00    +0.046 A 
ATOM     31  C   UNL     1       8.895   5.912   0.591  0.00  0.00    +0.007 A 
ATOM     32  C   UNL     1       7.720   5.566  -0.051  0.00  0.00    -0.045 A 
ATOM     33  C   UNL     1       7.233   6.355  -1.077  0.00  0.00    +0.007 A 
ATOM     34  C   UNL     1       7.913   7.496  -1.456  0.00  0.00    +0.046 A 
BRANCH  29  36
ATOM     35  C   UNL     1       9.203   9.735  -2.250  0.00  0.00    +0.277 C 
ATOM     36  O   UNL     1       9.766   8.964  -1.187  0.00  0.00    -0.495 OA
ENDBRANCH  29  36
ENDBRANCH  28  32
ENDBRANCH  27  28
ENDBRANCH   1  27
TORSDOF 6
