REMARK  Name = ZINC08616689
REMARK  3 active torsions:
REMARK  status: ('A' for Active; 'I' for Inactive)
REMARK    1  A    between atoms: C_3  and  N_27
REMARK    2  A    between atoms: C_9  and  C_12
REMARK    3  A    between atoms: N_17  and  C_18
REMARK                            x       y       z     vdW  Elec       q    Type
REMARK                         _______ _______ _______ _____ _____    ______ ____
ROOT
ATOM      1  C   UNL     1       5.808   6.188   0.510  0.00  0.00    +0.224 C 
ATOM      2  O   UNL     1       6.504   6.109  -0.479  0.00  0.00    -0.275 OA
ATOM      3  N   UNL     1       6.076   7.115   1.451  0.00  0.00    -0.240 N 
ATOM      4  C   UNL     1       7.119   7.954   1.292  0.00  0.00    +0.310 C 
ATOM      5  O   UNL     1       7.818   7.875   0.300  0.00  0.00    -0.252 OA
ATOM      6  N   UNL     1       7.388   8.881   2.233  0.00  0.00    -0.268 N 
ATOM      7  H   UNL     1       5.519   7.179   2.242  0.00  0.00    +0.159 HD
ATOM      8  H   UNL     1       6.881   8.894   3.060  0.00  0.00    +0.156 HD
ENDROOT
BRANCH   1  17
ATOM      9  C   UNL     1      -1.230   1.835  -0.226  0.00  0.00    +0.020 A 
ATOM     10  C   UNL     1      -1.288   3.042  -0.911  0.00  0.00    +0.037 A 
ATOM     11  C   UNL     1      -0.161   3.844  -0.930  0.00  0.00    +0.164 A 
ATOM     12  C   UNL     1       0.983   3.420  -0.262  0.00  0.00    +0.130 A 
ATOM     13  C   UNL     1      -0.064   1.479   0.420  0.00  0.00    +0.084 A 
ATOM     14  N   UNL     1       2.122   4.216  -0.273  0.00  0.00    -0.315 N 
ATOM     15  C   UNL     1       2.159   5.099   0.900  0.00  0.00    +0.107 C 
ATOM     16  C   UNL     1       3.345   6.059   0.781  0.00  0.00    +0.032 C 
ATOM     17  C   UNL     1       4.641   5.251   0.688  0.00  0.00    +0.078 C 
ATOM     18  C   UNL     1       4.558   4.304  -0.513  0.00  0.00    +0.032 C 
ATOM     19  C   UNL     1       3.337   3.396  -0.357  0.00  0.00    +0.107 C 
ATOM     20  N   UNL     1       1.062   2.242   0.423  0.00  0.00    -0.348 N 
ATOM     21  H   UNL     1       1.918   1.950   0.909  0.00  0.00    +0.167 HD
BRANCH  11  22
ATOM     22  N   UNL     1      -0.172   5.027  -1.590  0.00  0.00    +0.060 N 
ATOM     23  O   UNL     1      -1.207   5.441  -2.080  0.00  0.00    -0.126 OA
ATOM     24  O   UNL     1       0.854   5.676  -1.694  0.00  0.00    -0.126 OA
ENDBRANCH  11  22
ENDBRANCH   1  17
BRANCH   6  25
ATOM     25  C   UNL     1       8.398   9.826   2.016  0.00  0.00    +0.055 A 
ATOM     26  C   UNL     1       8.839  10.090   0.726  0.00  0.00    +0.026 A 
ATOM     27  C   UNL     1       9.832  11.026   0.514  0.00  0.00    +0.023 A 
ATOM     28  C   UNL     1      10.396  11.694   1.586  0.00  0.00    +0.061 A 
ATOM     29  C   UNL     1       9.963  11.431   2.875  0.00  0.00    +0.079 A 
ATOM     30  C   UNL     1       8.965  10.498   3.092  0.00  0.00    +0.082 A 
ATOM     31 CL   UNL     1       8.421  10.167   4.707  0.00  0.00    -0.080 Cl
ATOM     32 CL   UNL     1      10.672  12.271   4.218  0.00  0.00    -0.080 Cl
ATOM     33 CL   UNL     1      11.649  12.865   1.316  0.00  0.00    -0.082 Cl
ENDBRANCH   6  25
TORSDOF 3
