REMARK  Name = ZINC09041634
REMARK  17 active torsions:
REMARK  status: ('A' for Active; 'I' for Inactive)
REMARK    1  A    between atoms: C_1  and  C_2
REMARK    2  A    between atoms: C_2  and  N_69
REMARK    3  A    between atoms: C_3  and  C_4
REMARK    4  A    between atoms: C_3  and  N_69
REMARK    5  A    between atoms: C_5  and  C_6
REMARK    6  A    between atoms: C_5  and  N_69
REMARK    7  A    between atoms: C_6  and  C_7
REMARK    8  A    between atoms: C_7  and  N_8
REMARK    9  A    between atoms: C_9  and  C_30
REMARK   10  A    between atoms: C_12  and  C_13
REMARK   11  A    between atoms: C_12  and  O_25
REMARK   12  A    between atoms: C_14  and  C_24
REMARK   13  A    between atoms: C_15  and  C_20
REMARK   14  A    between atoms: C_18  and  C_19
REMARK   15  A    between atoms: C_20  and  O_22
REMARK   16  A    between atoms: O_22  and  C_23
REMARK   17  A    between atoms: C_33  and  N_36
REMARK                            x       y       z     vdW  Elec       q    Type
REMARK                         _______ _______ _______ _____ _____    ______ ____
ROOT
ATOM      1  N   UNL     1       3.385   0.143   0.377  0.00  0.00    -0.284 N 
ATOM      2  C   UNL     1       2.624   1.346   0.729  0.00  0.00    +0.144 C 
ATOM      3  C   UNL     1       1.167   0.947   0.740  0.00  0.00    +0.071 C 
ATOM      4  C   UNL     1       0.085   1.761   1.021  0.00  0.00    +0.135 C 
ATOM      5  C   UNL     1       1.132  -0.415   0.414  0.00  0.00    +0.249 C 
ATOM      6  O   UNL     1       0.131  -1.103   0.326  0.00  0.00    -0.282 OA
ATOM      7  C   UNL     1       2.529  -0.876   0.191  0.00  0.00    +0.288 C 
ATOM      8  O   UNL     1       2.849  -2.007  -0.110  0.00  0.00    -0.266 OA
ENDROOT
BRANCH   4   9
ATOM      9  C   UNL     1      -1.277   1.211   0.988  0.00  0.00    +0.041 A 
ATOM     10  C   UNL     1      -2.121   0.985   2.100  0.00  0.00    -0.008 A 
ATOM     11  C   UNL     1      -3.288   0.471   1.618  0.00  0.00    +0.128 A 
ATOM     12  N   UNL     1      -3.184   0.367   0.247  0.00  0.00    -0.352 N 
ATOM     13  H   UNL     1      -3.873   0.027  -0.345  0.00  0.00    +0.166 HD
ATOM     14  C   UNL     1      -1.977   0.810  -0.140  0.00  0.00    +0.024 A 
ATOM     15  C   UNL     1      -1.470   0.862  -1.558  0.00  0.00    +0.064 C 
ATOM     16  C   UNL     1      -1.792   1.262   3.545  0.00  0.00    +0.047 C 
BRANCH  11  17
ATOM     17  C   UNL     1      -4.454   0.089   2.421  0.00  0.00    +0.356 C 
ATOM     18  O   UNL     1      -4.432   0.226   3.629  0.00  0.00    -0.243 OA
BRANCH  17  19
ATOM     19  O   UNL     1      -5.551  -0.416   1.820  0.00  0.00    -0.463 OA
ATOM     20  C   UNL     1      -6.667  -0.773   2.677  0.00  0.00    +0.280 C 
ENDBRANCH  17  19
ENDBRANCH  11  17
ENDBRANCH   4   9
BRANCH   2  21
ATOM     21  C   UNL     1       3.035   1.837   2.093  0.00  0.00    -0.022 A 
ATOM     22  C   UNL     1       3.299   0.932   3.103  0.00  0.00    +0.008 A 
ATOM     23  C   UNL     1       3.680   1.382   4.353  0.00  0.00    +0.033 A 
ATOM     24  C   UNL     1       3.789   2.739   4.595  0.00  0.00    +0.126 A 
ATOM     25  C   UNL     1       3.520   3.645   3.586  0.00  0.00    +0.033 A 
ATOM     26  C   UNL     1       3.143   3.194   2.335  0.00  0.00    +0.008 A 
BRANCH  24  27
ATOM     27  N   UNL     1       4.193   3.222   5.934  0.00  0.00    +0.056 N 
ATOM     28  O   UNL     1       4.289   4.417   6.148  0.00  0.00    -0.126 OA
ATOM     29  O   UNL     1       4.430   2.424   6.824  0.00  0.00    -0.126 OA
ENDBRANCH  24  27
ENDBRANCH   2  21
BRANCH   4  30
ATOM     30  O   UNL     1       0.280   3.062   1.326  0.00  0.00    -0.506 OA
ATOM     31  H   UNL     1      -0.602   3.500   1.500  0.00  0.00    +0.292 HD
ENDBRANCH   4  30
BRANCH   1  32
ATOM     32  C   UNL     1       4.843   0.065   0.249  0.00  0.00    +0.107 C 
BRANCH  32  33
ATOM     33  C   UNL     1       5.454  -0.305   1.602  0.00  0.00    +0.000 C 
BRANCH  33  34
ATOM     34  C   UNL     1       6.976  -0.387   1.469  0.00  0.00    -0.077 C 
BRANCH  34  35
ATOM     35  N   UNL     1       7.553  -0.724   2.788  0.00  0.00    +0.379 N 
ATOM     36  H   UNL     1       7.184  -0.071   3.489  0.00  0.00    -0.082 HD
BRANCH  35  38
ATOM     37  C   UNL     1       7.684  -3.104   2.130  0.00  0.00    -0.017 C 
ATOM     38  C   UNL     1       7.173  -2.102   3.167  0.00  0.00    -0.082 C 
ENDBRANCH  35  38
BRANCH  35  39
ATOM     39  C   UNL     1       9.025  -0.600   2.742  0.00  0.00    -0.082 C 
ATOM     40  C   UNL     1       9.562  -0.591   4.174  0.00  0.00    -0.017 C 
ENDBRANCH  35  39
ENDBRANCH  34  35
ENDBRANCH  33  34
ENDBRANCH  32  33
ENDBRANCH   1  32
TORSDOF 12
