REMARK  Name = ZINC08635481
REMARK  11 active torsions:
REMARK  status: ('A' for Active; 'I' for Inactive)
REMARK    1  A    between atoms: C_1  and  C_2
REMARK    2  A    between atoms: C_2  and  C_3
REMARK    3  A    between atoms: C_2  and  C_4
REMARK    4  A    between atoms: C_4  and  N_5
REMARK    5  A    between atoms: N_5  and  C_6
REMARK    6  A    between atoms: C_6  and  N_8
REMARK    7  A    between atoms: N_8  and  C_9
REMARK    8  A    between atoms: C_9  and  C_10
REMARK    9  A    between atoms: C_18  and  C_20
REMARK   10  A    between atoms: C_22  and  C_26
REMARK   11  A    between atoms: N_24  and  C_25
REMARK                            x       y       z     vdW  Elec       q    Type
REMARK                         _______ _______ _______ _____ _____    ______ ____
ROOT
ATOM      1  C   UNL     1      -2.388   4.061  -0.165  0.00  0.00    -0.051 C 
ATOM      2  C   UNL     1      -1.467   3.895   1.047  0.00  0.00    -0.010 C 
ATOM      3  C   UNL     1      -0.926   2.460   1.069  0.00  0.00    -0.007 C 
ATOM      4  C   UNL     1      -0.170   2.202  -0.240  0.00  0.00    -0.015 C 
ATOM      5  C   UNL     1      -1.127   2.414  -1.417  0.00  0.00    -0.078 C 
ATOM      6  C   UNL     1      -3.021   1.725  -0.072  0.00  0.00    -0.068 C 
ATOM      7  C   UNL     1      -2.115   1.494   1.147  0.00  0.00    +0.024 C 
ATOM      8  N   UNL     1      -2.469   2.797  -0.928  0.00  0.00    +0.383 N 
ATOM      9  H   UNL     1      -3.091   2.934  -1.734  0.00  0.00    -0.081 HD
ENDROOT
BRANCH   7  10
ATOM     10  C   UNL     1      -2.891   1.748   2.413  0.00  0.00    +0.041 A 
ATOM     11  C   UNL     1      -4.226   1.931   2.503  0.00  0.00    +0.053 A 
ATOM     12  C   UNL     1      -4.544   2.134   3.860  0.00  0.00    +0.093 A 
ATOM     13  N   UNL     1      -3.424   2.083   4.550  0.00  0.00    -0.171 NA
ATOM     14  N   UNL     1      -2.373   1.841   3.657  0.00  0.00    -0.271 N 
ATOM     15  C   UNL     1      -0.957   1.710   4.010  0.00  0.00    +0.172 C 
BRANCH  12  16
ATOM     16  C   UNL     1      -5.900   2.371   4.413  0.00  0.00    +0.003 A 
ATOM     17  C   UNL     1      -7.019   2.295   3.569  0.00  0.00    +0.011 A 
ATOM     18  C   UNL     1      -8.271   2.508   4.050  0.00  0.00    +0.009 A 
ATOM     19  C   UNL     1      -8.459   2.809   5.411  0.00  0.00    -0.018 A 
ATOM     20  C   UNL     1      -9.744   3.033   5.934  0.00  0.00    +0.008 A 
ATOM     21  C   UNL     1      -9.894   3.322   7.255  0.00  0.00    +0.001 A 
ATOM     22  C   UNL     1      -8.790   3.400   8.103  0.00  0.00    +0.001 A 
ATOM     23  C   UNL     1      -7.530   3.189   7.633  0.00  0.00    +0.008 A 
ATOM     24  C   UNL     1      -7.336   2.888   6.273  0.00  0.00    -0.017 A 
ATOM     25  C   UNL     1      -6.051   2.660   5.756  0.00  0.00    +0.018 A 
ENDBRANCH  12  16
ENDBRANCH   7  10
BRANCH   1  26
ATOM     26  C   UNL     1      -3.791   4.446   0.309  0.00  0.00    +0.088 C 
BRANCH  26  27
ATOM     27  N   UNL     1      -4.701   4.484  -0.838  0.00  0.00    -0.328 N 
ATOM     28  H   UNL     1      -4.370   4.281  -1.727  0.00  0.00    +0.148 HD
BRANCH  27  29
ATOM     29  C   UNL     1      -5.998   4.803  -0.659  0.00  0.00    +0.130 C 
ATOM     30  S   UNL     1      -6.583   5.161   0.910  0.00  0.00    -0.019 S 
BRANCH  29  31
ATOM     31  N   UNL     1      -6.835   4.838  -1.715  0.00  0.00    -0.326 N 
ATOM     32  H   UNL     1      -6.504   4.635  -2.603  0.00  0.00    +0.148 HD
BRANCH  31  33
ATOM     33  C   UNL     1      -8.246   5.184  -1.520  0.00  0.00    +0.106 C 
BRANCH  33  35
ATOM     34  C   UNL     1     -10.465   5.390  -2.649  0.00  0.00    +0.009 C 
ATOM     35  C   UNL     1      -8.969   5.152  -2.868  0.00  0.00    -0.000 C 
ATOM     36  C   UNL     1      -8.406   6.247  -3.775  0.00  0.00    +0.009 C 
ENDBRANCH  33  35
ENDBRANCH  31  33
ENDBRANCH  29  31
ENDBRANCH  27  29
ENDBRANCH  26  27
ENDBRANCH   1  26
TORSDOF 8
