REMARK  Name = ZINC09271269
REMARK  14 active torsions:
REMARK  status: ('A' for Active; 'I' for Inactive)
REMARK    1  A    between atoms: C_1  and  C_2
REMARK    2  A    between atoms: C_2  and  N_66
REMARK    3  A    between atoms: C_3  and  C_4
REMARK    4  A    between atoms: C_3  and  N_66
REMARK    5  A    between atoms: C_5  and  C_6
REMARK    6  A    between atoms: C_5  and  N_66
REMARK    7  A    between atoms: C_6  and  C_7
REMARK    8  A    between atoms: C_7  and  N_8
REMARK    9  A    between atoms: C_9  and  C_24
REMARK   10  A    between atoms: C_12  and  C_13
REMARK   11  A    between atoms: C_12  and  O_19
REMARK   12  A    between atoms: C_27  and  C_30
REMARK   13  A    between atoms: C_30  and  C_31
REMARK   14  A    between atoms: C_30  and  C_32
REMARK                            x       y       z     vdW  Elec       q    Type
REMARK                         _______ _______ _______ _____ _____    ______ ____
ROOT
ATOM      1  N   UNL     1      -2.819   7.793  -0.410  0.00  0.00    -0.284 N 
ATOM      2  C   UNL     1      -1.366   7.604  -0.366  0.00  0.00    +0.144 C 
ATOM      3  C   UNL     1      -1.125   6.114  -0.305  0.00  0.00    +0.071 C 
ATOM      4  C   UNL     1       0.096   5.473  -0.254  0.00  0.00    +0.133 C 
ATOM      5  C   UNL     1      -2.394   5.512  -0.305  0.00  0.00    +0.249 C 
ATOM      6  O   UNL     1      -2.618   4.316  -0.259  0.00  0.00    -0.282 OA
ATOM      7  C   UNL     1      -3.418   6.590  -0.371  0.00  0.00    +0.288 C 
ATOM      8  O   UNL     1      -4.618   6.410  -0.386  0.00  0.00    -0.266 OA
ENDROOT
BRANCH   4   9
ATOM      9  C   UNL     1       0.160   4.003  -0.327  0.00  0.00    +0.017 A 
ATOM     10  C   UNL     1      -0.554   3.316  -1.313  0.00  0.00    +0.011 A 
ATOM     11  C   UNL     1      -0.488   1.940  -1.375  0.00  0.00    +0.001 A 
ATOM     12  C   UNL     1       0.281   1.239  -0.463  0.00  0.00    +0.000 A 
ATOM     13  C   UNL     1       0.986   1.911   0.520  0.00  0.00    +0.001 A 
ATOM     14  C   UNL     1       0.936   3.287   0.591  0.00  0.00    +0.011 A 
ENDBRANCH   4   9
BRANCH   2  15
ATOM     15  C   UNL     1      -0.737   8.178  -1.610  0.00  0.00    -0.022 A 
ATOM     16  C   UNL     1      -1.367   8.034  -2.832  0.00  0.00    +0.006 A 
ATOM     17  C   UNL     1      -0.792   8.565  -3.972  0.00  0.00    +0.004 A 
ATOM     18  C   UNL     1       0.417   9.231  -3.891  0.00  0.00    -0.045 A 
ATOM     19  C   UNL     1       1.048   9.370  -2.669  0.00  0.00    +0.004 A 
ATOM     20  C   UNL     1       0.471   8.844  -1.529  0.00  0.00    +0.006 A 
BRANCH  18  21
ATOM     21  C   UNL     1       1.046   9.804  -5.134  0.00  0.00    +0.013 C 
ATOM     22  C   UNL     1       1.309   8.680  -6.138  0.00  0.00    +0.012 C 
ATOM     23  C   UNL     1       0.100  10.832  -5.757  0.00  0.00    +0.012 C 
ENDBRANCH  18  21
ENDBRANCH   2  15
BRANCH   4  24
ATOM     24  O   UNL     1       1.232   6.193  -0.138  0.00  0.00    -0.506 OA
ATOM     25  H   UNL     1       2.018   5.575  -0.116  0.00  0.00    +0.292 HD
ENDBRANCH   4  24
BRANCH   1  26
ATOM     26  C   UNL     1      -3.508   9.084  -0.477  0.00  0.00    +0.107 C 
BRANCH  26  27
ATOM     27  C   UNL     1      -3.776   9.594   0.941  0.00  0.00    +0.000 C 
BRANCH  27  28
ATOM     28  C   UNL     1      -4.495  10.942   0.870  0.00  0.00    -0.077 C 
BRANCH  28  29
ATOM     29  N   UNL     1      -4.765  11.411   2.246  0.00  0.00    +0.379 N 
ATOM     30  H   UNL     1      -5.237  10.662   2.766  0.00  0.00    -0.082 HD
BRANCH  29  32
ATOM     31  C   UNL     1      -2.782  12.886   2.203  0.00  0.00    -0.017 C 
ATOM     32  C   UNL     1      -3.495  11.741   2.926  0.00  0.00    -0.082 C 
ENDBRANCH  29  32
BRANCH  29  33
ATOM     33  C   UNL     1      -5.644  12.598   2.211  0.00  0.00    -0.082 C 
ATOM     34  C   UNL     1      -6.193  12.845   3.618  0.00  0.00    -0.017 C 
ENDBRANCH  29  33
ENDBRANCH  28  29
ENDBRANCH  27  28
ENDBRANCH  26  27
ENDBRANCH   1  26
TORSDOF 10
