REMARK  Name = ZINC43549308
REMARK  13 active torsions:
REMARK  status: ('A' for Active; 'I' for Inactive)
REMARK    1  A    between atoms: C_1  and  C_2
REMARK    2  A    between atoms: C_7  and  C_9
REMARK    3  A    between atoms: C_9  and  O_10
REMARK    4  A    between atoms: O_10  and  C_11
REMARK    5  A    between atoms: C_11  and  C_13
REMARK    6  A    between atoms: C_13  and  C_14
REMARK    7  A    between atoms: C_13  and  C_15
REMARK    8  A    between atoms: C_13  and  C_16
REMARK    9  A    between atoms: C_18  and  C_39
REMARK   10  A    between atoms: C_21  and  O_38
REMARK   11  A    between atoms: C_23  and  C_27
REMARK   12  A    between atoms: C_27  and  C_29
REMARK   13  A    between atoms: C_27  and  C_30
REMARK                            x       y       z     vdW  Elec       q    Type
REMARK                         _______ _______ _______ _____ _____    ______ ____
ROOT
ATOM      1  C   UNL     1       0.971   1.608  -0.994  0.00  0.00    +0.014 C 
ATOM      2  C   UNL     1       0.535   0.152  -0.824  0.00  0.00    +0.042 C 
ATOM      3  C   UNL     1      -0.980   0.085  -0.713  0.00  0.00    +0.055 A 
ATOM      4  C   UNL     1      -1.572  -0.752   0.179  0.00  0.00    +0.014 A 
ATOM      5  S   UNL     1      -3.295  -0.450  -0.095  0.00  0.00    -0.073 S 
ATOM      6  C   UNL     1      -3.122   0.707  -1.309  0.00  0.00    +0.116 A 
ATOM      7  N   UNL     1      -1.823   0.805  -1.444  0.00  0.00    -0.245 NA
ATOM      8  C   UNL     1      -0.903  -1.678   1.135  0.00  0.00    +0.051 C 
ATOM      9  C   UNL     1       0.572  -1.808   0.749  0.00  0.00    -0.022 C 
ATOM     10  C   UNL     1       1.163  -0.426   0.450  0.00  0.00    +0.033 C 
ATOM     11  C   UNL     1       2.669  -0.604   0.196  0.00  0.00    +0.123 C 
ATOM     12  C   UNL     1       2.857  -1.495  -1.034  0.00  0.00    +0.029 C 
ATOM     13  C   UNL     1       2.222  -2.864  -0.790  0.00  0.00    +0.007 C 
ATOM     14  C   UNL     1       0.731  -2.697  -0.483  0.00  0.00    +0.008 C 
ATOM     15  C   UNL     1       1.347  -2.422   1.916  0.00  0.00    +0.012 C 
ENDROOT
BRANCH  12  16
ATOM     16  C   UNL     1       4.352  -1.673  -1.307  0.00  0.00    +0.078 C 
ATOM     17  C   UNL     1       4.990  -0.306  -1.564  0.00  0.00    +0.017 C 
BRANCH  16  18
ATOM     18  C   UNL     1       4.540  -2.550  -2.518  0.00  0.00    +0.219 C 
ATOM     19  O   UNL     1       3.688  -2.585  -3.380  0.00  0.00    -0.275 OA
ATOM     20  N   UNL     1       5.656  -3.296  -2.643  0.00  0.00    -0.297 N 
ATOM     21  C   UNL     1       6.752  -3.189  -1.667  0.00  0.00    +0.136 C 
ATOM     22  C   UNL     1       7.119  -4.600  -1.195  0.00  0.00    +0.179 C 
ATOM     23  O   UNL     1       7.362  -5.429  -2.335  0.00  0.00    -0.377 OA
ATOM     24  C   UNL     1       6.227  -5.602  -3.186  0.00  0.00    +0.179 C 
ATOM     25  C   UNL     1       5.811  -4.246  -3.756  0.00  0.00    +0.136 C 
ENDBRANCH  16  18
ENDBRANCH  12  16
BRANCH  11  26
ATOM     26  O   UNL     1       3.277  -1.217   1.335  0.00  0.00    -0.391 OA
ATOM     27  H   UNL     1       4.229  -1.360   1.243  0.00  0.00    +0.210 HD
ENDBRANCH  11  26
BRANCH   6  28
ATOM     28  C   UNL     1      -4.200   1.448  -2.057  0.00  0.00    +0.294 C 
BRANCH  28  29
ATOM     29  O   UNL     1      -4.564   0.708  -3.224  0.00  0.00    -0.457 OA
BRANCH  29  30
ATOM     30  C   UNL     1      -5.519   1.235  -4.007  0.00  0.00    +0.313 C 
ATOM     31  O   UNL     1      -6.029   2.289  -3.710  0.00  0.00    -0.250 OA
BRANCH  30  32
ATOM     32  C   UNL     1      -5.954   0.512  -5.255  0.00  0.00    +0.059 C 
ATOM     33  C   UNL     1      -7.046   1.321  -5.958  0.00  0.00    +0.022 C 
ATOM     34  C   UNL     1      -4.757   0.347  -6.193  0.00  0.00    +0.022 C 
ATOM     35  C   UNL     1      -6.502  -0.867  -4.880  0.00  0.00    +0.022 C 
ENDBRANCH  30  32
ENDBRANCH  29  30
ENDBRANCH  28  29
ENDBRANCH   6  28
TORSDOF 7
