REMARK  Name = ZINC63376036
REMARK  4 active torsions:
REMARK  status: ('A' for Active; 'I' for Inactive)
REMARK    1  A    between atoms: C_4  and  C_7
REMARK    2  A    between atoms: C_7  and  N_8
REMARK    3  A    between atoms: C_13  and  C_31
REMARK    4  A    between atoms: C_31  and  C_32
REMARK                            x       y       z     vdW  Elec       q    Type
REMARK                         _______ _______ _______ _____ _____    ______ ____
ROOT
ATOM      1  N   UNL     1       4.152  -0.952   1.338  0.00  0.00    -0.237 N 
ATOM      2  C   UNL     1       4.914  -0.088   2.018  0.00  0.00    +0.227 C 
ATOM      3  O   UNL     1       5.324   0.970   1.593  0.00  0.00    -0.275 OA
ATOM      4  C   UNL     1       5.184  -0.638   3.400  0.00  0.00    +0.107 C 
ATOM      5  C   UNL     1       6.682  -0.988   3.527  0.00  0.00    +0.072 C 
ATOM      6  N   UNL     1       6.795  -2.377   3.008  0.00  0.00    -0.295 NA
ATOM      7  C   UNL     1       5.578  -3.046   3.504  0.00  0.00    +0.136 C 
ATOM      8  C   UNL     1       4.439  -2.002   3.397  0.00  0.00    +0.122 C 
ATOM      9  C   UNL     1       3.820  -2.056   2.018  0.00  0.00    +0.229 C 
ATOM     10  O   UNL     1       3.132  -2.959   1.594  0.00  0.00    -0.275 OA
ATOM     11  C   UNL     1       5.268  -4.287   2.716  0.00  0.00    +0.005 A 
ATOM     12  C   UNL     1       5.008  -4.524   1.385  0.00  0.00    +0.008 A 
ATOM     13  C   UNL     1       4.753  -5.812   0.947  0.00  0.00    +0.002 A 
ATOM     14  C   UNL     1       4.760  -6.860   1.850  0.00  0.00    +0.022 A 
ATOM     15  C   UNL     1       5.020  -6.627   3.185  0.00  0.00    +0.062 A 
ATOM     16  C   UNL     1       5.277  -5.332   3.634  0.00  0.00    +0.057 A 
ATOM     17  N   UNL     1       5.563  -4.850   4.914  0.00  0.00    -0.282 N 
ATOM     18  C   UNL     1       5.751  -3.516   4.923  0.00  0.00    +0.243 C 
ATOM     19  O   UNL     1       6.010  -2.827   5.887  0.00  0.00    -0.273 OA
ATOM     20 CL   UNL     1       5.026  -7.950   4.310  0.00  0.00    -0.082 Cl
ATOM     21  H   UNL     1       6.827  -2.385   2.000  0.00  0.00    +0.124 HD
ATOM     22  H   UNL     1       5.618  -5.410   5.704  0.00  0.00    +0.155 HD
ENDROOT
BRANCH   1  23
ATOM     23  C   UNL     1       3.711  -0.707  -0.038  0.00  0.00    +0.151 C 
BRANCH  23  27
ATOM     24  C   UNL     1      -0.017   1.378   0.010  0.00  0.00    +0.000 A 
ATOM     25  C   UNL     1       1.171   2.086   0.002  0.00  0.00    +0.000 A 
ATOM     26  C   UNL     1       2.377   1.411  -0.013  0.00  0.00    +0.005 A 
ATOM     27  C   UNL     1       2.396   0.029  -0.020  0.00  0.00    -0.030 A 
ATOM     28  C   UNL     1       1.208  -0.679  -0.012  0.00  0.00    +0.005 A 
ATOM     29  C   UNL     1       0.002  -0.004   0.002  0.00  0.00    +0.000 A 
ENDBRANCH  23  27
ENDBRANCH   1  23
BRANCH   5  30
ATOM     30  C   UNL     1       7.526  -0.031   2.681  0.00  0.00    +0.052 C 
BRANCH  30  31
ATOM     31  C   UNL     1       8.988  -0.311   2.914  0.00  0.00    -0.040 C 
ATOM     32  C   UNL     1       9.794  -1.099   2.167  0.00  0.00    -0.001 A 
ATOM     33  C   UNL     1       9.560  -1.901   0.960  0.00  0.00    +0.010 A 
ATOM     34  C   UNL     1      10.587  -2.602   0.428  0.00  0.00    +0.001 A 
ATOM     35  C   UNL     1      11.867  -2.581   0.999  0.00  0.00    +0.002 A 
ATOM     36  C   UNL     1      12.160  -1.868   2.107  0.00  0.00    +0.026 A 
ATOM     37  C   UNL     1      11.155  -1.093   2.750  0.00  0.00    +0.043 A 
ATOM     38  N   UNL     1      11.188  -0.332   3.816  0.00  0.00    -0.380 N 
ATOM     39  C   UNL     1       9.852   0.237   4.027  0.00  0.00    +0.144 C 
ATOM     40  H   UNL     1      11.967  -0.169   4.371  0.00  0.00    +0.160 HD
ENDBRANCH  30  31
ENDBRANCH   5  30
TORSDOF 4
