REMARK  Name = ZINC20833067
REMARK  6 active torsions:
REMARK  status: ('A' for Active; 'I' for Inactive)
REMARK    1  A    between atoms: C_10  and  N_12
REMARK    2  A    between atoms: C_13  and  C_15
REMARK    3  A    between atoms: C_15  and  S_16
REMARK    4  A    between atoms: S_16  and  C_17
REMARK    5  A    between atoms: N_22  and  N_23
REMARK    6  A    between atoms: C_24  and  C_25
REMARK                            x       y       z     vdW  Elec       q    Type
REMARK                         _______ _______ _______ _____ _____    ______ ____
ROOT
ATOM      1  C   UNL     1       8.137   2.941  -0.057  0.00  0.00    +0.211 A 
ATOM      2  N   UNL     1       7.205   3.939  -0.049  0.00  0.00    -0.186 NA
ATOM      3  C   UNL     1       5.966   3.361  -0.035  0.00  0.00    +0.232 A 
ATOM      4  N   UNL     1       6.127   2.060  -0.044  0.00  0.00    -0.245 N 
ATOM      5  N   UNL     1       7.502   1.794  -0.058  0.00  0.00    -0.144 NA
ATOM      6  N   UNL     1       4.752   4.033  -0.020  0.00  0.00    -0.205 N 
ATOM      7  H   UNL     1       4.732   5.132  -0.014  0.00  0.00    +0.177 HD
ATOM      8  H   UNL     1       5.249   1.397  -0.040  0.00  0.00    +0.192 HD
ENDROOT
BRANCH   6   9
ATOM      9  N   UNL     1       3.552   3.310  -0.013  0.00  0.00    -0.188 NA
ATOM     10  C   UNL     1       2.416   3.939   0.001  0.00  0.00    +0.139 C 
BRANCH  10  11
ATOM     11  C   UNL     1       1.153   3.179   0.008  0.00  0.00    +0.013 A 
ATOM     12  C   UNL     1      -0.072   3.852   0.023  0.00  0.00    +0.012 A 
ATOM     13  C   UNL     1      -1.249   3.135   0.031  0.00  0.00    +0.021 A 
ATOM     14  C   UNL     1      -1.222   1.750   0.017  0.00  0.00    +0.042 A 
ATOM     15  C   UNL     1      -0.013   1.076   0.008  0.00  0.00    +0.040 A 
ATOM     16  C   UNL     1       1.174   1.781   0.000  0.00  0.00    +0.051 A 
ATOM     17 CL   UNL     1       2.690   0.934  -0.018  0.00  0.00    -0.083 Cl
ATOM     18 CL   UNL     1      -2.710   0.856   0.019  0.00  0.00    -0.083 Cl
ENDBRANCH  10  11
ENDBRANCH   6   9
BRANCH   1  19
ATOM     19  S   UNL     1       9.886   3.157  -0.071  0.00  0.00    -0.075 S 
BRANCH  19  20
ATOM     20  C   UNL     1      10.537   1.464  -0.088  0.00  0.00    +0.173 C 
BRANCH  20  22
ATOM     21  N   UNL     1      12.749   0.358  -0.114  0.00  0.00    -0.308 N 
ATOM     22  C   UNL     1      12.043   1.506  -0.101  0.00  0.00    +0.224 C 
ATOM     23  O   UNL     1      12.621   2.572  -0.100  0.00  0.00    -0.275 OA
ATOM     24  H   UNL     1      12.226  -0.610  -0.116  0.00  0.00    +0.149 HD
BRANCH  21  34
ATOM     25  C   UNL     1      15.559   0.936   3.897  0.00  0.00    +0.000 A 
ATOM     26  C   UNL     1      14.471   1.639   3.414  0.00  0.00    +0.000 A 
ATOM     27  C   UNL     1      14.054   1.448   2.113  0.00  0.00    +0.006 A 
ATOM     28  C   UNL     1      14.719   0.554   1.283  0.00  0.00    -0.024 A 
ATOM     29  C   UNL     1      15.799  -0.149   1.765  0.00  0.00    -0.042 A 
ATOM     30  C   UNL     1      16.219   0.046   3.075  0.00  0.00    +0.004 A 
ATOM     31  C   UNL     1      16.562  -1.140   0.925  0.00  0.00    +0.035 C 
ATOM     32  C   UNL     1      16.268  -0.926  -0.558  0.00  0.00    +0.007 C 
ATOM     33  C   UNL     1      14.747  -0.891  -0.750  0.00  0.00    +0.027 C 
ATOM     34  C   UNL     1      14.213   0.398  -0.127  0.00  0.00    +0.103 C 
ENDBRANCH  21  34
ENDBRANCH  20  22
ENDBRANCH  19  20
ENDBRANCH   1  19
TORSDOF 6
