REMARK  Name = ZINC39226270
REMARK  9 active torsions:
REMARK  status: ('A' for Active; 'I' for Inactive)
REMARK    1  A    between atoms: C_1  and  C_2
REMARK    2  A    between atoms: C_2  and  O_3
REMARK    3  A    between atoms: O_3  and  C_4
REMARK    4  A    between atoms: C_4  and  C_6
REMARK    5  A    between atoms: C_12  and  N_14
REMARK    6  A    between atoms: C_15  and  C_17
REMARK    7  A    between atoms: C_20  and  C_23
REMARK    8  A    between atoms: C_29  and  O_40
REMARK    9  A    between atoms: N_36  and  C_39
REMARK                            x       y       z     vdW  Elec       q    Type
REMARK                         _______ _______ _______ _____ _____    ______ ____
ROOT
ATOM      1  C   UNL     1      -0.661  -6.035   2.376  0.00  0.00    +0.037 A 
ATOM      2  C   UNL     1      -0.638  -5.240   3.525  0.00  0.00    +0.013 A 
ATOM      3  C   UNL     1       0.050  -5.662   4.640  0.00  0.00    +0.009 A 
ATOM      4  C   UNL     1       0.725  -6.884   4.623  0.00  0.00    -0.018 A 
ATOM      5  C   UNL     1       0.703  -7.678   3.476  0.00  0.00    +0.009 A 
ATOM      6  C   UNL     1       0.011  -7.260   2.362  0.00  0.00    +0.013 A 
ENDROOT
BRANCH   4   7
ATOM      7  C   UNL     1       1.466  -7.337   5.824  0.00  0.00    -0.017 A 
ATOM      8  C   UNL     1       1.486  -6.548   6.974  0.00  0.00    +0.012 A 
ATOM      9  C   UNL     1       2.177  -6.975   8.085  0.00  0.00    +0.046 A 
ATOM     10  C   UNL     1       2.858  -8.190   8.067  0.00  0.00    +0.127 A 
ATOM     11  C   UNL     1       2.836  -8.978   6.928  0.00  0.00    +0.023 A 
ATOM     12  C   UNL     1       2.141  -8.556   5.810  0.00  0.00    +0.018 A 
ATOM     13  C   UNL     1       3.550 -10.305   6.876  0.00  0.00    +0.152 C 
ATOM     14  C   UNL     1       4.588 -10.376   7.999  0.00  0.00    +0.084 C 
ATOM     15  C   UNL     1       3.917  -9.935   9.305  0.00  0.00    +0.110 C 
ATOM     16  O   UNL     1       3.534  -8.567   9.184  0.00  0.00    -0.485 OA
ATOM     17  C   UNL     1       4.902 -10.098  10.465  0.00  0.00    +0.029 C 
ATOM     18  C   UNL     1       4.201  -9.734  11.776  0.00  0.00    -0.075 C 
ATOM     19  N   UNL     1       3.047 -10.619  11.979  0.00  0.00    +0.378 N 
ATOM     20  C   UNL     1       2.065 -10.410  10.909  0.00  0.00    -0.075 C 
ATOM     21  C   UNL     1       2.682 -10.800   9.563  0.00  0.00    +0.029 C 
ATOM     22  C   UNL     1       2.426 -10.321  13.277  0.00  0.00    -0.096 C 
ATOM     23  H   UNL     1       3.356 -11.579  11.969  0.00  0.00    -0.082 HD
BRANCH  13  24
ATOM     24  O   UNL     1       4.206 -10.444   5.614  0.00  0.00    -0.387 OA
ATOM     25  H   UNL     1       3.608 -10.412   4.855  0.00  0.00    +0.210 HD
ENDBRANCH  13  24
ENDBRANCH   4   7
BRANCH   1  27
ATOM     26  N   UNL     1      -2.047  -4.401   1.194  0.00  0.00    -0.308 N 
ATOM     27  C   UNL     1      -1.400  -5.583   1.180  0.00  0.00    +0.244 C 
ATOM     28  O   UNL     1      -1.423  -6.277   0.182  0.00  0.00    -0.270 OA
ATOM     29  H   UNL     1      -2.029  -3.848   1.990  0.00  0.00    +0.149 HD
BRANCH  26  35
ATOM     30  C   UNL     1      -2.881  -2.427   0.017  0.00  0.00    +0.118 C 
ATOM     31  C   UNL     1      -3.622  -1.972   1.275  0.00  0.00    +0.016 C 
ATOM     32  C   UNL     1      -5.028  -2.576   1.286  0.00  0.00    +0.001 C 
ATOM     33  C   UNL     1      -4.927  -4.103   1.276  0.00  0.00    +0.002 C 
ATOM     34  C   UNL     1      -4.186  -4.557   0.018  0.00  0.00    +0.023 C 
ATOM     35  C   UNL     1      -2.780  -3.953   0.007  0.00  0.00    +0.087 C 
BRANCH  30  36
ATOM     36  C   UNL     1      -1.496  -1.832   0.006  0.00  0.00    +0.312 C 
ATOM     37  O   UNL     1      -0.528  -2.555  -0.007  0.00  0.00    -0.250 OA
BRANCH  36  38
ATOM     38  O   UNL     1      -1.339  -0.499   0.012  0.00  0.00    -0.465 OA
BRANCH  38  40
ATOM     39  C   UNL     1      -0.019   1.526   0.010  0.00  0.00    +0.048 C 
ATOM     40  C   UNL     1       0.002  -0.004   0.002  0.00  0.00    +0.229 C 
ENDBRANCH  38  40
ENDBRANCH  36  38
ENDBRANCH  30  36
ENDBRANCH  26  35
ENDBRANCH   1  27
TORSDOF 7
