REMARK  Name = ZINC39891892
REMARK  7 active torsions:
REMARK  status: ('A' for Active; 'I' for Inactive)
REMARK    1  A    between atoms: C_1  and  C_2
REMARK    2  A    between atoms: C_5  and  N_8
REMARK    3  A    between atoms: C_12  and  S_16
REMARK    4  A    between atoms: S_16  and  C_17
REMARK    5  A    between atoms: C_20  and  C_22
REMARK    6  A    between atoms: C_24  and  N_31
REMARK    7  A    between atoms: C_26  and  N_28
REMARK                            x       y       z     vdW  Elec       q    Type
REMARK                         _______ _______ _______ _____ _____    ______ ____
ROOT
ATOM      1  C   UNL     1       1.612  -7.213   2.995  0.00  0.00    +0.278 A 
ATOM      2  N   UNL     1       0.622  -6.766   3.733  0.00  0.00    -0.101 NA
ATOM      3  N   UNL     1       0.891  -6.963   4.976  0.00  0.00    -0.106 NA
ATOM      4  C   UNL     1       2.062  -7.542   5.082  0.00  0.00    +0.249 A 
ATOM      5  O   UNL     1       2.540  -7.719   3.830  0.00  0.00    -0.411 OA
ENDROOT
BRANCH   4   6
ATOM      6  C   UNL     1       2.732  -7.936   6.338  0.00  0.00    +0.043 A 
ATOM      7  C   UNL     1       3.988  -8.544   6.302  0.00  0.00    +0.046 A 
ATOM      8  C   UNL     1       4.609  -8.909   7.479  0.00  0.00    +0.129 A 
ATOM      9  C   UNL     1       3.988  -8.675   8.693  0.00  0.00    +0.065 A 
ATOM     10  C   UNL     1       2.743  -8.073   8.736  0.00  0.00    +0.129 A 
ATOM     11  C   UNL     1       2.114  -7.698   7.567  0.00  0.00    +0.046 A 
BRANCH  10  12
ATOM     12  N   UNL     1       2.086  -7.827  10.040  0.00  0.00    +0.057 N 
ATOM     13  O   UNL     1       2.638  -8.152  11.065  0.00  0.00    -0.126 OA
ATOM     14  O   UNL     1       0.998  -7.302  10.079  0.00  0.00    -0.126 OA
ENDBRANCH  10  12
BRANCH   8  15
ATOM     15  N   UNL     1       5.941  -9.553   7.442  0.00  0.00    +0.057 N 
ATOM     16  O   UNL     1       6.484  -9.759   6.382  0.00  0.00    -0.126 OA
ATOM     17  O   UNL     1       6.485  -9.874   8.473  0.00  0.00    -0.126 OA
ENDBRANCH   8  15
ENDBRANCH   4   6
BRANCH   1  18
ATOM     18  S   UNL     1       1.706  -7.168   1.237  0.00  0.00    -0.052 S 
BRANCH  18  23
ATOM     19  N   UNL     1       0.059  -4.172  -0.021  0.00  0.00    -0.209 N 
ATOM     20  C   UNL     1      -0.030  -4.892  -1.146  0.00  0.00    +0.228 C 
ATOM     21  O   UNL     1      -0.134  -4.436  -2.265  0.00  0.00    -0.275 OA
ATOM     22  C   UNL     1       0.020  -6.364  -0.801  0.00  0.00    +0.120 C 
ATOM     23  C   UNL     1       0.155  -6.371   0.735  0.00  0.00    +0.151 C 
ATOM     24  C   UNL     1       0.172  -4.902   1.096  0.00  0.00    +0.240 C 
ATOM     25  O   UNL     1       0.271  -4.455   2.219  0.00  0.00    -0.274 OA
BRANCH  19  30
ATOM     26  C   UNL     1      -0.016   1.503   0.009  0.00  0.00    +0.044 C 
ATOM     27  C   UNL     1       0.004  -0.004   0.001  0.00  0.00    -0.050 A 
ATOM     28  C   UNL     1       1.156  -0.681   0.357  0.00  0.00    +0.005 A 
ATOM     29  C   UNL     1       1.177  -2.062   0.351  0.00  0.00    +0.024 A 
ATOM     30  C   UNL     1       0.040  -2.771  -0.013  0.00  0.00    +0.044 A 
ATOM     31  C   UNL     1      -1.115  -2.088  -0.370  0.00  0.00    +0.024 A 
ATOM     32  C   UNL     1      -1.132  -0.707  -0.357  0.00  0.00    +0.005 A 
ENDBRANCH  19  30
ENDBRANCH  18  23
ENDBRANCH   1  18
TORSDOF 6
