REMARK  Name = ZINC34829732
REMARK  6 active torsions:
REMARK  status: ('A' for Active; 'I' for Inactive)
REMARK    1  A    between atoms: C_1  and  C_2
REMARK    2  A    between atoms: C_5  and  C_8
REMARK    3  A    between atoms: N_17  and  C_18
REMARK    4  A    between atoms: C_18  and  C_19
REMARK    5  A    between atoms: C_25  and  C_28
REMARK    6  A    between atoms: C_29  and  C_31
REMARK                            x       y       z     vdW  Elec       q    Type
REMARK                         _______ _______ _______ _____ _____    ______ ____
ROOT
ATOM      1  C   UNL     1       0.226  -2.607   0.951  0.00  0.00    -0.005 C 
ATOM      2  C   UNL     1      -1.229  -2.906   1.299  0.00  0.00    -0.047 A 
ATOM      3  C   UNL     1      -2.299  -2.086   0.948  0.00  0.00    +0.010 A 
ATOM      4  C   UNL     1      -3.559  -2.430   1.303  0.00  0.00    +0.045 A 
ATOM      5  S   UNL     1      -3.292  -3.969   2.171  0.00  0.00    -0.101 S 
ATOM      6  C   UNL     1      -1.533  -4.038   1.995  0.00  0.00    -0.010 A 
ATOM      7  C   UNL     1      -0.565  -5.070   2.476  0.00  0.00    +0.024 C 
ATOM      8  C   UNL     1       0.774  -4.818   1.761  0.00  0.00    -0.072 C 
ATOM      9  N   UNL     1       1.096  -3.386   1.839  0.00  0.00    +0.393 N 
ATOM     10  H   UNL     1       0.969  -3.071   2.789  0.00  0.00    -0.080 HD
ENDROOT
BRANCH   1  15
ATOM     11  C   UNL     1       1.268   3.031   1.670  0.00  0.00    +0.044 C 
ATOM     12  C   UNL     1       0.996   1.561   1.482  0.00  0.00    -0.050 A 
ATOM     13  C   UNL     1       0.766   1.056   0.216  0.00  0.00    +0.003 A 
ATOM     14  C   UNL     1       0.517  -0.292   0.044  0.00  0.00    +0.002 A 
ATOM     15  C   UNL     1       0.498  -1.137   1.138  0.00  0.00    -0.057 A 
ATOM     16  C   UNL     1       0.729  -0.633   2.404  0.00  0.00    +0.002 A 
ATOM     17  C   UNL     1       0.982   0.715   2.576  0.00  0.00    +0.003 A 
ENDBRANCH   1  15
BRANCH   9  18
ATOM     18  C   UNL     1       2.497  -3.181   1.446  0.00  0.00    +0.020 C 
BRANCH  18  19
ATOM     19  C   UNL     1       3.402  -3.879   2.428  0.00  0.00    +0.199 C 
ATOM     20  O   UNL     1       2.927  -4.487   3.363  0.00  0.00    -0.278 OA
ATOM     21  N   UNL     1       4.739  -3.827   2.267  0.00  0.00    -0.300 N 
ATOM     22  C   UNL     1       5.328  -3.088   1.141  0.00  0.00    +0.126 C 
ATOM     23  C   UNL     1       6.242  -4.037   0.356  0.00  0.00    +0.127 C 
ATOM     24  N   UNL     1       7.136  -4.718   1.303  0.00  0.00    -0.289 N 
ATOM     25  C   UNL     1       6.547  -5.457   2.428  0.00  0.00    +0.091 C 
ATOM     26  C   UNL     1       5.634  -4.503   3.216  0.00  0.00    +0.130 C 
ATOM     27  C   UNL     1       5.731  -6.637   1.897  0.00  0.00    +0.029 C 
ATOM     28  C   UNL     1       8.473  -4.666   1.141  0.00  0.00    +0.282 C 
ATOM     29  O   UNL     1       9.208  -5.117   2.000  0.00  0.00    -0.267 OA
BRANCH  28  30
ATOM     30  C   UNL     1       9.043  -4.065  -0.069  0.00  0.00    +0.189 A 
ATOM     31  C   UNL     1      10.366  -3.816  -0.295  0.00  0.00    +0.054 A 
ATOM     32  C   UNL     1      10.457  -3.241  -1.572  0.00  0.00    +0.042 A 
ATOM     33  C   UNL     1       9.200  -3.166  -2.064  0.00  0.00    +0.196 A 
ATOM     34  O   UNL     1       8.352  -3.667  -1.157  0.00  0.00    -0.458 OA
ENDBRANCH  28  30
ENDBRANCH  18  19
ENDBRANCH   9  18
TORSDOF 4
