REMARK  Name = ZINC01162341
REMARK  8 active torsions:
REMARK  status: ('A' for Active; 'I' for Inactive)
REMARK    1  A    between atoms: C_4  and  C_7
REMARK    2  A    between atoms: C_7  and  C_8
REMARK    3  A    between atoms: C_8  and  N_9
REMARK    4  A    between atoms: N_9  and  S_10
REMARK    5  A    between atoms: S_10  and  C_13
REMARK    6  A    between atoms: C_15  and  C_20
REMARK    7  A    between atoms: N_22  and  C_23
REMARK    8  A    between atoms: C_27  and  N_29
REMARK                            x       y       z     vdW  Elec       q    Type
REMARK                         _______ _______ _______ _____ _____    ______ ____
ROOT
ATOM      1  C   UNL     1      -2.301  -3.055   0.020  0.00  0.00    +0.120 A 
ATOM      2  C   UNL     1      -1.073  -2.435   0.109  0.00  0.00    +0.042 A 
ATOM      3  C   UNL     1      -1.002  -1.072   0.404  0.00  0.00    +0.039 A 
ATOM      4  C   UNL     1      -2.177  -0.347   0.612  0.00  0.00    +0.014 A 
ATOM      5  C   UNL     1      -3.399  -0.977   0.514  0.00  0.00    +0.018 A 
ATOM      6  C   UNL     1      -3.463  -2.329   0.222  0.00  0.00    +0.044 A 
ATOM      7 BR   UNL     1      -5.144  -3.187   0.097  0.00  0.00    -0.048 Br
ENDROOT
BRANCH   3   8
ATOM      8  C   UNL     1       0.311  -0.402   0.501  0.00  0.00    +0.248 C 
ATOM      9  O   UNL     1       1.333  -1.037   0.324  0.00  0.00    -0.270 OA
ATOM     10  N   UNL     1       0.377   0.914   0.786  0.00  0.00    -0.281 N 
ATOM     11  H   UNL     1      -0.438   1.438   0.848  0.00  0.00    +0.155 HD
BRANCH  10  12
ATOM     12  C   UNL     1       1.618   1.525   0.986  0.00  0.00    +0.036 A 
ATOM     13  C   UNL     1       1.812   2.849   0.611  0.00  0.00    +0.023 A 
ATOM     14  C   UNL     1       3.039   3.449   0.810  0.00  0.00    +0.004 A 
ATOM     15  C   UNL     1       4.075   2.735   1.383  0.00  0.00    +0.033 A 
ATOM     16  C   UNL     1       3.886   1.417   1.758  0.00  0.00    +0.128 A 
ATOM     17  C   UNL     1       2.659   0.812   1.566  0.00  0.00    +0.056 A 
BRANCH  16  18
ATOM     18  N   UNL     1       4.998   0.657   2.372  0.00  0.00    +0.056 N 
ATOM     19  O   UNL     1       6.078   1.191   2.546  0.00  0.00    -0.126 OA
ATOM     20  O   UNL     1       4.832  -0.504   2.702  0.00  0.00    -0.126 OA
ENDBRANCH  16  18
ENDBRANCH  10  12
ENDBRANCH   3   8
BRANCH   1  21
ATOM     21  S   UNL     1      -2.393  -4.775  -0.353  0.00  0.00    +0.059 S 
ATOM     22  O   UNL     1      -1.058  -5.220  -0.549  0.00  0.00    -0.153 OA
ATOM     23  O   UNL     1      -3.255  -5.355   0.617  0.00  0.00    -0.153 OA
BRANCH  21  24
ATOM     24  N   UNL     1      -3.160  -4.919  -1.814  0.00  0.00    -0.190 NA
ATOM     25  H   UNL     1      -4.017  -5.370  -1.869  0.00  0.00    +0.148 HD
BRANCH  24  26
ATOM     26  C   UNL     1      -2.544  -4.365  -3.022  0.00  0.00    +0.110 C 
BRANCH  26  27
ATOM     27  C   UNL     1      -3.229  -4.951  -4.258  0.00  0.00    +0.052 C 
BRANCH  27  31
ATOM     28  C   UNL     1      -1.433  -3.337  -7.782  0.00  0.00    +0.000 A 
ATOM     29  C   UNL     1      -0.935  -4.498  -7.222  0.00  0.00    +0.000 A 
ATOM     30  C   UNL     1      -1.516  -5.021  -6.082  0.00  0.00    +0.003 A 
ATOM     31  C   UNL     1      -2.595  -4.382  -5.501  0.00  0.00    -0.046 A 
ATOM     32  C   UNL     1      -3.097  -3.223  -6.064  0.00  0.00    +0.003 A 
ATOM     33  C   UNL     1      -2.513  -2.698  -7.202  0.00  0.00    +0.000 A 
ENDBRANCH  27  31
ENDBRANCH  26  27
ENDBRANCH  24  26
ENDBRANCH  21  24
ENDBRANCH   1  21
TORSDOF 8
