REMARK  Name = ZINC38573711
REMARK  7 active torsions:
REMARK  status: ('A' for Active; 'I' for Inactive)
REMARK    1  A    between atoms: C_1  and  S_2
REMARK    2  A    between atoms: S_2  and  C_3
REMARK    3  A    between atoms: C_3  and  C_4
REMARK    4  A    between atoms: C_4  and  C_5
REMARK    5  A    between atoms: C_5  and  C_7
REMARK    6  A    between atoms: C_5  and  N_24
REMARK    7  A    between atoms: C_25  and  C_27
REMARK                            x       y       z     vdW  Elec       q    Type
REMARK                         _______ _______ _______ _____ _____    ______ ____
ROOT
ATOM      1  C   UNL     1       1.983  -3.777  -2.945  0.00  0.00    +0.236 C 
ATOM      2  O   UNL     1       1.606  -4.478  -3.861  0.00  0.00    -0.274 OA
ATOM      3  N   UNL     1       2.653  -4.323  -1.911  0.00  0.00    -0.300 N 
ATOM      4  C   UNL     1       3.013  -3.512  -0.740  0.00  0.00    +0.106 C 
ATOM      5  C   UNL     1       4.519  -3.641  -0.495  0.00  0.00    +0.009 C 
ATOM      6  C   UNL     1       4.888  -5.121  -0.374  0.00  0.00    -0.037 C 
ATOM      7  C   UNL     1       4.543  -5.848  -1.674  0.00  0.00    +0.009 C 
ATOM      8  C   UNL     1       3.031  -5.743  -1.930  0.00  0.00    +0.106 C 
ATOM      9  C   UNL     1       6.384  -5.256  -0.088  0.00  0.00    +0.140 C 
ATOM     10  C   UNL     1       6.601  -4.621   1.282  0.00  0.00    +0.042 C 
ATOM     11  N   UNL     1       7.486  -3.718   1.117  0.00  0.00    -0.243 NA
ATOM     12  C   UNL     1       7.832  -3.588  -0.188  0.00  0.00    +0.216 C 
ATOM     13  N   UNL     1       7.213  -4.440  -0.977  0.00  0.00    -0.264 NA
ATOM     14  C   UNL     1       5.756  -5.006   2.470  0.00  0.00    +0.034 C 
ATOM     15  C   UNL     1       4.295  -4.960   1.983  0.00  0.00    -0.076 C 
ATOM     16  N   UNL     1       4.145  -5.724   0.742  0.00  0.00    +0.385 N 
ATOM     17  H   UNL     1       3.167  -5.766   0.500  0.00  0.00    -0.085 HD
ATOM     18  H   UNL     1       4.485  -6.662   0.892  0.00  0.00    -0.085 HD
ENDROOT
BRANCH   1  19
ATOM     19  C   UNL     1       1.703  -2.296  -2.964  0.00  0.00    +0.160 C 
BRANCH  19  20
ATOM     20  N   UNL     1       1.495  -1.857  -4.346  0.00  0.00    -0.300 N 
ATOM     21  C   UNL     1       1.726  -0.574  -4.687  0.00  0.00    +0.245 C 
ATOM     22  O   UNL     1       2.109   0.219  -3.848  0.00  0.00    -0.270 OA
ATOM     23  H   UNL     1       1.190  -2.489  -5.016  0.00  0.00    +0.150 HD
BRANCH  21  24
ATOM     24  C   UNL     1       1.516  -0.130  -6.081  0.00  0.00    +0.037 A 
ATOM     25  C   UNL     1       1.072  -1.036  -7.046  0.00  0.00    +0.014 A 
ATOM     26  C   UNL     1       0.877  -0.616  -8.345  0.00  0.00    +0.016 A 
ATOM     27  C   UNL     1       1.122   0.701  -8.693  0.00  0.00    +0.018 A 
ATOM     28  C   UNL     1       1.562   1.605  -7.741  0.00  0.00    +0.016 A 
ATOM     29  C   UNL     1       1.755   1.198  -6.438  0.00  0.00    +0.014 A 
ATOM     30 BR   UNL     1       0.853   1.269 -10.477  0.00  0.00    -0.050 Br
ENDBRANCH  21  24
ENDBRANCH  19  20
BRANCH  19  31
ATOM     31  C   UNL     1       0.447  -2.004  -2.141  0.00  0.00    +0.042 C 
BRANCH  31  32
ATOM     32  C   UNL     1       0.243  -0.491  -2.042  0.00  0.00    +0.071 C 
BRANCH  32  34
ATOM     33  C   UNL     1      -1.345   1.667  -1.045  0.00  0.00    +0.084 C 
ATOM     34  S   UNL     1      -1.246  -0.145  -1.066  0.00  0.00    -0.164 S 
ENDBRANCH  32  34
ENDBRANCH  31  32
ENDBRANCH  19  31
ENDBRANCH   1  19
TORSDOF 6
