REMARK  Name = ZINC36033792
REMARK  6 active torsions:
REMARK  status: ('A' for Active; 'I' for Inactive)
REMARK    1  A    between atoms: C_1  and  C_2
REMARK    2  A    between atoms: N_11  and  C_35
REMARK    3  A    between atoms: N_16  and  S_17
REMARK    4  A    between atoms: S_17  and  C_20
REMARK    5  A    between atoms: C_23  and  S_26
REMARK    6  A    between atoms: S_26  and  N_29
REMARK                            x       y       z     vdW  Elec       q    Type
REMARK                         _______ _______ _______ _____ _____    ______ ____
ROOT
ATOM      1  S   UNL     1       0.668  -5.349  -0.796  0.00  0.00    +0.075 S 
ATOM      2  O   UNL     1       0.011  -6.558  -0.440  0.00  0.00    -0.150 OA
ATOM      3  O   UNL     1       0.620  -4.816  -2.112  0.00  0.00    -0.150 OA
ENDROOT
BRANCH   1  17
ATOM      4  C   UNL     1      -0.018   1.503   0.010  0.00  0.00    +0.044 C 
ATOM      5  C   UNL     1       0.002  -0.004   0.002  0.00  0.00    -0.050 A 
ATOM      6  C   UNL     1       0.006  -0.689  -1.200  0.00  0.00    +0.005 A 
ATOM      7  C   UNL     1       0.029  -2.068  -1.210  0.00  0.00    +0.025 A 
ATOM      8  C   UNL     1       0.046  -2.778  -0.017  0.00  0.00    +0.055 A 
ATOM      9  C   UNL     1       0.036  -2.080   1.199  0.00  0.00    -0.021 A 
ATOM     10  C   UNL     1       0.023  -0.701   1.195  0.00  0.00    +0.009 A 
ATOM     11  C   UNL     1       0.039  -3.111   2.274  0.00  0.00    +0.026 C 
ATOM     12  C   UNL     1      -0.820  -2.939   3.502  0.00  0.00    -0.069 C 
ATOM     13  N   UNL     1      -0.583  -4.119   4.360  0.00  0.00    +0.378 N 
ATOM     14  C   UNL     1      -0.903  -5.381   3.696  0.00  0.00    -0.077 C 
ATOM     15  C   UNL     1      -0.134  -5.554   2.370  0.00  0.00    +0.006 C 
ATOM     16  C   UNL     1      -0.516  -4.353   1.523  0.00  0.00    +0.102 C 
ATOM     17  N   UNL     1       0.079  -4.175   0.212  0.00  0.00    -0.199 N 
ATOM     18  C   UNL     1      -1.408  -3.998   5.569  0.00  0.00    -0.096 C 
ATOM     19  H   UNL     1       0.388  -4.133   4.632  0.00  0.00    -0.082 HD
ENDBRANCH   1  17
BRANCH   1  20
ATOM     20  C   UNL     1       2.372  -5.567  -0.403  0.00  0.00    +0.109 A 
ATOM     21  C   UNL     1       3.332  -4.811  -1.048  0.00  0.00    +0.031 A 
ATOM     22  C   UNL     1       4.669  -4.982  -0.740  0.00  0.00    +0.030 A 
ATOM     23  C   UNL     1       5.045  -5.908   0.215  0.00  0.00    +0.106 A 
ATOM     24  C   UNL     1       4.084  -6.664   0.861  0.00  0.00    +0.030 A 
ATOM     25  C   UNL     1       2.747  -6.490   0.556  0.00  0.00    +0.031 A 
BRANCH  23  26
ATOM     26  S   UNL     1       6.749  -6.127   0.608  0.00  0.00    +0.061 S 
ATOM     27  O   UNL     1       6.878  -7.438   1.140  0.00  0.00    -0.153 OA
ATOM     28  O   UNL     1       7.486  -5.689  -0.525  0.00  0.00    -0.153 OA
BRANCH  26  29
ATOM     29  N   UNL     1       7.106  -5.079   1.839  0.00  0.00    -0.172 NA
ATOM     30  C   UNL     1       7.572  -3.711   1.558  0.00  0.00    +0.137 C 
ATOM     31  C   UNL     1       6.718  -2.733   2.374  0.00  0.00    +0.177 C 
ATOM     32  O   UNL     1       6.721  -3.136   3.745  0.00  0.00    -0.377 OA
ATOM     33  C   UNL     1       6.142  -4.423   3.979  0.00  0.00    +0.177 C 
ATOM     34  C   UNL     1       6.961  -5.485   3.246  0.00  0.00    +0.137 C 
ENDBRANCH  26  29
ENDBRANCH  23  26
ENDBRANCH   1  20
TORSDOF 4
