REMARK  Name = ZINC41108304
REMARK  8 active torsions:
REMARK  status: ('A' for Active; 'I' for Inactive)
REMARK    1  A    between atoms: C_1  and  C_2
REMARK    2  A    between atoms: C_7  and  O_8
REMARK    3  A    between atoms: O_8  and  C_9
REMARK    4  A    between atoms: C_9  and  C_10
REMARK    5  A    between atoms: C_16  and  C_17
REMARK    6  A    between atoms: N_21  and  C_22
REMARK    7  A    between atoms: C_27  and  O_28
REMARK    8  A    between atoms: O_28  and  C_29
REMARK                            x       y       z     vdW  Elec       q    Type
REMARK                         _______ _______ _______ _____ _____    ______ ____
ROOT
ATOM      1  C   UNL     1      -0.180   0.085   5.028  0.00  0.00    +0.137 C 
ATOM      2  N   UNL     1       0.134   1.345   4.934  0.00  0.00    -0.166 NA
ATOM      3  N   UNL     1      -0.053   2.210   5.990  0.00  0.00    -0.152 N 
ATOM      4  C   UNL     1       0.169   3.604   5.965  0.00  0.00    +0.153 C 
ATOM      5  N   UNL     1       0.172   4.311   4.865  0.00  0.00    -0.283 NA
ATOM      6  C   UNL     1       0.397   4.189   7.314  0.00  0.00    +0.082 C 
ATOM      7  C   UNL     1       1.244   5.269   7.507  0.00  0.00    +0.042 C 
ATOM      8  C   UNL     1      -0.329   3.557   8.440  0.00  0.00    +0.273 C 
ATOM      9  O   UNL     1      -0.584   4.186   9.455  0.00  0.00    -0.268 OA
ATOM     10  N   UNL     1      -0.700   2.267   8.312  0.00  0.00    -0.152 NA
ATOM     11  C   UNL     1      -0.525   1.663   7.164  0.00  0.00    +0.181 C 
ATOM     12  S   UNL     1      -0.803  -0.026   6.700  0.00  0.00    -0.035 S 
ATOM     13  H   UNL     1       0.017   3.880   4.011  0.00  0.00    +0.188 HD
ENDROOT
BRANCH   7  14
ATOM     14  C   UNL     1       1.538   5.708   8.811  0.00  0.00    +0.048 A 
ATOM     15  C   UNL     1       1.294   6.974   9.327  0.00  0.00    +0.027 A 
ATOM     16  C   UNL     1       1.741   6.970  10.648  0.00  0.00    +0.020 A 
ATOM     17  C   UNL     1       2.240   5.737  10.920  0.00  0.00    +0.092 A 
ATOM     18  N   UNL     1       2.118   4.958   9.815  0.00  0.00    -0.313 N 
BRANCH  18  19
ATOM     19  C   UNL     1       2.516   3.618   9.710  0.00  0.00    +0.090 A 
ATOM     20  C   UNL     1       1.884   2.643  10.468  0.00  0.00    +0.049 A 
ATOM     21  C   UNL     1       2.278   1.322  10.362  0.00  0.00    +0.043 A 
ATOM     22  C   UNL     1       3.304   0.970   9.501  0.00  0.00    +0.024 A 
ATOM     23  C   UNL     1       3.938   1.936   8.744  0.00  0.00    +0.049 A 
ATOM     24  C   UNL     1       3.544   3.261   8.840  0.00  0.00    +0.144 A 
ATOM     25 CL   UNL     1       1.487   0.103  11.311  0.00  0.00    -0.083 Cl
BRANCH  24  26
ATOM     26  O   UNL     1       4.164   4.212   8.091  0.00  0.00    -0.493 OA
ATOM     27  C   UNL     1       5.209   3.774   7.222  0.00  0.00    +0.277 C 
ENDBRANCH  24  26
ENDBRANCH  18  19
ENDBRANCH   7  14
BRANCH   1  28
ATOM     28  C   UNL     1      -0.057  -1.001   3.991  0.00  0.00    +0.293 C 
BRANCH  28  29
ATOM     29  O   UNL     1       0.496  -0.454   2.792  0.00  0.00    -0.485 OA
BRANCH  29  36
ATOM     30  C   UNL     1       1.586   0.607   0.412  0.00  0.00    +0.047 C 
ATOM     31  C   UNL     1       1.206  -0.844   0.555  0.00  0.00    -0.009 A 
ATOM     32  C   UNL     1       1.392  -1.715  -0.501  0.00  0.00    +0.007 A 
ATOM     33  C   UNL     1       1.043  -3.046  -0.370  0.00  0.00    +0.000 A 
ATOM     34  C   UNL     1       0.507  -3.510   0.817  0.00  0.00    +0.004 A 
ATOM     35  C   UNL     1       0.320  -2.643   1.876  0.00  0.00    +0.046 A 
ATOM     36  C   UNL     1       0.674  -1.308   1.750  0.00  0.00    +0.124 A 
ENDBRANCH  29  36
ENDBRANCH  28  29
ENDBRANCH   1  28
TORSDOF 6
