REMARK  Name = ZINC59640873
REMARK  11 active torsions:
REMARK  status: ('A' for Active; 'I' for Inactive)
REMARK    1  A    between atoms: C_1  and  C_2
REMARK    2  A    between atoms: C_4  and  C_24
REMARK    3  A    between atoms: C_5  and  C_22
REMARK    4  A    between atoms: C_6  and  N_8
REMARK    5  A    between atoms: N_8  and  N_9
REMARK    6  A    between atoms: C_10  and  C_11
REMARK    7  A    between atoms: C_13  and  O_20
REMARK    8  A    between atoms: C_14  and  O_19
REMARK    9  A    between atoms: O_20  and  C_21
REMARK   10  A    between atoms: C_24  and  O_25
REMARK   11  A    between atoms: O_25  and  C_26
REMARK                            x       y       z     vdW  Elec       q    Type
REMARK                         _______ _______ _______ _____ _____    ______ ____
ROOT
ATOM      1  N   UNL     1       0.050  -2.625   2.419  0.00  0.00    -0.220 N 
ATOM      2  H   UNL     1       0.063  -3.594   2.457  0.00  0.00    +0.176 HD
ENDROOT
BRANCH   1   8
ATOM      3  C   UNL     1      -0.018   1.503   0.010  0.00  0.00    +0.065 C 
ATOM      4  C   UNL     1       0.002  -0.004   0.002  0.00  0.00    +0.041 A 
ATOM      5  C   UNL     1       0.005  -0.676  -1.207  0.00  0.00    +0.030 A 
ATOM      6  C   UNL     1       0.025  -2.060  -1.218  0.00  0.00    +0.000 A 
ATOM      7  C   UNL     1       0.040  -2.734   0.008  0.00  0.00    +0.098 A 
ATOM      8  C   UNL     1       0.035  -1.981   1.195  0.00  0.00    +0.156 A 
ATOM      9  N   UNL     1       0.022  -0.657   1.147  0.00  0.00    -0.234 NA
BRANCH   7  10
ATOM     10  C   UNL     1       0.060  -4.166   0.053  0.00  0.00    +0.103 C 
ATOM     11  N   UNL     1       0.075  -5.301   0.089  0.00  0.00    -0.191 NA
ENDBRANCH   7  10
BRANCH   6  12
ATOM     12  C   UNL     1       0.029  -2.822  -2.518  0.00  0.00    +0.196 C 
BRANCH  12  13
ATOM     13  O   UNL     1       0.010  -1.901  -3.611  0.00  0.00    -0.378 OA
ATOM     14  C   UNL     1       0.012  -2.524  -4.897  0.00  0.00    +0.194 C 
ENDBRANCH  12  13
ENDBRANCH   6  12
ENDBRANCH   1   8
BRANCH   1  15
ATOM     15  N   UNL     1       0.045  -1.877   3.604  0.00  0.00    -0.189 NA
ATOM     16  C   UNL     1       0.059  -2.482   4.753  0.00  0.00    +0.139 C 
BRANCH  16  17
ATOM     17  C   UNL     1       0.054  -1.695   6.000  0.00  0.00    +0.013 A 
ATOM     18  C   UNL     1       0.074  -2.344   7.238  0.00  0.00    +0.060 A 
ATOM     19  C   UNL     1       0.070  -1.602   8.404  0.00  0.00    +0.163 A 
ATOM     20  C   UNL     1       0.045  -0.210   8.345  0.00  0.00    +0.174 A 
ATOM     21  C   UNL     1       0.025   0.435   7.117  0.00  0.00    +0.077 A 
ATOM     22  C   UNL     1       0.035  -0.299   5.947  0.00  0.00    +0.044 A 
ATOM     23 BR   UNL     1       0.015   0.585   4.276  0.00  0.00    -0.048 Br
ATOM     24 BR   UNL     1      -0.010   2.325   7.045  0.00  0.00    -0.045 Br
BRANCH  20  25
ATOM     25  O   UNL     1       0.040   0.517   9.494  0.00  0.00    -0.503 OA
ATOM     26  H   UNL     1       0.922   0.743   9.820  0.00  0.00    +0.292 HD
ENDBRANCH  20  25
BRANCH  19  27
ATOM     27  O   UNL     1       0.089  -2.231   9.610  0.00  0.00    -0.491 OA
ATOM     28  C   UNL     1       0.114  -3.660   9.596  0.00  0.00    +0.277 C 
ENDBRANCH  19  27
ENDBRANCH  16  17
ENDBRANCH   1  15
TORSDOF 8
