REMARK  Name = ZINC63624926
REMARK  5 active torsions:
REMARK  status: ('A' for Active; 'I' for Inactive)
REMARK    1  A    between atoms: C_7  and  C_10
REMARK    2  A    between atoms: C_10  and  C_11
REMARK    3  A    between atoms: C_11  and  N_12
REMARK    4  A    between atoms: C_13  and  C_15
REMARK    5  A    between atoms: N_18  and  C_21
REMARK                            x       y       z     vdW  Elec       q    Type
REMARK                         _______ _______ _______ _____ _____    ______ ____
ROOT
ATOM      1  C   UNL     1      -1.752  -6.557  -2.622  0.00  0.00    +0.077 C 
ATOM      2  C   UNL     1      -1.137  -7.703  -1.813  0.00  0.00    +0.028 C 
ATOM      3  C   UNL     1      -2.068  -8.916  -1.866  0.00  0.00    +0.087 C 
ATOM      4  N   UNL     1      -2.261  -9.326  -3.263  0.00  0.00    -0.283 NA
ATOM      5  C   UNL     1      -2.894  -8.259  -4.048  0.00  0.00    +0.087 C 
ATOM      6  C   UNL     1      -1.987  -7.027  -4.060  0.00  0.00    +0.028 C 
ENDROOT
BRANCH   4   7
ATOM      7  C   UNL     1      -3.038 -10.571  -3.344  0.00  0.00    +0.167 C 
ATOM      8  C   UNL     1      -3.127 -11.031  -4.803  0.00  0.00    +0.132 C 
ATOM      9  C   UNL     1      -1.804 -11.518  -5.320  0.00  0.00    -0.004 C 
ATOM     10  C   UNL     1      -1.923 -12.738  -5.775  0.00  0.00    -0.010 C 
ATOM     11  C   UNL     1      -3.342 -13.223  -5.593  0.00  0.00    +0.133 C 
ATOM     12  N   UNL     1      -4.050 -12.186  -4.824  0.00  0.00    -0.314 N 
ATOM     13  C   UNL     1      -5.262 -12.190  -4.142  0.00  0.00    +0.069 A 
ATOM     14  C   UNL     1      -6.282 -13.074  -4.430  0.00  0.00    +0.028 A 
ATOM     15  C   UNL     1      -7.450 -12.995  -3.680  0.00  0.00    +0.019 A 
ATOM     16  C   UNL     1      -7.547 -12.045  -2.683  0.00  0.00    +0.084 A 
ATOM     17  N   UNL     1      -6.556 -11.209  -2.432  0.00  0.00    -0.348 N 
ATOM     18  C   UNL     1      -5.428 -11.242  -3.120  0.00  0.00    +0.119 A 
ATOM     19  N   UNL     1      -4.403 -10.336  -2.849  0.00  0.00    -0.312 N 
ATOM     20  H   UNL     1      -4.593  -9.540  -2.328  0.00  0.00    +0.149 HD
ATOM     21  H   UNL     1      -6.659 -10.554  -1.724  0.00  0.00    +0.167 HD
ENDBRANCH   4   7
BRANCH   1  23
ATOM     22  N   UNL     1      -0.458  -4.798  -1.460  0.00  0.00    -0.315 N 
ATOM     23  C   UNL     1      -0.811  -5.380  -2.623  0.00  0.00    +0.216 C 
ATOM     24  O   UNL     1      -0.371  -4.957  -3.671  0.00  0.00    -0.276 OA
ATOM     25  H   UNL     1      -0.810  -5.136  -0.622  0.00  0.00    +0.149 HD
BRANCH  22  26
ATOM     26  C   UNL     1       0.457  -3.653  -1.462  0.00  0.00    +0.108 C 
BRANCH  26  27
ATOM     27  C   UNL     1       0.691  -3.186  -0.024  0.00  0.00    +0.052 C 
BRANCH  27  34
ATOM     28  C   UNL     1      -0.016   1.348   0.009  0.00  0.00    +0.001 A 
ATOM     29  C   UNL     1       1.166   2.101   0.002  0.00  0.00    +0.002 A 
ATOM     30  C   UNL     1       2.391   1.535  -0.013  0.00  0.00    +0.026 A 
ATOM     31  C   UNL     1       2.529   0.120  -0.022  0.00  0.00    +0.043 A 
ATOM     32  N   UNL     1       3.587  -0.654  -0.037  0.00  0.00    -0.380 N 
ATOM     33  C   UNL     1       3.143  -2.053  -0.041  0.00  0.00    +0.144 C 
ATOM     34  C   UNL     1       1.631  -2.008  -0.025  0.00  0.00    -0.040 C 
ATOM     35  C   UNL     1       1.295  -0.698  -0.014  0.00  0.00    -0.001 A 
ATOM     36  C   UNL     1       0.002  -0.004   0.002  0.00  0.00    +0.010 A 
ATOM     37  H   UNL     1       4.509  -0.353  -0.045  0.00  0.00    +0.160 HD
ENDBRANCH  27  34
ENDBRANCH  26  27
ENDBRANCH  22  26
ENDBRANCH   1  23
TORSDOF 5
