REMARK  Name = ZINC54201714
REMARK  6 active torsions:
REMARK  status: ('A' for Active; 'I' for Inactive)
REMARK    1  A    between atoms: C_4  and  C_7
REMARK    2  A    between atoms: C_10  and  C_13
REMARK    3  A    between atoms: C_18  and  O_19
REMARK    4  A    between atoms: C_24  and  C_27
REMARK    5  A    between atoms: C_27  and  C_28
REMARK    6  A    between atoms: N_30  and  C_31
REMARK                            x       y       z     vdW  Elec       q    Type
REMARK                         _______ _______ _______ _____ _____    ______ ____
ROOT
ATOM      1  C   UNL     1       3.685  -0.653  -0.059  0.00  0.00    +0.069 C 
ATOM      2  N   UNL     1       4.849  -0.100  -0.059  0.00  0.00    -0.182 NA
ATOM      3  N   UNL     1       5.909  -1.004  -0.067  0.00  0.00    -0.195 N 
ATOM      4  C   UNL     1       5.367  -2.372  -0.074  0.00  0.00    +0.139 C 
ATOM      5  C   UNL     1       3.841  -2.157  -0.063  0.00  0.00    +0.087 C 
ATOM      6  C   UNL     1       7.234  -0.674  -0.069  0.00  0.00    +0.170 C 
ATOM      7  N   UNL     1       8.281  -1.489  -0.083  0.00  0.00    -0.157 NA
ATOM      8  C   UNL     1       9.524  -1.093  -0.084  0.00  0.00    +0.252 C 
ATOM      9  O   UNL     1      10.456  -1.875  -0.097  0.00  0.00    -0.272 OA
ATOM     10  C   UNL     1       9.728   0.417  -0.067  0.00  0.00    +0.150 C 
ATOM     11  S   UNL     1       7.966   0.956  -0.060  0.00  0.00    -0.078 S 
ENDROOT
BRANCH   1  15
ATOM     12  C   UNL     1      -0.015   1.427  -0.036  0.00  0.00    +0.000 A 
ATOM     13  C   UNL     1       1.174   2.135  -0.041  0.00  0.00    +0.001 A 
ATOM     14  C   UNL     1       2.380   1.466  -0.048  0.00  0.00    +0.010 A 
ATOM     15  C   UNL     1       2.400   0.070  -0.051  0.00  0.00    -0.002 A 
ATOM     16  C   UNL     1       1.196  -0.639  -0.046  0.00  0.00    +0.010 A 
ATOM     17  C   UNL     1      -0.002   0.043  -0.039  0.00  0.00    +0.001 A 
ENDBRANCH   1  15
BRANCH   4  18
ATOM     18  C   UNL     1       5.798  -3.107  -1.318  0.00  0.00    +0.017 A 
ATOM     19  C   UNL     1       6.258  -2.401  -2.413  0.00  0.00    +0.009 A 
ATOM     20  C   UNL     1       6.653  -3.075  -3.554  0.00  0.00    +0.001 A 
ATOM     21  C   UNL     1       6.589  -4.455  -3.602  0.00  0.00    +0.004 A 
ATOM     22  C   UNL     1       6.130  -5.165  -2.510  0.00  0.00    +0.046 A 
ATOM     23  C   UNL     1       5.738  -4.492  -1.361  0.00  0.00    +0.122 A 
BRANCH  23  24
ATOM     24  O   UNL     1       5.292  -5.188  -0.283  0.00  0.00    -0.506 OA
ATOM     25  H   UNL     1       4.338  -5.345  -0.283  0.00  0.00    +0.292 HD
ENDBRANCH  23  24
ENDBRANCH   4  18
BRANCH  10  26
ATOM     26  C   UNL     1      10.462   0.868   1.198  0.00  0.00    +0.120 C 
BRANCH  26  27
ATOM     27  C   UNL     1      10.748   2.345   1.113  0.00  0.00    +0.219 C 
ATOM     28  O   UNL     1      10.399   2.975   0.137  0.00  0.00    -0.275 OA
ATOM     29  N   UNL     1      11.391   2.966   2.121  0.00  0.00    -0.285 N 
ATOM     30  H   UNL     1      11.611   2.478   2.930  0.00  0.00    +0.155 HD
BRANCH  29  31
ATOM     31  C   UNL     1      11.743   4.315   2.002  0.00  0.00    +0.033 A 
ATOM     32  C   UNL     1      12.927   4.778   2.561  0.00  0.00    +0.025 A 
ATOM     33  C   UNL     1      13.272   6.110   2.441  0.00  0.00    +0.022 A 
ATOM     34  C   UNL     1      12.438   6.983   1.765  0.00  0.00    +0.041 A 
ATOM     35  C   UNL     1      11.258   6.525   1.206  0.00  0.00    +0.022 A 
ATOM     36  C   UNL     1      10.911   5.193   1.318  0.00  0.00    +0.025 A 
ATOM     37 CL   UNL     1      12.874   8.657   1.617  0.00  0.00    -0.084 Cl
ENDBRANCH  29  31
ENDBRANCH  26  27
ENDBRANCH  10  26
TORSDOF 6
