REMARK  Name = ZINC09671476
REMARK  10 active torsions:
REMARK  status: ('A' for Active; 'I' for Inactive)
REMARK    1  A    between atoms: C_1  and  C_2
REMARK    2  A    between atoms: C_4  and  C_23
REMARK    3  A    between atoms: C_5  and  C_22
REMARK    4  A    between atoms: N_6  and  C_7
REMARK    5  A    between atoms: C_11  and  S_13
REMARK    6  A    between atoms: S_13  and  N_16
REMARK    7  A    between atoms: C_23  and  N_65
REMARK    8  A    between atoms: C_24  and  C_26
REMARK    9  A    between atoms: C_24  and  C_27
REMARK   10  A    between atoms: C_24  and  N_65
REMARK                            x       y       z     vdW  Elec       q    Type
REMARK                         _______ _______ _______ _____ _____    ______ ____
ROOT
ATOM      1  C   UNL     1      -1.220   3.799   4.149  0.00  0.00    +0.064 C 
ATOM      2  C   UNL     1      -1.232   2.766   3.052  0.00  0.00    +0.021 A 
ATOM      3  C   UNL     1      -0.341   2.672   2.045  0.00  0.00    +0.024 A 
ATOM      4  C   UNL     1      -0.718   1.572   1.248  0.00  0.00    -0.043 A 
ATOM      5  C   UNL     1      -1.829   1.038   1.795  0.00  0.00    +0.022 A 
ATOM      6  N   UNL     1      -2.148   1.763   2.907  0.00  0.00    -0.317 N 
ATOM      7  C   UNL     1      -2.585  -0.156   1.271  0.00  0.00    +0.064 C 
ENDROOT
BRANCH   6   8
ATOM      8  C   UNL     1      -3.238   1.522   3.756  0.00  0.00    +0.048 A 
ATOM      9  C   UNL     1      -4.534   1.661   3.280  0.00  0.00    +0.026 A 
ATOM     10  C   UNL     1      -5.606   1.422   4.118  0.00  0.00    +0.004 A 
ATOM     11  C   UNL     1      -5.388   1.044   5.430  0.00  0.00    +0.028 A 
ATOM     12  C   UNL     1      -4.098   0.905   5.907  0.00  0.00    +0.107 A 
ATOM     13  C   UNL     1      -3.022   1.138   5.072  0.00  0.00    +0.054 A 
BRANCH  12  14
ATOM     14  S   UNL     1      -3.825   0.423   7.580  0.00  0.00    +0.061 S 
ATOM     15  O   UNL     1      -2.531   0.893   7.932  0.00  0.00    -0.153 OA
ATOM     16  O   UNL     1      -4.992   0.790   8.303  0.00  0.00    -0.153 OA
BRANCH  14  17
ATOM     17  N   UNL     1      -3.752  -1.231   7.607  0.00  0.00    -0.172 NA
ATOM     18  C   UNL     1      -4.964  -2.040   7.814  0.00  0.00    +0.137 C 
ATOM     19  C   UNL     1      -5.025  -3.104   6.706  0.00  0.00    +0.177 C 
ATOM     20  O   UNL     1      -3.785  -3.816   6.672  0.00  0.00    -0.377 OA
ATOM     21  C   UNL     1      -2.654  -3.005   6.348  0.00  0.00    +0.177 C 
ATOM     22  C   UNL     1      -2.472  -1.936   7.431  0.00  0.00    +0.137 C 
ENDBRANCH  14  17
ENDBRANCH  12  14
ENDBRANCH   6   8
BRANCH   4  23
ATOM     23  C   UNL     1      -0.013   1.086   0.008  0.00  0.00    -0.044 C 
BRANCH  23  24
ATOM     24  N   UNL     1      -0.732   1.579  -1.182  0.00  0.00    +0.388 N 
ATOM     25  H   UNL     1      -0.746   2.605  -1.168  0.00  0.00    -0.084 HD
ATOM     26  H   UNL     1      -1.695   1.223  -1.167  0.00  0.00    -0.084 HD
BRANCH  24  27
ATOM     27  C   UNL     1      -0.062   1.117  -2.413  0.00  0.00    -0.007 C 
ATOM     28  C   UNL     1      -0.560  -0.285  -2.770  0.00  0.00    -0.006 C 
BRANCH  27  29
ATOM     29  C   UNL     1      -0.386   2.067  -3.537  0.00  0.00    +0.092 A 
ATOM     30  C   UNL     1       0.485   2.476  -4.470  0.00  0.00    +0.051 A 
ATOM     31  C   UNL     1      -0.259   3.381  -5.354  0.00  0.00    +0.020 A 
ATOM     32  C   UNL     1       0.068   4.120  -6.491  0.00  0.00    +0.011 A 
ATOM     33  C   UNL     1      -0.885   4.892  -7.094  0.00  0.00    +0.001 A 
ATOM     34  C   UNL     1      -2.174   4.946  -6.582  0.00  0.00    +0.004 A 
ATOM     35  C   UNL     1      -2.515   4.222  -5.459  0.00  0.00    +0.047 A 
ATOM     36  C   UNL     1      -1.562   3.431  -4.831  0.00  0.00    +0.135 A 
ATOM     37  O   UNL     1      -1.589   2.630  -3.747  0.00  0.00    -0.461 OA
ENDBRANCH  27  29
ENDBRANCH  24  27
ENDBRANCH  23  24
ENDBRANCH   4  23
TORSDOF 7
