REMARK  Name = ZINC11347028
REMARK  6 active torsions:
REMARK  status: ('A' for Active; 'I' for Inactive)
REMARK    1  A    between atoms: C_7  and  C_11
REMARK    2  A    between atoms: C_14  and  S_16
REMARK    3  A    between atoms: S_16  and  C_17
REMARK    4  A    between atoms: C_17  and  C_18
REMARK    5  A    between atoms: C_21  and  C_31
REMARK    6  A    between atoms: C_24  and  C_26
REMARK                            x       y       z     vdW  Elec       q    Type
REMARK                         _______ _______ _______ _____ _____    ______ ____
ROOT
ATOM      1  C   UNL     1       4.230   3.169   2.922  0.00  0.00    +0.176 C 
ENDROOT
BRANCH   1   2
ATOM      2  C   UNL     1       3.273   2.283   2.167  0.00  0.00    +0.246 C 
ATOM      3  O   UNL     1       2.369   1.727   2.754  0.00  0.00    -0.273 OA
ATOM      4  N   UNL     1       3.423   2.107   0.839  0.00  0.00    -0.184 N 
ATOM      5  C   UNL     1       2.565   1.272  -0.016  0.00  0.00    +0.143 C 
ATOM      6  C   UNL     1       3.182   1.434  -1.419  0.00  0.00    +0.088 C 
ATOM      7  C   UNL     1       4.352   2.366  -1.198  0.00  0.00    +0.075 C 
ATOM      8  N   UNL     1       4.416   2.686   0.051  0.00  0.00    -0.180 NA
BRANCH   7   9
ATOM      9  C   UNL     1       5.270   2.835  -2.240  0.00  0.00    +0.035 A 
ATOM     10  C   UNL     1       6.358   3.683  -2.128  0.00  0.00    +0.017 A 
ATOM     11  C   UNL     1       7.076   3.979  -3.264  0.00  0.00    +0.008 A 
ATOM     12  C   UNL     1       6.697   3.436  -4.450  0.00  0.00    +0.046 A 
ATOM     13  S   UNL     1       5.280   2.455  -3.985  0.00  0.00    -0.095 S 
ENDBRANCH   7   9
BRANCH   5  14
ATOM     14  C   UNL     1       1.146   1.780   0.001  0.00  0.00    +0.013 A 
ATOM     15  C   UNL     1      -0.013   1.076   0.008  0.00  0.00    +0.013 A 
ATOM     16  C   UNL     1      -1.213   1.761   0.017  0.00  0.00    +0.008 A 
ATOM     17  C   UNL     1      -1.196   3.116   0.030  0.00  0.00    +0.045 A 
ATOM     18  S   UNL     1       0.555   3.464   0.015  0.00  0.00    -0.100 S 
ENDBRANCH   5  14
ENDBRANCH   1   2
BRANCH   1  19
ATOM     19  S   UNL     1       3.768   3.202   4.672  0.00  0.00    -0.056 S 
BRANCH  19  23
ATOM     20  C   UNL     1       6.237   5.488   6.604  0.00  0.00    +0.251 A 
ATOM     21  N   UNL     1       6.697   5.569   5.378  0.00  0.00    -0.106 NA
ATOM     22  N   UNL     1       5.968   4.849   4.600  0.00  0.00    -0.101 NA
ATOM     23  C   UNL     1       5.014   4.279   5.297  0.00  0.00    +0.278 A 
ATOM     24  O   UNL     1       5.158   4.674   6.577  0.00  0.00    -0.411 OA
BRANCH  20  31
ATOM     25  C   UNL     1       9.865   8.371   7.229  0.00  0.00    +0.001 A 
ATOM     26  C   UNL     1      10.009   8.769   8.551  0.00  0.00    +0.002 A 
ATOM     27  C   UNL     1       9.137   8.320   9.518  0.00  0.00    +0.026 A 
ATOM     28  C   UNL     1       8.101   7.459   9.169  0.00  0.00    +0.047 A 
ATOM     29  C   UNL     1       7.961   7.060   7.829  0.00  0.00    +0.012 A 
ATOM     30  C   UNL     1       8.853   7.526   6.866  0.00  0.00    +0.011 A 
ATOM     31  C   UNL     1       6.790   6.167   7.792  0.00  0.00    +0.063 A 
ATOM     32  C   UNL     1       6.316   6.093   9.063  0.00  0.00    +0.097 A 
ATOM     33  N   UNL     1       7.093   6.853   9.888  0.00  0.00    -0.360 N 
ATOM     34  H   UNL     1       6.953   6.956  10.842  0.00  0.00    +0.165 HD
ENDBRANCH  20  31
ENDBRANCH  19  23
ENDBRANCH   1  19
TORSDOF 6
