REMARK  Name = ZINC02396475
REMARK  6 active torsions:
REMARK  status: ('A' for Active; 'I' for Inactive)
REMARK    1  A    between atoms: C_4  and  N_8
REMARK    2  A    between atoms: C_9  and  C_11
REMARK    3  A    between atoms: C_11  and  S_12
REMARK    4  A    between atoms: S_12  and  C_13
REMARK    5  A    between atoms: C_16  and  C_19
REMARK    6  A    between atoms: N_17  and  N_18
REMARK                            x       y       z     vdW  Elec       q    Type
REMARK                         _______ _______ _______ _____ _____    ______ ____
ROOT
ATOM      1  S   UNL     1       0.009  -0.346   2.780  0.00  0.00    -0.075 S 
ENDROOT
BRANCH   1   2
ATOM      2  C   UNL     1      -0.015  -0.833   1.087  0.00  0.00    +0.209 A 
ATOM      3  N   UNL     1      -0.006  -2.063   0.628  0.00  0.00    -0.121 NA
ATOM      4  N   UNL     1      -0.029  -2.050  -0.656  0.00  0.00    -0.132 NA
ATOM      5  C   UNL     1      -0.058  -0.822  -1.091  0.00  0.00    +0.154 A 
ATOM      6  N   UNL     1      -0.044  -0.002   0.004  0.00  0.00    -0.228 N 
BRANCH   5   7
ATOM      7  C   UNL     1      -0.096  -0.385  -2.533  0.00  0.00    +0.059 C 
ATOM      8  C   UNL     1      -1.353  -0.945  -3.202  0.00  0.00    +0.011 C 
ATOM      9  C   UNL     1      -1.392  -0.502  -4.666  0.00  0.00    +0.001 C 
ATOM     10  C   UNL     1      -0.151  -1.027  -5.391  0.00  0.00    +0.000 C 
ATOM     11  C   UNL     1       1.106  -0.468  -4.722  0.00  0.00    +0.001 C 
ATOM     12  C   UNL     1       1.145  -0.911  -3.258  0.00  0.00    +0.011 C 
ENDBRANCH   5   7
BRANCH   6  13
ATOM     13  N   UNL     1      -0.063   1.363   0.012  0.00  0.00    -0.295 N 
ATOM     14  H   UNL     1       0.874   1.738  -0.002  0.00  0.00    +0.163 HD
ATOM     15  H   UNL     1      -0.607   1.722  -0.758  0.00  0.00    +0.163 HD
ENDBRANCH   6  13
ENDBRANCH   1   2
BRANCH   1  16
ATOM     16  C   UNL     1       0.044  -1.972   3.575  0.00  0.00    +0.173 C 
BRANCH  16  18
ATOM     17  N   UNL     1       0.096  -2.881   5.874  0.00  0.00    -0.284 N 
ATOM     18  C   UNL     1       0.068  -1.799   5.072  0.00  0.00    +0.228 C 
ATOM     19  O   UNL     1       0.062  -0.686   5.554  0.00  0.00    -0.275 OA
ATOM     20  H   UNL     1       0.035  -3.771   5.492  0.00  0.00    +0.155 HD
BRANCH  17  24
ATOM     21  C   UNL     1       0.446  -2.408  10.001  0.00  0.00    +0.021 A 
ATOM     22  C   UNL     1       1.048  -3.485   9.377  0.00  0.00    +0.023 A 
ATOM     23  C   UNL     1       0.934  -3.645   8.009  0.00  0.00    +0.062 A 
ATOM     24  C   UNL     1       0.213  -2.722   7.260  0.00  0.00    +0.053 A 
ATOM     25  C   UNL     1      -0.385  -1.639   7.889  0.00  0.00    +0.044 A 
ATOM     26  C   UNL     1      -0.273  -1.488   9.258  0.00  0.00    +0.043 A 
ATOM     27 CL   UNL     1      -1.027  -0.137  10.046  0.00  0.00    -0.083 Cl
ATOM     28 CL   UNL     1       1.690  -4.998   7.226  0.00  0.00    -0.082 Cl
ENDBRANCH  17  24
ENDBRANCH  16  18
ENDBRANCH   1  16
TORSDOF 6
