REMARK  Name = ZINC35930081
REMARK  4 active torsions:
REMARK  status: ('A' for Active; 'I' for Inactive)
REMARK    1  A    between atoms: C_4  and  N_7
REMARK    2  A    between atoms: C_15  and  C_30
REMARK    3  A    between atoms: C_17  and  N_29
REMARK    4  A    between atoms: N_18  and  C_22
REMARK                            x       y       z     vdW  Elec       q    Type
REMARK                         _______ _______ _______ _____ _____    ______ ____
ROOT
ATOM      1  N   UNL     1       3.595  -0.707   0.451  0.00  0.00    -0.327 N 
ATOM      2  C   UNL     1       4.838   0.038   0.209  0.00  0.00    +0.124 C 
ATOM      3  C   UNL     1       5.844  -0.315   1.312  0.00  0.00    +0.127 C 
ATOM      4  N   UNL     1       5.908  -1.778   1.437  0.00  0.00    -0.297 N 
ATOM      5  C   UNL     1       4.664  -2.523   1.680  0.00  0.00    +0.127 C 
ATOM      6  C   UNL     1       3.659  -2.169   0.583  0.00  0.00    +0.124 C 
ATOM      7  C   UNL     1       7.117  -2.442   1.329  0.00  0.00    +0.220 A 
ATOM      8  N   UNL     1       7.119  -3.766   1.446  0.00  0.00    -0.214 NA
ATOM      9  C   UNL     1       8.233  -4.481   1.355  0.00  0.00    +0.089 A 
ATOM     10  C   UNL     1       9.450  -3.798   1.128  0.00  0.00    +0.086 A 
ATOM     11  C   UNL     1      10.782  -4.162   0.977  0.00  0.00    +0.131 A 
ATOM     12  N   UNL     1      11.491  -3.033   0.780  0.00  0.00    -0.216 N 
ATOM     13  N   UNL     1      10.636  -1.925   0.800  0.00  0.00    -0.144 NA
ATOM     14  C   UNL     1       9.402  -2.330   1.005  0.00  0.00    +0.189 A 
ATOM     15  N   UNL     1       8.202  -1.728   1.112  0.00  0.00    -0.193 NA
ENDROOT
BRANCH  12  16
ATOM     16  C   UNL     1      12.876  -2.977   0.585  0.00  0.00    +0.068 A 
ATOM     17  C   UNL     1      13.708  -3.873   1.244  0.00  0.00    +0.029 A 
ATOM     18  C   UNL     1      15.074  -3.815   1.050  0.00  0.00    +0.022 A 
ATOM     19  C   UNL     1      15.614  -2.866   0.200  0.00  0.00    +0.041 A 
ATOM     20  C   UNL     1      14.788  -1.972  -0.458  0.00  0.00    +0.022 A 
ATOM     21  C   UNL     1      13.420  -2.029  -0.272  0.00  0.00    +0.029 A 
ATOM     22 CL   UNL     1      17.332  -2.796  -0.041  0.00  0.00    -0.084 Cl
ENDBRANCH  12  16
BRANCH   9  23
ATOM     23  C   UNL     1       8.204  -5.954   1.490  0.00  0.00    +0.001 A 
ATOM     24  C   UNL     1       9.122  -6.601   2.318  0.00  0.00    +0.013 A 
ATOM     25  C   UNL     1       9.090  -7.974   2.440  0.00  0.00    +0.039 A 
ATOM     26  C   UNL     1       8.148  -8.712   1.741  0.00  0.00    +0.123 A 
ATOM     27  C   UNL     1       7.234  -8.075   0.916  0.00  0.00    +0.039 A 
ATOM     28  C   UNL     1       7.253  -6.702   0.792  0.00  0.00    +0.013 A 
ATOM     29  F   UNL     1       8.121 -10.057   1.863  0.00  0.00    -0.205 F 
ENDBRANCH   9  23
BRANCH   1  33
ATOM     30  C   UNL     1      -0.044   1.291   0.777  0.00  0.00    +0.000 A 
ATOM     31  C   UNL     1      -0.014  -0.091   0.771  0.00  0.00    +0.002 A 
ATOM     32  C   UNL     1       1.191  -0.757   0.663  0.00  0.00    +0.023 A 
ATOM     33  C   UNL     1       2.374  -0.037   0.560  0.00  0.00    +0.030 A 
ATOM     34  C   UNL     1       2.340   1.352   0.567  0.00  0.00    +0.023 A 
ATOM     35  C   UNL     1       1.132   2.012   0.675  0.00  0.00    +0.002 A 
ENDBRANCH   1  33
BRANCH  11  36
ATOM     36  N   UNL     1      11.288  -5.448   1.020  0.00  0.00    -0.342 N 
ATOM     37  H   UNL     1      10.684  -6.206   1.047  0.00  0.00    +0.144 HD
ATOM     38  H   UNL     1      12.247  -5.591   1.025  0.00  0.00    +0.144 HD
ENDBRANCH  11  36
TORSDOF 4
