REMARK  Name = ZINC32104632
REMARK  4 active torsions:
REMARK  status: ('A' for Active; 'I' for Inactive)
REMARK    1  A    between atoms: C_1  and  C_2
REMARK    2  A    between atoms: N_8  and  C_28
REMARK    3  A    between atoms: N_20  and  C_21
REMARK    4  A    between atoms: C_28  and  C_29
REMARK                            x       y       z     vdW  Elec       q    Type
REMARK                         _______ _______ _______ _____ _____    ______ ____
ROOT
ATOM      1  C   UNL     1      -0.225   1.526   0.060  0.00  0.00    +0.045 C 
ATOM      2  C   UNL     1      -0.106   0.025   0.019  0.00  0.00    -0.029 A 
ATOM      3  C   UNL     1      -0.250  -0.679  -1.166  0.00  0.00    +0.005 A 
ATOM      4  C   UNL     1      -0.143  -2.054  -1.216  0.00  0.00    +0.001 A 
ATOM      5  C   UNL     1       0.117  -2.803  -0.073  0.00  0.00    +0.007 A 
ATOM      6  C   UNL     1       0.262  -2.110   1.109  0.00  0.00    -0.006 A 
ATOM      7  C   UNL     1       0.160  -0.714   1.173  0.00  0.00    +0.045 A 
ATOM      8  N   UNL     1       0.353  -0.277   2.471  0.00  0.00    -0.258 N 
ATOM      9  C   UNL     1       0.589  -1.300   3.320  0.00  0.00    +0.236 C 
ATOM     10  O   UNL     1       0.791  -1.215   4.513  0.00  0.00    -0.274 OA
ATOM     11  C   UNL     1       0.540  -2.572   2.503  0.00  0.00    +0.112 C 
ATOM     12  C   UNL     1       1.885  -3.290   2.590  0.00  0.00    +0.122 C 
ATOM     13  C   UNL     1       1.773  -4.716   2.126  0.00  0.00    +0.220 C 
ATOM     14  O   UNL     1       2.690  -5.202   1.498  0.00  0.00    -0.275 OA
ATOM     15  N   UNL     1       0.685  -5.471   2.385  0.00  0.00    -0.270 N 
ATOM     16  C   UNL     1      -0.439  -4.851   2.928  0.00  0.00    +0.133 A 
ATOM     17  C   UNL     1      -0.544  -3.486   3.003  0.00  0.00    +0.032 A 
ATOM     18  C   UNL     1      -1.764  -3.184   3.590  0.00  0.00    +0.141 A 
ATOM     19  N   UNL     1      -2.386  -4.310   3.853  0.00  0.00    -0.173 NA
ATOM     20  N   UNL     1      -1.573  -5.376   3.435  0.00  0.00    -0.217 N 
ATOM     21  H   UNL     1       0.686  -6.423   2.198  0.00  0.00    +0.156 HD
ENDROOT
BRANCH  20  22
ATOM     22  C   UNL     1      -1.884  -6.740   3.529  0.00  0.00    +0.086 A 
ATOM     23  C   UNL     1      -0.955  -7.631   4.049  0.00  0.00    +0.029 A 
ATOM     24  C   UNL     1      -1.264  -8.974   4.140  0.00  0.00    +0.002 A 
ATOM     25  C   UNL     1      -2.498  -9.432   3.714  0.00  0.00    +0.002 A 
ATOM     26  C   UNL     1      -3.425  -8.548   3.195  0.00  0.00    +0.022 A 
ATOM     27  C   UNL     1      -3.124  -7.201   3.106  0.00  0.00    +0.066 A 
ATOM     28 CL   UNL     1      -4.291  -6.090   2.461  0.00  0.00    -0.081 Cl
ENDBRANCH  20  22
BRANCH   8  29
ATOM     29  C   UNL     1       0.306   1.130   2.877  0.00  0.00    +0.202 C 
BRANCH  29  30
ATOM     30  C   UNL     1      -1.081   1.503   3.197  0.00  0.00    -0.086 C 
ATOM     31  C   UNL     1      -2.188   1.800   3.452  0.00  0.00    +0.005 C 
ENDBRANCH  29  30
ENDBRANCH   8  29
TORSDOF 3
