REMARK  Name = ZINC63140510
REMARK  7 active torsions:
REMARK  status: ('A' for Active; 'I' for Inactive)
REMARK    1  A    between atoms: C_1  and  C_2
REMARK    2  A    between atoms: C_2  and  O_3
REMARK    3  A    between atoms: O_3  and  C_4
REMARK    4  A    between atoms: C_9  and  C_10
REMARK    5  A    between atoms: N_29  and  C_32
REMARK    6  A    between atoms: C_32  and  C_33
REMARK    7  A    between atoms: C_33  and  C_34
REMARK                            x       y       z     vdW  Elec       q    Type
REMARK                         _______ _______ _______ _____ _____    ______ ____
ROOT
ATOM      1  C   UNL     1       2.055  -1.434   3.442  0.00  0.00    +0.137 C 
ATOM      2  C   UNL     1       3.439  -0.986   2.973  0.00  0.00    +0.131 C 
ATOM      3  C   UNL     1       4.117  -0.374   4.197  0.00  0.00    -0.034 C 
ATOM      4  C   UNL     1       4.375   0.892   3.898  0.00  0.00    -0.001 A 
ATOM      5  C   UNL     1       5.034   1.964   4.661  0.00  0.00    +0.010 A 
ATOM      6  C   UNL     1       5.130   3.170   4.041  0.00  0.00    +0.001 A 
ATOM      7  C   UNL     1       4.642   3.414   2.754  0.00  0.00    +0.002 A 
ATOM      8  C   UNL     1       4.024   2.487   1.980  0.00  0.00    +0.026 A 
ATOM      9  C   UNL     1       3.865   1.178   2.522  0.00  0.00    +0.043 A 
ATOM     10  N   UNL     1       3.323   0.100   1.991  0.00  0.00    -0.375 N 
ATOM     11  C   UNL     1       4.349  -1.181   5.444  0.00  0.00    +0.065 C 
ATOM     12  C   UNL     1       3.145  -2.041   5.729  0.00  0.00    +0.167 C 
ATOM     13  N   UNL     1       2.115  -2.133   4.717  0.00  0.00    -0.279 N 
ATOM     14  C   UNL     1       1.051  -2.942   5.035  0.00  0.00    +0.234 C 
ATOM     15  O   UNL     1       0.156  -3.154   4.244  0.00  0.00    -0.274 OA
ATOM     16  C   UNL     1       1.048  -3.558   6.418  0.00  0.00    +0.203 C 
ATOM     17  N   UNL     1       1.438  -2.522   7.391  0.00  0.00    -0.291 N 
ATOM     18  C   UNL     1       2.516  -1.751   7.068  0.00  0.00    +0.237 C 
ATOM     19  O   UNL     1       2.944  -0.892   7.810  0.00  0.00    -0.274 OA
ATOM     20  H   UNL     1       2.916   0.028   1.114  0.00  0.00    +0.160 HD
ENDROOT
BRANCH   1  26
ATOM     21  C   UNL     1       1.921  -3.656   2.287  0.00  0.00    +0.125 A 
ATOM     22  C   UNL     1       1.368  -4.501   1.336  0.00  0.00    +0.046 A 
ATOM     23  C   UNL     1       0.363  -4.041   0.507  0.00  0.00    +0.004 A 
ATOM     24  C   UNL     1      -0.092  -2.741   0.625  0.00  0.00    +0.001 A 
ATOM     25  C   UNL     1       0.459  -1.897   1.571  0.00  0.00    +0.009 A 
ATOM     26  C   UNL     1       1.460  -2.353   2.406  0.00  0.00    +0.017 A 
BRANCH  21  27
ATOM     27  O   UNL     1       2.910  -4.105   3.104  0.00  0.00    -0.492 OA
BRANCH  27  29
ATOM     28  C   UNL     1       4.446  -5.780   3.926  0.00  0.00    +0.048 C 
ATOM     29  C   UNL     1       3.335  -5.458   2.924  0.00  0.00    +0.225 C 
ENDBRANCH  27  29
ENDBRANCH  21  27
ENDBRANCH   1  26
BRANCH  17  30
ATOM     30  C   UNL     1       0.703  -2.327   8.643  0.00  0.00    +0.113 C 
BRANCH  30  31
ATOM     31  C   UNL     1       1.316  -3.204   9.737  0.00  0.00    +0.054 C 
BRANCH  31  32
ATOM     32  C   UNL     1       0.560  -3.004  11.025  0.00  0.00    -0.046 A 
ATOM     33  C   UNL     1       0.952  -2.017  11.910  0.00  0.00    +0.006 A 
ATOM     34  C   UNL     1       0.259  -1.833  13.091  0.00  0.00    +0.038 A 
ATOM     35  C   UNL     1      -0.829  -2.635  13.388  0.00  0.00    +0.123 A 
ATOM     36  C   UNL     1      -1.222  -3.623  12.500  0.00  0.00    +0.038 A 
ATOM     37  C   UNL     1      -0.530  -3.803  11.317  0.00  0.00    +0.006 A 
ATOM     38  F   UNL     1      -1.507  -2.456  14.543  0.00  0.00    -0.205 F 
ENDBRANCH  31  32
ENDBRANCH  30  31
ENDBRANCH  17  30
TORSDOF 6
