REMARK  Name = ZINC36784847
REMARK  9 active torsions:
REMARK  status: ('A' for Active; 'I' for Inactive)
REMARK    1  A    between atoms: C_1  and  C_2
REMARK    2  A    between atoms: C_2  and  C_3
REMARK    3  A    between atoms: C_3  and  C_28
REMARK    4  A    between atoms: N_6  and  N_10
REMARK    5  A    between atoms: C_11  and  C_13
REMARK    6  A    between atoms: C_13  and  S_14
REMARK    7  A    between atoms: S_14  and  C_15
REMARK    8  A    between atoms: N_19  and  C_20
REMARK    9  A    between atoms: C_25  and  C_26
REMARK                            x       y       z     vdW  Elec       q    Type
REMARK                         _______ _______ _______ _____ _____    ______ ____
ROOT
ATOM      1  N   UNL     1       3.389   1.443  -2.816  0.00  0.00    -0.223 N 
ATOM      2  C   UNL     1       4.111   0.967  -3.849  0.00  0.00    +0.240 C 
ATOM      3  O   UNL     1       3.756  -0.040  -4.424  0.00  0.00    -0.273 OA
ATOM      4  H   UNL     1       3.674   2.248  -2.356  0.00  0.00    +0.174 HD
ENDROOT
BRANCH   1   8
ATOM      5  C   UNL     1       0.718  -0.497  -1.257  0.00  0.00    +0.139 C 
ATOM      6  C   UNL     1       2.144   0.016  -1.295  0.00  0.00    +0.268 C 
ATOM      7  O   UNL     1       3.025  -0.210  -0.494  0.00  0.00    -0.271 OA
ATOM      8  N   UNL     1       2.228   0.775  -2.405  0.00  0.00    -0.137 N 
ATOM      9  C   UNL     1       1.066   0.812  -3.067  0.00  0.00    +0.327 C 
ATOM     10  O   UNL     1       0.895   1.432  -4.099  0.00  0.00    -0.251 OA
ATOM     11  N   UNL     1       0.107   0.087  -2.463  0.00  0.00    -0.280 N 
ATOM     12  H   UNL     1      -0.807  -0.029  -2.764  0.00  0.00    +0.152 HD
BRANCH   5  13
ATOM     13  C   UNL     1       0.691  -2.003  -1.325  0.00  0.00    -0.015 A 
ATOM     14  C   UNL     1       0.664  -2.747  -0.160  0.00  0.00    +0.006 A 
ATOM     15  C   UNL     1       0.639  -4.128  -0.222  0.00  0.00    +0.000 A 
ATOM     16  C   UNL     1       0.641  -4.764  -1.449  0.00  0.00    +0.000 A 
ATOM     17  C   UNL     1       0.667  -4.020  -2.614  0.00  0.00    +0.000 A 
ATOM     18  C   UNL     1       0.688  -2.639  -2.552  0.00  0.00    +0.006 A 
ENDBRANCH   5  13
BRANCH   5  20
ATOM     19  C   UNL     1      -0.019   1.526   0.010  0.00  0.00    +0.007 C 
ATOM     20  C   UNL     1       0.002  -0.004   0.002  0.00  0.00    +0.037 C 
ENDBRANCH   5  20
ENDBRANCH   1   8
BRANCH   2  21
ATOM     21  C   UNL     1       5.360   1.685  -4.291  0.00  0.00    +0.174 C 
BRANCH  21  22
ATOM     22  S   UNL     1       6.101   0.805  -5.693  0.00  0.00    -0.078 S 
BRANCH  22  23
ATOM     23  C   UNL     1       7.531   1.756  -6.086  0.00  0.00    +0.174 A 
ATOM     24  N   UNL     1       7.925   2.844  -5.465  0.00  0.00    -0.230 NA
ATOM     25  C   UNL     1       9.053   3.299  -6.036  0.00  0.00    +0.131 A 
ATOM     26  C   UNL     1       9.380   2.474  -7.046  0.00  0.00    +0.113 A 
ATOM     27  N   UNL     1       8.420   1.485  -7.084  0.00  0.00    -0.294 N 
BRANCH  27  28
ATOM     28  C   UNL     1       8.367   0.408  -7.979  0.00  0.00    +0.053 A 
ATOM     29  C   UNL     1       9.355  -0.568  -7.952  0.00  0.00    +0.026 A 
ATOM     30  C   UNL     1       9.301  -1.629  -8.835  0.00  0.00    +0.003 A 
ATOM     31  C   UNL     1       8.264  -1.720  -9.746  0.00  0.00    +0.020 A 
ATOM     32  C   UNL     1       7.279  -0.749  -9.777  0.00  0.00    +0.046 A 
ATOM     33  C   UNL     1       7.325   0.312  -8.891  0.00  0.00    -0.008 A 
ATOM     34  C   UNL     1       6.248   1.366  -8.919  0.00  0.00    +0.047 C 
ATOM     35 CL   UNL     1       5.980  -0.866 -10.922  0.00  0.00    -0.083 Cl
ENDBRANCH  27  28
ENDBRANCH  22  23
ENDBRANCH  21  22
ENDBRANCH   2  21
TORSDOF 7
