REMARK  Name = ZINC63628266
REMARK  5 active torsions:
REMARK  status: ('A' for Active; 'I' for Inactive)
REMARK    1  A    between atoms: C_3  and  N_18
REMARK    2  A    between atoms: C_6  and  C_7
REMARK    3  A    between atoms: C_19  and  C_21
REMARK    4  A    between atoms: C_24  and  S_27
REMARK    5  A    between atoms: S_27  and  N_30
REMARK                            x       y       z     vdW  Elec       q    Type
REMARK                         _______ _______ _______ _____ _____    ______ ____
ROOT
ATOM      1  N   UNL     1       3.583   2.123  -0.021  0.00  0.00    -0.282 N 
ATOM      2  C   UNL     1       4.757   1.467   0.066  0.00  0.00    +0.248 C 
ATOM      3  O   UNL     1       4.776   0.251   0.060  0.00  0.00    -0.270 OA
ATOM      4  H   UNL     1       3.572   3.090  -0.094  0.00  0.00    +0.155 HD
ENDROOT
BRANCH   1   7
ATOM      5  C   UNL     1       1.083  -0.460   0.751  0.00  0.00    +0.008 A 
ATOM      6  C   UNL     1       2.273   0.243   0.739  0.00  0.00    +0.023 A 
ATOM      7  C   UNL     1       2.381   1.409  -0.007  0.00  0.00    +0.034 A 
ATOM      8  C   UNL     1       1.292   1.866  -0.739  0.00  0.00    +0.023 A 
ATOM      9  C   UNL     1       0.106   1.159  -0.722  0.00  0.00    +0.008 A 
ATOM     10  C   UNL     1       0.001  -0.002   0.022  0.00  0.00    -0.021 A 
BRANCH  10  11
ATOM     11  C   UNL     1      -1.295  -0.771   0.037  0.00  0.00    +0.133 C 
ATOM     12  C   UNL     1      -2.293  -0.093   0.949  0.00  0.00    +0.012 C 
ATOM     13  C   UNL     1      -3.344   0.246   0.168  0.00  0.00    -0.002 A 
ATOM     14  C   UNL     1      -4.616   0.921   0.451  0.00  0.00    +0.029 A 
ATOM     15  C   UNL     1      -5.490   1.125  -0.562  0.00  0.00    +0.042 A 
ATOM     16  C   UNL     1      -5.211   0.708  -1.872  0.00  0.00    +0.022 A 
ATOM     17  C   UNL     1      -4.064   0.082  -2.209  0.00  0.00    +0.027 A 
ATOM     18  C   UNL     1      -3.074  -0.184  -1.223  0.00  0.00    +0.043 A 
ATOM     19  N   UNL     1      -1.901  -0.768  -1.299  0.00  0.00    -0.374 N 
ATOM     20 CL   UNL     1      -6.996   1.923  -0.231  0.00  0.00    -0.084 Cl
ATOM     21  H   UNL     1      -1.501  -1.135  -2.103  0.00  0.00    +0.161 HD
ENDBRANCH  10  11
ENDBRANCH   1   7
BRANCH   2  22
ATOM     22  C   UNL     1       6.022   2.225   0.169  0.00  0.00    +0.037 A 
ATOM     23  C   UNL     1       6.003   3.621   0.182  0.00  0.00    +0.015 A 
ATOM     24  C   UNL     1       7.187   4.323   0.278  0.00  0.00    +0.029 A 
ATOM     25  C   UNL     1       8.391   3.646   0.361  0.00  0.00    +0.106 A 
ATOM     26  C   UNL     1       8.417   2.263   0.348  0.00  0.00    +0.029 A 
ATOM     27  C   UNL     1       7.240   1.549   0.259  0.00  0.00    +0.015 A 
BRANCH  25  28
ATOM     28  S   UNL     1       9.899   4.550   0.484  0.00  0.00    +0.061 S 
ATOM     29  O   UNL     1      10.925   3.695  -0.000  0.00  0.00    -0.153 OA
ATOM     30  O   UNL     1       9.649   5.833  -0.074  0.00  0.00    -0.153 OA
BRANCH  28  31
ATOM     31  N   UNL     1      10.199   4.785   2.095  0.00  0.00    -0.172 NA
ATOM     32  C   UNL     1       9.685   5.972   2.797  0.00  0.00    +0.137 C 
ATOM     33  C   UNL     1       8.965   5.509   4.068  0.00  0.00    +0.177 C 
ATOM     34  O   UNL     1       9.835   4.656   4.817  0.00  0.00    -0.377 OA
ATOM     35  C   UNL     1      10.204   3.454   4.137  0.00  0.00    +0.177 C 
ATOM     36  C   UNL     1      10.983   3.810   2.870  0.00  0.00    +0.137 C 
ENDBRANCH  28  31
ENDBRANCH  25  28
ENDBRANCH   2  22
TORSDOF 5
