REMARK  Name = ZINC35746505
REMARK  14 active torsions:
REMARK  status: ('A' for Active; 'I' for Inactive)
REMARK    1  A    between atoms: C_1  and  C_2
REMARK    2  A    between atoms: C_5  and  C_36
REMARK    3  A    between atoms: C_6  and  C_8
REMARK    4  A    between atoms: C_17  and  C_19
REMARK    5  A    between atoms: C_19  and  N_20
REMARK    6  A    between atoms: N_20  and  C_21
REMARK    7  A    between atoms: N_20  and  C_30
REMARK    8  A    between atoms: C_21  and  C_22
REMARK    9  A    between atoms: C_22  and  C_24
REMARK   10  A    between atoms: C_22  and  O_29
REMARK   11  A    between atoms: C_24  and  O_25
REMARK   12  A    between atoms: O_25  and  C_26
REMARK   13  A    between atoms: C_26  and  C_27
REMARK   14  A    between atoms: C_26  and  C_28
REMARK                            x       y       z     vdW  Elec       q    Type
REMARK                         _______ _______ _______ _____ _____    ______ ____
ROOT
ATOM      1  C   UNL     1       0.030  -2.197   3.510  0.00  0.00    +0.004 A 
ATOM      2  C   UNL     1      -0.825  -2.087   4.556  0.00  0.00    +0.056 A 
ATOM      3  S   UNL     1      -0.185  -3.259   5.736  0.00  0.00    -0.076 S 
ATOM      4  C   UNL     1       1.201  -3.863   4.808  0.00  0.00    +0.116 A 
ATOM      5  C   UNL     1       1.132  -3.147   3.602  0.00  0.00    +0.080 A 
ATOM      6  C   UNL     1       2.152  -3.447   2.643  0.00  0.00    +0.260 A 
ATOM      7  O   UNL     1       2.179  -2.873   1.568  0.00  0.00    -0.267 OA
ATOM      8  N   UNL     1       3.081  -4.372   2.947  0.00  0.00    -0.312 N 
ATOM      9  H   UNL     1       3.775  -4.579   2.302  0.00  0.00    +0.170 HD
ATOM     10  C   UNL     1       3.067  -5.020   4.140  0.00  0.00    +0.094 A 
ATOM     11  N   UNL     1       2.155  -4.761   5.039  0.00  0.00    -0.229 NA
ENDROOT
BRANCH   1  17
ATOM     12  C   UNL     1      -0.050   2.275   1.292  0.00  0.00    +0.044 C 
ATOM     13  C   UNL     1      -0.196   0.777   1.222  0.00  0.00    -0.050 A 
ATOM     14  C   UNL     1      -0.506   0.169   0.018  0.00  0.00    +0.003 A 
ATOM     15  C   UNL     1      -0.642  -1.206  -0.053  0.00  0.00    +0.004 A 
ATOM     16  C   UNL     1      -0.469  -1.979   1.077  0.00  0.00    -0.043 A 
ATOM     17  C   UNL     1      -0.157  -1.372   2.292  0.00  0.00    -0.013 A 
ATOM     18  C   UNL     1      -0.015   0.014   2.357  0.00  0.00    +0.012 A 
ATOM     19  C   UNL     1      -0.619  -3.477   0.997  0.00  0.00    +0.044 C 
ENDBRANCH   1  17
BRANCH  10  20
ATOM     20  C   UNL     1       4.128  -6.049   4.437  0.00  0.00    -0.003 C 
BRANCH  20  21
ATOM     21  N   UNL     1       3.815  -6.724   5.703  0.00  0.00    +0.388 N 
ATOM     22  H   UNL     1       3.414  -6.060   6.348  0.00  0.00    -0.081 HD
BRANCH  21  23
ATOM     23  C   UNL     1       2.853  -7.807   5.455  0.00  0.00    -0.068 C 
ATOM     24  C   UNL     1       1.579  -7.226   4.839  0.00  0.00    -0.015 C 
ATOM     25  C   UNL     1       0.578  -8.354   4.581  0.00  0.00    -0.002 C 
ATOM     26  C   UNL     1       1.192  -9.372   3.618  0.00  0.00    -0.000 C 
ATOM     27  C   UNL     1       2.467  -9.952   4.234  0.00  0.00    -0.002 C 
ATOM     28  C   UNL     1       3.468  -8.825   4.492  0.00  0.00    -0.015 C 
ENDBRANCH  21  23
BRANCH  21  29
ATOM     29  C   UNL     1       5.045  -7.284   6.277  0.00  0.00    -0.044 C 
BRANCH  29  30
ATOM     30  C   UNL     1       4.746  -7.860   7.662  0.00  0.00    +0.124 C 
BRANCH  30  31
ATOM     31  O   UNL     1       4.255  -6.822   8.513  0.00  0.00    -0.391 OA
ATOM     32  H   UNL     1       4.873  -6.088   8.636  0.00  0.00    +0.210 HD
ENDBRANCH  30  31
BRANCH  30  33
ATOM     33  C   UNL     1       6.028  -8.444   8.259  0.00  0.00    +0.189 C 
BRANCH  33  34
ATOM     34  O   UNL     1       5.726  -9.084   9.501  0.00  0.00    -0.375 OA
BRANCH  34  35
ATOM     35  C   UNL     1       6.861  -9.667  10.145  0.00  0.00    +0.112 C 
ATOM     36  C   UNL     1       7.506  -8.636  11.073  0.00  0.00    +0.037 C 
ATOM     37  C   UNL     1       6.415 -10.880  10.964  0.00  0.00    +0.037 C 
ENDBRANCH  34  35
ENDBRANCH  33  34
ENDBRANCH  30  33
ENDBRANCH  29  30
ENDBRANCH  21  29
ENDBRANCH  20  21
ENDBRANCH  10  20
TORSDOF 10
