REMARK  Name = ZINC02117231
REMARK  5 active torsions:
REMARK  status: ('A' for Active; 'I' for Inactive)
REMARK    1  A    between atoms: C_3  and  C_10
REMARK    2  A    between atoms: C_5  and  N_7
REMARK    3  A    between atoms: C_11  and  C_12
REMARK    4  A    between atoms: C_11  and  N_20
REMARK    5  A    between atoms: C_21  and  C_23
REMARK                            x       y       z     vdW  Elec       q    Type
REMARK                         _______ _______ _______ _____ _____    ______ ____
ROOT
ATOM      1  C   UNL     1       3.570   2.190  -0.217  0.00  0.00    +0.036 C 
ATOM      2  C   UNL     1       3.622   3.540  -0.143  0.00  0.00    +0.097 C 
ENDROOT
BRANCH   2   3
ATOM      3  C   UNL     1       4.923   4.226  -0.127  0.00  0.00    +0.261 C 
ATOM      4  O   UNL     1       5.414   4.622  -1.166  0.00  0.00    -0.269 OA
ATOM      5  N   UNL     1       5.570   4.415   1.040  0.00  0.00    -0.292 N 
ATOM      6  C   UNL     1       5.053   3.846   2.295  0.00  0.00    +0.136 C 
ATOM      7  C   UNL     1       6.192   3.089   2.988  0.00  0.00    +0.179 C 
ATOM      8  O   UNL     1       7.328   3.950   3.102  0.00  0.00    -0.377 OA
ATOM      9  C   UNL     1       7.869   4.374   1.849  0.00  0.00    +0.179 C 
ATOM     10  C   UNL     1       6.819   5.192   1.096  0.00  0.00    +0.136 C 
ENDBRANCH   2   3
BRANCH   1  13
ATOM     11  C   UNL     1       0.044   1.480  -1.280  0.00  0.00    +0.003 A 
ATOM     12  C   UNL     1       1.255   2.122  -1.124  0.00  0.00    +0.008 A 
ATOM     13  C   UNL     1       2.275   1.512  -0.388  0.00  0.00    -0.021 A 
ATOM     14  C   UNL     1       2.059   0.254   0.185  0.00  0.00    +0.040 A 
ATOM     15  C   UNL     1       0.844  -0.374   0.019  0.00  0.00    +0.127 A 
ATOM     16  C   UNL     1      -0.162   0.236  -0.711  0.00  0.00    +0.033 A 
BRANCH  15  17
ATOM     17  N   UNL     1       0.613  -1.706   0.624  0.00  0.00    +0.056 N 
ATOM     18  O   UNL     1       1.490  -2.240   1.262  0.00  0.00    -0.126 OA
ATOM     19  O   UNL     1      -0.453  -2.258   0.480  0.00  0.00    -0.126 OA
ENDBRANCH  15  17
ENDBRANCH   1  13
BRANCH   2  20
ATOM     20  N   UNL     1       2.440   4.283  -0.082  0.00  0.00    -0.277 N 
ATOM     21  C   UNL     1       2.491   5.629  -0.048  0.00  0.00    +0.248 C 
ATOM     22  O   UNL     1       3.560   6.199  -0.141  0.00  0.00    -0.270 OA
ATOM     23  H   UNL     1       1.582   3.829  -0.064  0.00  0.00    +0.155 HD
BRANCH  21  24
ATOM     24  C   UNL     1       1.246   6.412   0.104  0.00  0.00    +0.038 A 
ATOM     25  C   UNL     1       0.017   5.760   0.218  0.00  0.00    +0.013 A 
ATOM     26  C   UNL     1      -1.141   6.496   0.359  0.00  0.00    +0.002 A 
ATOM     27  C   UNL     1      -1.087   7.879   0.388  0.00  0.00    +0.015 A 
ATOM     28  C   UNL     1       0.129   8.532   0.275  0.00  0.00    +0.019 A 
ATOM     29  C   UNL     1       1.296   7.806   0.140  0.00  0.00    +0.028 A 
ATOM     30 BR   UNL     1       0.192  10.421   0.316  0.00  0.00    -0.050 Br
ENDBRANCH  21  24
ENDBRANCH   2  20
TORSDOF 5
