REMARK  Name = ZINC01025395
REMARK  2 active torsions:
REMARK  status: ('A' for Active; 'I' for Inactive)
REMARK    1  A    between atoms: C_7  and  C_10
REMARK    2  A    between atoms: C_13  and  C_15
REMARK                            x       y       z     vdW  Elec       q    Type
REMARK                         _______ _______ _______ _____ _____    ______ ____
ROOT
ATOM      1  C   UNL     1      -5.952  -1.148   0.027  0.00  0.00    +0.080 A 
ATOM      2  C   UNL     1      -5.733  -2.501   0.017  0.00  0.00    +0.075 A 
ATOM      3  S   UNL     1      -3.946  -2.548   0.007  0.00  0.00    -0.075 S 
ATOM      4  C   UNL     1      -3.677  -0.781   0.018  0.00  0.00    +0.109 A 
ATOM      5  N   UNL     1      -4.920  -0.325   0.033  0.00  0.00    -0.239 NA
ENDROOT
BRANCH   4   6
ATOM      6  C   UNL     1      -2.404  -0.029   0.016  0.00  0.00    +0.011 A 
ATOM      7  C   UNL     1      -2.417   1.367   0.025  0.00  0.00    +0.014 A 
ATOM      8  C   UNL     1      -1.228   2.066   0.019  0.00  0.00    +0.050 A 
ATOM      9  C   UNL     1      -0.017   1.387   0.010  0.00  0.00    +0.162 A 
ATOM     10  C   UNL     1       0.002  -0.004   0.002  0.00  0.00    +0.163 A 
ATOM     11  C   UNL     1      -1.188  -0.712   0.004  0.00  0.00    +0.060 A 
ATOM     12  O   UNL     1       1.181  -0.685  -0.006  0.00  0.00    -0.485 OA
ATOM     13  C   UNL     1       2.347   0.054  -0.387  0.00  0.00    +0.270 C 
ATOM     14  C   UNL     1       2.334   1.392   0.365  0.00  0.00    +0.270 C 
ATOM     15  O   UNL     1       1.144   2.098   0.002  0.00  0.00    -0.485 OA
ENDBRANCH   4   6
BRANCH   1  22
ATOM     16  C   UNL     1      -7.036   3.179   0.062  0.00  0.00    +0.001 A 
ATOM     17  C   UNL     1      -8.382   3.518   0.071  0.00  0.00    +0.001 A 
ATOM     18  C   UNL     1      -9.335   2.519   0.070  0.00  0.00    +0.015 A 
ATOM     19  C   UNL     1      -8.935   1.199   0.058  0.00  0.00    +0.020 A 
ATOM     20  C   UNL     1      -7.575   0.829   0.055  0.00  0.00    -0.002 A 
ATOM     21  C   UNL     1      -6.631   1.880   0.051  0.00  0.00    +0.010 A 
ATOM     22  C   UNL     1      -7.335  -0.614   0.038  0.00  0.00    +0.016 A 
ATOM     23  C   UNL     1      -8.396  -1.452   0.039  0.00  0.00    +0.056 A 
ATOM     24  S   UNL     1      -9.798  -0.351   0.053  0.00  0.00    -0.096 S 
ENDBRANCH   1  22
TORSDOF 2
