REMARK  Name = ZINC12211476
REMARK  13 active torsions:
REMARK  status: ('A' for Active; 'I' for Inactive)
REMARK    1  A    between atoms: C_1  and  C_2
REMARK    2  A    between atoms: C_2  and  C_3
REMARK    3  A    between atoms: C_2  and  C_4
REMARK    4  A    between atoms: C_4  and  C_5
REMARK    5  A    between atoms: C_5  and  C_7
REMARK    6  A    between atoms: C_5  and  N_24
REMARK    7  A    between atoms: C_16  and  C_17
REMARK    8  A    between atoms: C_16  and  N_67
REMARK    9  A    between atoms: C_22  and  O_23
REMARK   10  A    between atoms: C_25  and  C_27
REMARK   11  A    between atoms: C_30  and  C_32
REMARK   12  A    between atoms: C_32  and  O_33
REMARK   13  A    between atoms: O_33  and  C_34
REMARK                            x       y       z     vdW  Elec       q    Type
REMARK                         _______ _______ _______ _____ _____    ______ ____
ROOT
ATOM      1  C   UNL     1       1.821   0.716   1.089  0.00  0.00    +0.154 A 
ATOM      2  N   UNL     1       0.940   1.663   1.275  0.00  0.00    -0.132 NA
ATOM      3  N   UNL     1      -0.249   1.180   1.155  0.00  0.00    -0.134 NA
ATOM      4  C   UNL     1      -0.176  -0.090   0.882  0.00  0.00    +0.132 A 
ATOM      5  N   UNL     1       1.137  -0.422   0.847  0.00  0.00    -0.315 N 
ATOM      6  C   UNL     1       1.680  -1.760   0.609  0.00  0.00    +0.106 C 
ATOM      7  C   UNL     1       0.693  -2.559  -0.247  0.00  0.00    -0.056 C 
ATOM      8  C   UNL     1      -1.065  -2.332   1.420  0.00  0.00    -0.071 C 
ATOM      9  C   UNL     1      -1.315  -1.044   0.629  0.00  0.00    +0.058 C 
ATOM     10  N   UNL     1      -0.247  -3.285   0.637  0.00  0.00    +0.384 N 
ATOM     11  H   UNL     1       0.294  -3.867   1.286  0.00  0.00    -0.081 HD
ENDROOT
BRANCH   1  12
ATOM     12  C   UNL     1       3.320   0.867   1.136  0.00  0.00    +0.142 C 
BRANCH  12  13
ATOM     13  N   UNL     1       3.714   2.064   0.389  0.00  0.00    -0.299 N 
ATOM     14  C   UNL     1       4.950   2.152  -0.140  0.00  0.00    +0.280 C 
ATOM     15  O   UNL     1       5.739   1.237   0.002  0.00  0.00    -0.267 OA
ATOM     16  H   UNL     1       3.085   2.794   0.276  0.00  0.00    +0.150 HD
BRANCH  14  17
ATOM     17  C   UNL     1       5.344   3.351  -0.887  0.00  0.00    +0.190 A 
ATOM     18  C   UNL     1       6.561   3.571  -1.467  0.00  0.00    +0.055 A 
ATOM     19  C   UNL     1       6.496   4.836  -2.073  0.00  0.00    +0.048 A 
ATOM     20  C   UNL     1       5.262   5.330  -1.831  0.00  0.00    +0.131 A 
ATOM     21  O   UNL     1       4.571   4.432  -1.116  0.00  0.00    -0.453 OA
BRANCH  20  22
ATOM     22  C   UNL     1       4.747   6.670  -2.291  0.00  0.00    +0.233 C 
BRANCH  22  23
ATOM     23  O   UNL     1       4.136   6.530  -3.575  0.00  0.00    -0.375 OA
ATOM     24  C   UNL     1       3.612   7.749  -4.105  0.00  0.00    +0.194 C 
ENDBRANCH  22  23
ENDBRANCH  20  22
ENDBRANCH  14  17
ENDBRANCH  12  13
BRANCH  12  25
ATOM     25  C   UNL     1       3.774   1.000   2.591  0.00  0.00    +0.033 C 
BRANCH  25  27
ATOM     26  C   UNL     1       5.755   1.286   4.086  0.00  0.00    +0.007 C 
ATOM     27  C   UNL     1       5.303   1.028   2.647  0.00  0.00    -0.015 C 
ATOM     28  C   UNL     1       5.855  -0.318   2.172  0.00  0.00    +0.007 C 
ENDBRANCH  25  27
ENDBRANCH  12  25
ENDBRANCH   1  12
BRANCH  10  29
ATOM     29  C   UNL     1      -1.124  -4.154  -0.167  0.00  0.00    -0.039 C 
BRANCH  29  30
ATOM     30  C   UNL     1      -0.346  -5.386  -0.554  0.00  0.00    -0.022 A 
ATOM     31  C   UNL     1       0.097  -5.543  -1.853  0.00  0.00    +0.005 A 
ATOM     32  C   UNL     1       0.811  -6.673  -2.208  0.00  0.00    +0.000 A 
ATOM     33  C   UNL     1       1.083  -7.647  -1.265  0.00  0.00    +0.004 A 
ATOM     34  C   UNL     1       0.642  -7.494   0.035  0.00  0.00    +0.045 A 
ATOM     35  C   UNL     1      -0.070  -6.359   0.395  0.00  0.00    +0.118 A 
BRANCH  35  36
ATOM     36  O   UNL     1      -0.501  -6.203   1.675  0.00  0.00    -0.507 OA
ATOM     37  H   UNL     1      -1.380  -6.571   1.841  0.00  0.00    +0.292 HD
ENDBRANCH  35  36
ENDBRANCH  29  30
ENDBRANCH  10  29
TORSDOF 10
