REMARK  Name = ZINC13565749
REMARK  11 active torsions:
REMARK  status: ('A' for Active; 'I' for Inactive)
REMARK    1  A    between atoms: C_1  and  C_2
REMARK    2  A    between atoms: C_7  and  C_8
REMARK    3  A    between atoms: C_8  and  C_9
REMARK    4  A    between atoms: C_9  and  C_11
REMARK    5  A    between atoms: C_9  and  N_37
REMARK    6  A    between atoms: N_13  and  C_14
REMARK    7  A    between atoms: N_17  and  C_20
REMARK    8  A    between atoms: C_21  and  C_30
REMARK    9  A    between atoms: C_22  and  C_29
REMARK   10  A    between atoms: C_30  and  C_31
REMARK   11  A    between atoms: C_38  and  C_40
REMARK                            x       y       z     vdW  Elec       q    Type
REMARK                         _______ _______ _______ _____ _____    ______ ____
ROOT
ATOM      1  C   UNL     1      -0.591  -1.708   0.395  0.00  0.00    +0.076 C 
ATOM      2  C   UNL     1      -0.457  -2.077  -1.085  0.00  0.00    +0.041 C 
ATOM      3  C   UNL     1       0.312  -0.973  -1.814  0.00  0.00    +0.108 C 
ATOM      4  N   UNL     1       1.640  -0.817  -1.207  0.00  0.00    -0.315 N 
ATOM      5  C   UNL     1       1.537  -0.416   0.202  0.00  0.00    +0.108 C 
ATOM      6  C   UNL     1       0.805  -1.504   0.991  0.00  0.00    +0.041 C 
ENDROOT
BRANCH   4   7
ATOM      7  C   UNL     1       2.406   0.077  -1.920  0.00  0.00    +0.132 A 
ATOM      8  C   UNL     1       3.561  -0.335  -2.557  0.00  0.00    +0.018 A 
ATOM      9  C   UNL     1       4.308   0.597  -3.273  0.00  0.00    +0.049 A 
ATOM     10  N   UNL     1       3.921   1.854  -3.337  0.00  0.00    -0.215 NA
ATOM     11  C   UNL     1       2.807   2.269  -2.722  0.00  0.00    +0.255 A 
ATOM     12  N   UNL     1       2.043   1.390  -2.008  0.00  0.00    -0.182 N 
ATOM     13  N   UNL     1       0.966   2.126  -1.496  0.00  0.00    -0.151 NA
ATOM     14  C   UNL     1       1.118   3.362  -1.904  0.00  0.00    +0.247 A 
ATOM     15  N   UNL     1       2.219   3.457  -2.639  0.00  0.00    -0.197 NA
ATOM     16  C   UNL     1       5.567   0.165  -3.979  0.00  0.00    +0.066 C 
BRANCH   8  17
ATOM     17  C   UNL     1       4.003  -1.774  -2.482  0.00  0.00    +0.075 C 
BRANCH  17  18
ATOM     18  C   UNL     1       3.450  -2.531  -3.663  0.00  0.00    -0.043 A 
ATOM     19  C   UNL     1       4.149  -2.557  -4.856  0.00  0.00    +0.004 A 
ATOM     20  C   UNL     1       3.639  -3.246  -5.940  0.00  0.00    +0.000 A 
ATOM     21  C   UNL     1       2.437  -3.919  -5.828  0.00  0.00    +0.000 A 
ATOM     22  C   UNL     1       1.738  -3.893  -4.635  0.00  0.00    +0.000 A 
ATOM     23  C   UNL     1       2.245  -3.199  -3.553  0.00  0.00    +0.004 A 
ENDBRANCH  17  18
ENDBRANCH   8  17
ENDBRANCH   4   7
BRANCH   1  26
ATOM     24  C   UNL     1      -1.948  -2.523   2.248  0.00  0.00    +0.234 C 
ATOM     25  O   UNL     1      -1.986  -1.391   2.680  0.00  0.00    -0.274 OA
ATOM     26  N   UNL     1      -1.275  -2.788   1.110  0.00  0.00    -0.311 N 
ATOM     27  H   UNL     1      -1.244  -3.694   0.764  0.00  0.00    +0.149 HD
BRANCH  24  28
ATOM     28  C   UNL     1      -2.652  -3.635   2.982  0.00  0.00    +0.163 C 
BRANCH  28  29
ATOM     29  N   UNL     1      -2.886  -3.231   4.371  0.00  0.00    -0.304 N 
ATOM     30  C   UNL     1      -3.676  -2.173   4.641  0.00  0.00    +0.211 C 
ATOM     31  O   UNL     1      -4.267  -1.613   3.742  0.00  0.00    -0.276 OA
ATOM     32  C   UNL     1      -3.826  -1.686   6.059  0.00  0.00    +0.109 C 
ATOM     33  H   UNL     1      -2.472  -3.724   5.096  0.00  0.00    +0.149 HD
ENDBRANCH  28  29
BRANCH  28  34
ATOM     34  C   UNL     1      -3.991  -3.927   2.304  0.00  0.00    +0.067 C 
BRANCH  34  41
ATOM     35  C   UNL     1      -3.142  -6.625   1.714  0.00  0.00    +0.044 C 
ATOM     36  C   UNL     1      -4.251  -6.384   2.705  0.00  0.00    -0.047 A 
ATOM     37  C   UNL     1      -4.860  -7.453   3.336  0.00  0.00    +0.003 A 
ATOM     38  C   UNL     1      -5.880  -7.232   4.242  0.00  0.00    +0.000 A 
ATOM     39  C   UNL     1      -6.290  -5.941   4.520  0.00  0.00    +0.000 A 
ATOM     40  C   UNL     1      -5.679  -4.872   3.893  0.00  0.00    +0.004 A 
ATOM     41  C   UNL     1      -4.658  -5.093   2.987  0.00  0.00    -0.042 A 
ENDBRANCH  34  41
ENDBRANCH  28  34
ENDBRANCH  24  28
ENDBRANCH   1  26
TORSDOF 8
