REMARK  Name = ZINC39922581
REMARK  4 active torsions:
REMARK  status: ('A' for Active; 'I' for Inactive)
REMARK    1  A    between atoms: C_1  and  C_2
REMARK    2  A    between atoms: C_4  and  C_8
REMARK    3  A    between atoms: N_10  and  N_11
REMARK    4  A    between atoms: C_12  and  C_13
REMARK                            x       y       z     vdW  Elec       q    Type
REMARK                         _______ _______ _______ _____ _____    ______ ____
ROOT
ATOM      1  C   UNL     1      -0.958  -2.939   1.229  0.00  0.00    +0.262 C 
ATOM      2  O   UNL     1      -0.190  -3.058   2.161  0.00  0.00    -0.271 OA
ATOM      3  N   UNL     1      -2.191  -3.477   1.299  0.00  0.00    -0.205 N 
ATOM      4  H   UNL     1      -2.805  -3.381   0.554  0.00  0.00    +0.177 HD
ENDROOT
BRANCH   1   8
ATOM      5  C   UNL     1      -0.018   1.503   0.010  0.00  0.00    +0.067 C 
ATOM      6  C   UNL     1       0.002  -0.004   0.002  0.00  0.00    +0.059 C 
ATOM      7  C   UNL     1      -1.086  -0.777   0.003  0.00  0.00    +0.035 C 
ATOM      8  C   UNL     1      -0.531  -2.190  -0.007  0.00  0.00    +0.240 C 
ATOM      9  N   UNL     1       0.926  -1.973  -0.013  0.00  0.00    -0.170 NA
ATOM     10  N   UNL     1       1.125  -0.756  -0.013  0.00  0.00    -0.159 NA
ENDBRANCH   1   8
BRANCH   3  11
ATOM     11  N   UNL     1      -2.588  -4.173   2.448  0.00  0.00    -0.188 NA
ATOM     12  C   UNL     1      -3.776  -4.691   2.516  0.00  0.00    +0.138 C 
BRANCH  12  13
ATOM     13  C   UNL     1      -4.193  -5.424   3.726  0.00  0.00    -0.004 A 
ATOM     14  C   UNL     1      -3.314  -5.558   4.803  0.00  0.00    +0.009 A 
ATOM     15  C   UNL     1      -3.710  -6.245   5.931  0.00  0.00    +0.002 A 
ATOM     16  C   UNL     1      -4.976  -6.801   5.998  0.00  0.00    +0.015 A 
ATOM     17  C   UNL     1      -5.852  -6.672   4.935  0.00  0.00    +0.018 A 
ATOM     18  C   UNL     1      -5.471  -5.982   3.802  0.00  0.00    +0.024 A 
ATOM     19 BR   UNL     1      -7.579  -7.436   5.038  0.00  0.00    -0.050 Br
ENDBRANCH  12  13
ENDBRANCH   3  11
TORSDOF 3
