REMARK  Name = ZINC20744503
REMARK  8 active torsions:
REMARK  status: ('A' for Active; 'I' for Inactive)
REMARK    1  A    between atoms: C_1  and  S_2
REMARK    2  A    between atoms: S_2  and  C_3
REMARK    3  A    between atoms: C_3  and  C_4
REMARK    4  A    between atoms: C_4  and  C_5
REMARK    5  A    between atoms: C_5  and  C_7
REMARK    6  A    between atoms: C_5  and  N_20
REMARK    7  A    between atoms: C_7  and  N_9
REMARK    8  A    between atoms: C_21  and  C_23
REMARK                            x       y       z     vdW  Elec       q    Type
REMARK                         _______ _______ _______ _____ _____    ______ ____
ROOT
ATOM      1  C   UNL     1      -3.338  -2.383   0.029  0.00  0.00    +0.162 C 
ENDROOT
BRANCH   1   2
ATOM      2  N   UNL     1      -3.933  -1.950   1.296  0.00  0.00    -0.301 N 
ATOM      3  C   UNL     1      -4.392  -0.691   1.429  0.00  0.00    +0.258 C 
ATOM      4  O   UNL     1      -4.313   0.085   0.500  0.00  0.00    -0.272 OA
ATOM      5  H   UNL     1      -3.996  -2.571   2.038  0.00  0.00    +0.150 HD
BRANCH   3   6
ATOM      6  C   UNL     1      -5.004  -0.245   2.732  0.00  0.00    +0.296 C 
ATOM      7  C   UNL     1      -6.303  -1.022   2.986  0.00  0.00    +0.283 C 
ATOM      8  O   UNL     1      -6.864  -0.566   4.221  0.00  0.00    -0.484 OA
ATOM      9  C   UNL     1      -6.916   0.781   4.409  0.00  0.00    +0.162 A 
ATOM     10  C   UNL     1      -7.753   1.300   5.386  0.00  0.00    +0.049 A 
ATOM     11  C   UNL     1      -7.814   2.666   5.590  0.00  0.00    +0.004 A 
ATOM     12  C   UNL     1      -7.042   3.518   4.822  0.00  0.00    +0.004 A 
ATOM     13  C   UNL     1      -6.207   3.006   3.847  0.00  0.00    +0.049 A 
ATOM     14  C   UNL     1      -6.142   1.637   3.635  0.00  0.00    +0.163 A 
ATOM     15  O   UNL     1      -5.321   1.149   2.666  0.00  0.00    -0.473 OA
ENDBRANCH   3   6
ENDBRANCH   1   2
BRANCH   1  16
ATOM     16  C   UNL     1      -3.470  -3.878  -0.103  0.00  0.00    +0.259 C 
ATOM     17  O   UNL     1      -4.009  -4.521   0.777  0.00  0.00    -0.272 OA
BRANCH  16  18
ATOM     18  N   UNL     1      -2.996  -4.495  -1.182  0.00  0.00    -0.145 NA
ATOM     19  C   UNL     1      -3.018  -5.823  -1.252  0.00  0.00    +0.198 A 
ATOM     20  N   UNL     1      -3.599  -6.650  -0.344  0.00  0.00    -0.326 N 
ATOM     21  H   UNL     1      -4.065  -6.373   0.460  0.00  0.00    +0.169 HD
ATOM     22  C   UNL     1      -3.411  -7.962  -0.766  0.00  0.00    +0.065 A 
ATOM     23  C   UNL     1      -3.786  -9.190  -0.238  0.00  0.00    +0.028 A 
ATOM     24  C   UNL     1      -3.449 -10.354  -0.899  0.00  0.00    +0.002 A 
ATOM     25  C   UNL     1      -2.739 -10.303  -2.086  0.00  0.00    +0.002 A 
ATOM     26  C   UNL     1      -2.361  -9.087  -2.620  0.00  0.00    +0.028 A 
ATOM     27  C   UNL     1      -2.695  -7.910  -1.964  0.00  0.00    +0.065 A 
ATOM     28  N   UNL     1      -2.467  -6.568  -2.247  0.00  0.00    -0.326 N 
ATOM     29  H   UNL     1      -1.994  -6.222  -3.020  0.00  0.00    +0.169 HD
ENDBRANCH  16  18
ENDBRANCH   1  16
BRANCH   1  30
ATOM     30  C   UNL     1      -1.858  -1.997   0.002  0.00  0.00    +0.042 C 
BRANCH  30  31
ATOM     31  C   UNL     1      -1.728  -0.473   0.011  0.00  0.00    +0.071 C 
BRANCH  31  33
ATOM     32  C   UNL     1       0.008   1.799  -0.007  0.00  0.00    +0.084 C 
ATOM     33  S   UNL     1       0.027  -0.015  -0.021  0.00  0.00    -0.164 S 
ENDBRANCH  31  33
ENDBRANCH  30  31
ENDBRANCH   1  30
TORSDOF 7
