REMARK  Name = ZINC08430982
REMARK  9 active torsions:
REMARK  status: ('A' for Active; 'I' for Inactive)
REMARK    1  A    between atoms: C_1  and  C_2
REMARK    2  A    between atoms: C_2  and  N_3
REMARK    3  A    between atoms: N_3  and  C_4
REMARK    4  A    between atoms: N_3  and  C_6
REMARK    5  A    between atoms: C_4  and  C_5
REMARK    6  A    between atoms: C_9  and  C_12
REMARK    7  A    between atoms: C_17  and  C_21
REMARK    8  A    between atoms: C_17  and  C_22
REMARK    9  A    between atoms: C_31  and  C_33
REMARK                            x       y       z     vdW  Elec       q    Type
REMARK                         _______ _______ _______ _____ _____    ______ ____
ROOT
ATOM      1  C   UNL     1       4.291   2.010  -1.038  0.00  0.00    +0.147 C 
ATOM      2  C   UNL     1       2.869   1.863  -1.524  0.00  0.00    +0.037 C 
ATOM      3  C   UNL     1       1.893   2.777  -1.398  0.00  0.00    +0.017 C 
ATOM      4  C   UNL     1       0.507   2.507  -1.961  0.00  0.00    +0.058 C 
ATOM      5  C   UNL     1       0.195   1.014  -1.881  0.00  0.00    -0.023 C 
ATOM      6  C   UNL     1       1.256   0.271  -2.703  0.00  0.00    +0.086 C 
ATOM      7  C   UNL     1       2.610   0.628  -2.167  0.00  0.00    +0.163 C 
ATOM      8  O   UNL     1       3.518  -0.171  -2.288  0.00  0.00    -0.292 OA
ATOM      9  C   UNL     1       0.248   0.549  -0.425  0.00  0.00    +0.011 C 
ATOM     10  C   UNL     1      -1.194   0.743  -2.463  0.00  0.00    +0.011 C 
ATOM     11  N   UNL     1       2.033   3.982  -0.791  0.00  0.00    -0.316 N 
ATOM     12  C   UNL     1       3.086   4.862  -1.008  0.00  0.00    +0.053 A 
ATOM     13  C   UNL     1       2.894   6.130  -1.529  0.00  0.00    +0.025 A 
ATOM     14  C   UNL     1       3.969   6.997  -1.619  0.00  0.00    +0.002 A 
ATOM     15  C   UNL     1       5.223   6.599  -1.192  0.00  0.00    +0.002 A 
ATOM     16  C   UNL     1       5.421   5.324  -0.690  0.00  0.00    +0.025 A 
ATOM     17  C   UNL     1       4.350   4.448  -0.615  0.00  0.00    +0.059 A 
ATOM     18  N   UNL     1       4.509   3.140  -0.160  0.00  0.00    -0.254 N 
ATOM     19  C   UNL     1       4.872   2.924   1.121  0.00  0.00    +0.252 C 
ATOM     20  O   UNL     1       5.112   1.794   1.502  0.00  0.00    -0.270 OA
ATOM     21  H   UNL     1       1.347   4.249  -0.159  0.00  0.00    +0.152 HD
ENDROOT
BRANCH  19  22
ATOM     22  C   UNL     1       4.977   4.059   2.061  0.00  0.00    +0.037 A 
ATOM     23  C   UNL     1       4.104   5.143   1.951  0.00  0.00    +0.014 A 
ATOM     24  C   UNL     1       4.204   6.197   2.834  0.00  0.00    +0.016 A 
ATOM     25  C   UNL     1       5.175   6.187   3.822  0.00  0.00    +0.018 A 
ATOM     26  C   UNL     1       6.047   5.117   3.933  0.00  0.00    +0.016 A 
ATOM     27  C   UNL     1       5.953   4.054   3.059  0.00  0.00    +0.014 A 
ATOM     28 BR   UNL     1       5.311   7.640   5.024  0.00  0.00    -0.050 Br
ENDBRANCH  19  22
BRANCH   1  32
ATOM     29  C   UNL     1       6.848   2.434  -4.437  0.00  0.00    +0.030 A 
ATOM     30  C   UNL     1       5.870   3.386  -4.178  0.00  0.00    +0.023 A 
ATOM     31  C   UNL     1       5.045   3.246  -3.079  0.00  0.00    +0.007 A 
ATOM     32  C   UNL     1       5.192   2.160  -2.237  0.00  0.00    -0.022 A 
ATOM     33  C   UNL     1       6.168   1.213  -2.488  0.00  0.00    +0.007 A 
ATOM     34  C   UNL     1       6.992   1.344  -3.588  0.00  0.00    +0.023 A 
BRANCH  29  35
ATOM     35  N   UNL     1       7.683   2.572  -5.548  0.00  0.00    -0.330 N 
BRANCH  35  37
ATOM     36  C   UNL     1       8.133   0.470  -6.713  0.00  0.00    +0.024 C 
ATOM     37  C   UNL     1       8.713   1.567  -5.819  0.00  0.00    +0.102 C 
ENDBRANCH  35  37
BRANCH  35  38
ATOM     38  C   UNL     1       7.528   3.723  -6.442  0.00  0.00    +0.102 C 
ATOM     39  C   UNL     1       8.414   4.871  -5.954  0.00  0.00    +0.024 C 
ENDBRANCH  35  38
ENDBRANCH  29  35
ENDBRANCH   1  32
TORSDOF 5
