REMARK  Name = ZINC01817945
REMARK  7 active torsions:
REMARK  status: ('A' for Active; 'I' for Inactive)
REMARK    1  A    between atoms: C_1  and  C_2
REMARK    2  A    between atoms: C_2  and  O_3
REMARK    3  A    between atoms: O_3  and  C_4
REMARK    4  A    between atoms: C_7  and  N_10
REMARK    5  A    between atoms: C_11  and  C_13
REMARK    6  A    between atoms: C_13  and  N_14
REMARK    7  A    between atoms: N_25  and  C_29
REMARK                            x       y       z     vdW  Elec       q    Type
REMARK                         _______ _______ _______ _____ _____    ______ ____
ROOT
ATOM      1  N   UNL     1      -0.266   5.226  -0.115  0.00  0.00    -0.258 N 
ATOM      2  C   UNL     1      -0.115   3.845  -0.056  0.00  0.00    +0.045 A 
ATOM      3  C   UNL     1       1.013   3.044   0.078  0.00  0.00    +0.024 A 
ATOM      4  C   UNL     1       0.887   1.669   0.111  0.00  0.00    +0.002 A 
ATOM      5  C   UNL     1      -0.358   1.071   0.011  0.00  0.00    +0.001 A 
ATOM      6  C   UNL     1      -1.490   1.849  -0.128  0.00  0.00    +0.010 A 
ATOM      7  C   UNL     1      -1.374   3.236  -0.156  0.00  0.00    +0.010 A 
ATOM      8  C   UNL     1      -2.358   4.331  -0.286  0.00  0.00    +0.065 C 
ATOM      9  C   UNL     1      -3.729   4.219  -0.413  0.00  0.00    +0.089 C 
ATOM     10  C   UNL     1      -4.567   3.007  -0.622  0.00  0.00    +0.259 C 
ATOM     11  O   UNL     1      -4.079   1.897  -0.709  0.00  0.00    -0.269 OA
ATOM     12  N   UNL     1      -5.872   3.204  -0.705  0.00  0.00    -0.252 N 
ATOM     13  C   UNL     1      -6.408   4.438  -0.615  0.00  0.00    +0.121 C 
ATOM     14  S   UNL     1      -8.057   4.887  -0.704  0.00  0.00    -0.027 S 
ATOM     15  S   UNL     1      -4.985   5.491  -0.379  0.00  0.00    -0.060 S 
ATOM     16  C   UNL     1      -1.557   5.572  -0.250  0.00  0.00    +0.253 C 
ATOM     17  O   UNL     1      -1.990   6.706  -0.328  0.00  0.00    -0.270 OA
ENDROOT
BRANCH  12  18
ATOM     18  C   UNL     1      -6.758   2.054  -0.905  0.00  0.00    +0.083 C 
ATOM     19  C   UNL     1      -7.534   2.229  -2.212  0.00  0.00    +0.023 C 
ATOM     20  C   UNL     1      -8.458   1.028  -2.422  0.00  0.00    +0.002 C 
ATOM     21  C   UNL     1      -9.441   0.932  -1.254  0.00  0.00    +0.000 C 
ATOM     22  C   UNL     1      -8.665   0.756   0.053  0.00  0.00    +0.002 C 
ATOM     23  C   UNL     1      -7.741   1.957   0.263  0.00  0.00    +0.023 C 
ENDBRANCH  12  18
BRANCH   1  24
ATOM     24  C   UNL     1       0.842   6.181  -0.040  0.00  0.00    +0.210 C 
BRANCH  24  26
ATOM     25  N   UNL     1       2.383   7.320  -1.605  0.00  0.00    -0.284 N 
ATOM     26  C   UNL     1       1.357   6.463  -1.428  0.00  0.00    +0.235 C 
ATOM     27  O   UNL     1       0.850   5.919  -2.386  0.00  0.00    -0.274 OA
ATOM     28  H   UNL     1       2.839   7.695  -0.836  0.00  0.00    +0.155 HD
BRANCH  25  32
ATOM     29  C   UNL     1       3.593   8.355  -5.459  0.00  0.00    +0.121 A 
ATOM     30  C   UNL     1       2.252   8.118  -5.193  0.00  0.00    +0.047 A 
ATOM     31  C   UNL     1       1.851   7.775  -3.917  0.00  0.00    +0.027 A 
ATOM     32  C   UNL     1       2.790   7.667  -2.900  0.00  0.00    +0.034 A 
ATOM     33  C   UNL     1       4.131   7.910  -3.165  0.00  0.00    +0.027 A 
ATOM     34  C   UNL     1       4.532   8.247  -4.443  0.00  0.00    +0.047 A 
BRANCH  29  35
ATOM     35  O   UNL     1       3.988   8.692  -6.715  0.00  0.00    -0.492 OA
BRANCH  35  37
ATOM     36  C   UNL     1       5.634   9.288  -8.382  0.00  0.00    +0.048 C 
ATOM     37  C   UNL     1       5.384   8.922  -6.917  0.00  0.00    +0.225 C 
ENDBRANCH  35  37
ENDBRANCH  29  35
ENDBRANCH  25  32
ENDBRANCH  24  26
ENDBRANCH   1  24
TORSDOF 6
