REMARK  Name = ZINC16044311
REMARK  16 active torsions:
REMARK  status: ('A' for Active; 'I' for Inactive)
REMARK    1  A    between atoms: C_1  and  C_2
REMARK    2  A    between atoms: N_4  and  C_5
REMARK    3  A    between atoms: C_9  and  C_16
REMARK    4  A    between atoms: C_16  and  O_17
REMARK    5  A    between atoms: O_17  and  C_18
REMARK    6  A    between atoms: C_18  and  C_20
REMARK    7  A    between atoms: C_20  and  C_22
REMARK    8  A    between atoms: C_20  and  N_26
REMARK    9  A    between atoms: C_22  and  C_23
REMARK   10  A    between atoms: C_23  and  S_24
REMARK   11  A    between atoms: S_24  and  C_25
REMARK   12  A    between atoms: C_27  and  C_29
REMARK   13  A    between atoms: C_32  and  C_35
REMARK   14  A    between atoms: C_35  and  C_36
REMARK   15  A    between atoms: C_35  and  C_37
REMARK   16  A    between atoms: C_35  and  C_38
REMARK                            x       y       z     vdW  Elec       q    Type
REMARK                         _______ _______ _______ _____ _____    ______ ____
ROOT
ATOM      1  C   UNL     1       1.342  -9.228   0.587  0.00  0.00    +0.328 C 
ATOM      2  O   UNL     1       2.444  -8.732   0.599  0.00  0.00    -0.249 OA
ENDROOT
BRANCH   1   3
ATOM      3  O   UNL     1       0.255  -8.445   0.503  0.00  0.00    -0.459 OA
BRANCH   3   4
ATOM      4  C   UNL     1       0.478  -7.013   0.429  0.00  0.00    +0.268 C 
BRANCH   4   9
ATOM      5  C   UNL     1      -1.081  -2.085   0.091  0.00  0.00    +0.037 A 
ATOM      6  C   UNL     1       0.164  -2.708   0.166  0.00  0.00    +0.024 A 
ATOM      7  C   UNL     1       0.253  -4.066   0.253  0.00  0.00    +0.014 A 
ATOM      8  C   UNL     1      -0.913  -4.841   0.254  0.00  0.00    +0.024 A 
ATOM      9  C   UNL     1      -0.848  -6.301   0.341  0.00  0.00    +0.007 A 
ATOM     10  C   UNL     1      -2.014  -6.998   0.339  0.00  0.00    +0.099 A 
ATOM     11  C   UNL     1      -3.242  -6.309   0.254  0.00  0.00    +0.338 A 
ATOM     12  O   UNL     1      -4.280  -6.946   0.253  0.00  0.00    -0.245 OA
ATOM     13  O   UNL     1      -3.295  -4.971   0.176  0.00  0.00    -0.422 OA
ATOM     14  C   UNL     1      -2.173  -4.219   0.173  0.00  0.00    +0.141 A 
ATOM     15  C   UNL     1      -2.246  -2.837   0.092  0.00  0.00    +0.070 A 
BRANCH   5  19
ATOM     16  C   UNL     1      -2.193   1.470   0.609  0.00  0.00    +0.109 C 
ATOM     17  C   UNL     1      -2.168  -0.036   0.609  0.00  0.00    +0.214 C 
ATOM     18  O   UNL     1      -3.058  -0.658   1.150  0.00  0.00    -0.276 OA
ATOM     19  N   UNL     1      -1.156  -0.694   0.009  0.00  0.00    -0.286 N 
ATOM     20  H   UNL     1      -0.479  -0.200  -0.479  0.00  0.00    +0.155 HD
ENDBRANCH   5  19
ENDBRANCH   4   9
ENDBRANCH   3   4
ENDBRANCH   1   3
BRANCH   1  21
ATOM     21  C   UNL     1       1.189 -10.725   0.668  0.00  0.00    +0.183 C 
BRANCH  21  22
ATOM     22  N   UNL     1       2.512 -11.348   0.751  0.00  0.00    -0.298 N 
ATOM     23  C   UNL     1       2.686 -12.618   0.336  0.00  0.00    +0.245 C 
ATOM     24  O   UNL     1       1.746 -13.247  -0.108  0.00  0.00    -0.270 OA
ATOM     25  H   UNL     1       3.263 -10.846   1.105  0.00  0.00    +0.150 HD
BRANCH  23  26
ATOM     26  C   UNL     1       4.022 -13.247   0.420  0.00  0.00    +0.037 A 
ATOM     27  C   UNL     1       5.105 -12.526   0.924  0.00  0.00    +0.013 A 
ATOM     28  C   UNL     1       6.348 -13.120   1.004  0.00  0.00    +0.005 A 
ATOM     29  C   UNL     1       6.524 -14.424   0.576  0.00  0.00    -0.042 A 
ATOM     30  C   UNL     1       5.455 -15.143   0.071  0.00  0.00    +0.005 A 
ATOM     31  C   UNL     1       4.206 -14.562  -0.009  0.00  0.00    +0.013 A 
BRANCH  29  32
ATOM     32  C   UNL     1       7.885 -15.064   0.662  0.00  0.00    -0.013 C 
ATOM     33  C   UNL     1       8.343 -15.477  -0.739  0.00  0.00    +0.015 C 
ATOM     34  C   UNL     1       8.883 -14.065   1.250  0.00  0.00    +0.015 C 
ATOM     35  C   UNL     1       7.811 -16.301   1.560  0.00  0.00    +0.015 C 
ENDBRANCH  29  32
ENDBRANCH  23  26
ENDBRANCH  21  22
BRANCH  21  36
ATOM     36  C   UNL     1       0.375 -11.088   1.911  0.00  0.00    +0.044 C 
BRANCH  36  37
ATOM     37  C   UNL     1       0.112 -12.596   1.927  0.00  0.00    +0.071 C 
BRANCH  37  38
ATOM     38  S   UNL     1      -0.853 -13.026   3.401  0.00  0.00    -0.164 S 
ATOM     39  C   UNL     1      -1.075 -14.822   3.271  0.00  0.00    +0.084 C 
ENDBRANCH  37  38
ENDBRANCH  36  37
ENDBRANCH  21  36
ENDBRANCH   1  21
TORSDOF 11
