REMARK  Name = ZINC04229719
REMARK  6 active torsions:
REMARK  status: ('A' for Active; 'I' for Inactive)
REMARK    1  A    between atoms: C_1  and  C_2
REMARK    2  A    between atoms: C_5  and  C_9
REMARK    3  A    between atoms: C_6  and  C_8
REMARK    4  A    between atoms: N_10  and  N_11
REMARK    5  A    between atoms: C_12  and  C_14
REMARK    6  A    between atoms: C_20  and  C_22
REMARK                            x       y       z     vdW  Elec       q    Type
REMARK                         _______ _______ _______ _____ _____    ______ ____
ROOT
ATOM      1  C   UNL     1      -7.362   3.696   0.088  0.00  0.00    +0.306 C 
ATOM      2  O   UNL     1      -7.415   4.901   0.223  0.00  0.00    -0.265 OA
ATOM      3  N   UNL     1      -8.498   2.977  -0.003  0.00  0.00    -0.255 N 
ATOM      4  C   UNL     1      -9.728   3.614   0.057  0.00  0.00    +0.188 A 
ATOM      5  N   UNL     1     -10.015   4.902   0.205  0.00  0.00    -0.125 NA
ATOM      6  N   UNL     1     -11.205   5.321   0.236  0.00  0.00    -0.140 NA
ATOM      7  C   UNL     1     -12.241   4.496   0.134  0.00  0.00    +0.134 A 
ATOM      8  S   UNL     1     -11.382   2.934  -0.034  0.00  0.00    -0.030 S 
ATOM      9  H   UNL     1      -8.456   2.014  -0.111  0.00  0.00    +0.157 HD
ENDROOT
BRANCH   7  10
ATOM     10  C   UNL     1     -13.690   4.786   0.153  0.00  0.00    +0.009 A 
ATOM     11  C   UNL     1     -14.614   3.748   0.022  0.00  0.00    +0.010 A 
ATOM     12  C   UNL     1     -15.966   4.025   0.046  0.00  0.00    +0.001 A 
ATOM     13  C   UNL     1     -16.405   5.329   0.189  0.00  0.00    +0.000 A 
ATOM     14  C   UNL     1     -15.495   6.363   0.314  0.00  0.00    +0.001 A 
ATOM     15  C   UNL     1     -14.141   6.099   0.297  0.00  0.00    +0.010 A 
ENDBRANCH   7  10
BRANCH   1  17
ATOM     16  N   UNL     1      -4.903   3.729   0.114  0.00  0.00    -0.199 N 
ATOM     17  C   UNL     1      -6.039   3.010   0.023  0.00  0.00    +0.318 C 
ATOM     18  O   UNL     1      -5.986   1.804  -0.112  0.00  0.00    -0.263 OA
ATOM     19  H   UNL     1      -4.945   4.692   0.222  0.00  0.00    +0.178 HD
BRANCH  16  21
ATOM     20  C   UNL     1      -2.565   3.777   0.140  0.00  0.00    +0.138 C 
ATOM     21  N   UNL     1      -3.660   3.085   0.052  0.00  0.00    -0.187 NA
BRANCH  20  26
ATOM     22  C   UNL     1       2.536   1.134  -0.111  0.00  0.00    +0.044 C 
ATOM     23  C   UNL     1       1.200   1.827  -0.045  0.00  0.00    -0.050 A 
ATOM     24  C   UNL     1       1.139   3.183   0.225  0.00  0.00    +0.004 A 
ATOM     25  C   UNL     1      -0.080   3.823   0.287  0.00  0.00    +0.010 A 
ATOM     26  C   UNL     1      -1.257   3.100   0.076  0.00  0.00    -0.003 A 
ATOM     27  C   UNL     1      -1.188   1.732  -0.202  0.00  0.00    -0.042 A 
ATOM     28  C   UNL     1       0.039   1.104  -0.255  0.00  0.00    +0.007 A 
ATOM     29  C   UNL     1      -2.451   0.944  -0.437  0.00  0.00    +0.044 C 
ENDBRANCH  20  26
ENDBRANCH  16  21
ENDBRANCH   1  17
TORSDOF 4
