REMARK  Name = ZINC36076964
REMARK  9 active torsions:
REMARK  status: ('A' for Active; 'I' for Inactive)
REMARK    1  A    between atoms: C_1  and  C_2
REMARK    2  A    between atoms: C_8  and  O_9
REMARK    3  A    between atoms: C_18  and  C_20
REMARK    4  A    between atoms: C_20  and  N_21
REMARK    5  A    between atoms: N_21  and  C_22
REMARK    6  A    between atoms: N_21  and  C_30
REMARK    7  A    between atoms: C_22  and  C_23
REMARK    8  A    between atoms: C_23  and  C_24
REMARK    9  A    between atoms: C_30  and  C_31
REMARK                            x       y       z     vdW  Elec       q    Type
REMARK                         _______ _______ _______ _____ _____    ______ ____
ROOT
ATOM      1  C   UNL     1      -0.018   1.470   0.152  0.00  0.00    +0.045 C 
ATOM      2  C   UNL     1       0.011  -0.036   0.115  0.00  0.00    -0.031 A 
ATOM      3  C   UNL     1      -0.129  -0.710  -1.061  0.00  0.00    +0.048 A 
ATOM      4  C   UNL     1      -0.098  -2.116  -1.069  0.00  0.00    +0.126 A 
ATOM      5  N   UNL     1       0.067  -2.810   0.056  0.00  0.00    -0.231 NA
ATOM      6  C   UNL     1       0.207  -2.201   1.219  0.00  0.00    +0.091 A 
ATOM      7  C   UNL     1       0.191  -0.784   1.296  0.00  0.00    +0.084 A 
ATOM      8  C   UNL     1       0.348  -0.165   2.545  0.00  0.00    +0.294 A 
ATOM      9  O   UNL     1       0.517  -0.878   3.660  0.00  0.00    -0.424 OA
ATOM     10  C   UNL     1       0.550  -2.227   3.669  0.00  0.00    +0.141 A 
ATOM     11  C   UNL     1       0.391  -2.950   2.476  0.00  0.00    +0.044 A 
ATOM     12  C   UNL     1       0.424  -4.343   2.490  0.00  0.00    +0.014 A 
ATOM     13  C   UNL     1       0.597  -5.009   3.684  0.00  0.00    +0.001 A 
ATOM     14  C   UNL     1       0.737  -4.298   4.866  0.00  0.00    +0.004 A 
ATOM     15  C   UNL     1       0.729  -2.918   4.861  0.00  0.00    +0.047 A 
ATOM     16  N   UNL     1      -0.238  -2.775  -2.239  0.00  0.00    -0.269 N 
ATOM     17  C   UNL     1      -0.210  -4.096  -2.261  0.00  0.00    +0.232 C 
ATOM     18  O   UNL     1      -0.058  -4.719  -1.226  0.00  0.00    -0.274 OA
ATOM     19  H   UNL     1      -0.359  -2.279  -3.064  0.00  0.00    +0.156 HD
ENDROOT
BRANCH   8  20
ATOM     20  O   UNL     1       0.327   1.176   2.620  0.00  0.00    -0.480 OA
ATOM     21  H   UNL     1       0.442   1.522   3.516  0.00  0.00    +0.295 HD
ENDBRANCH   8  20
BRANCH  17  22
ATOM     22  C   UNL     1      -0.366  -4.832  -3.567  0.00  0.00    +0.181 C 
BRANCH  22  23
ATOM     23  N   UNL     1      -0.301  -6.279  -3.325  0.00  0.00    -0.289 NA
BRANCH  23  24
ATOM     24  C   UNL     1      -0.683  -7.032  -4.527  0.00  0.00    +0.090 C 
BRANCH  24  25
ATOM     25  C   UNL     1      -0.979  -8.484  -4.146  0.00  0.00    +0.050 C 
BRANCH  25  26
ATOM     26  C   UNL     1      -1.503  -9.223  -5.351  0.00  0.00    -0.046 A 
ATOM     27  C   UNL     1      -2.861  -9.250  -5.609  0.00  0.00    +0.003 A 
ATOM     28  C   UNL     1      -3.341  -9.927  -6.714  0.00  0.00    +0.000 A 
ATOM     29  C   UNL     1      -2.463 -10.576  -7.562  0.00  0.00    +0.000 A 
ATOM     30  C   UNL     1      -1.105 -10.548  -7.305  0.00  0.00    +0.000 A 
ATOM     31  C   UNL     1      -0.625  -9.867  -6.202  0.00  0.00    +0.003 A 
ENDBRANCH  25  26
ENDBRANCH  24  25
ENDBRANCH  23  24
BRANCH  23  32
ATOM     32  C   UNL     1       1.035  -6.675  -2.858  0.00  0.00    +0.120 C 
BRANCH  32  33
ATOM     33  C   UNL     1       2.072  -6.195  -3.840  0.00  0.00    -0.033 A 
ATOM     34  C   UNL     1       2.410  -6.979  -4.928  0.00  0.00    +0.005 A 
ATOM     35  C   UNL     1       3.362  -6.539  -5.828  0.00  0.00    +0.000 A 
ATOM     36  C   UNL     1       3.975  -5.314  -5.642  0.00  0.00    +0.000 A 
ATOM     37  C   UNL     1       3.637  -4.529  -4.555  0.00  0.00    +0.000 A 
ATOM     38  C   UNL     1       2.682  -4.968  -3.657  0.00  0.00    +0.005 A 
ENDBRANCH  32  33
ENDBRANCH  23  32
ENDBRANCH  22  23
ENDBRANCH  17  22
TORSDOF 8
