REMARK  Name = ZINC28285595
REMARK  6 active torsions:
REMARK  status: ('A' for Active; 'I' for Inactive)
REMARK    1  A    between atoms: C_1  and  C_2
REMARK    2  A    between atoms: C_2  and  C_4
REMARK    3  A    between atoms: C_2  and  N_15
REMARK    4  A    between atoms: C_16  and  C_18
REMARK    5  A    between atoms: C_21  and  N_24
REMARK    6  A    between atoms: C_25  and  C_27
REMARK                            x       y       z     vdW  Elec       q    Type
REMARK                         _______ _______ _______ _____ _____    ______ ____
ROOT
ATOM      1  C   UNL     1       1.147   3.184   0.024  0.00  0.00    +0.037 A 
ATOM      2  C   UNL     1       1.162   1.799  -0.167  0.00  0.00    +0.015 A 
ATOM      3  C   UNL     1      -0.020   1.093  -0.164  0.00  0.00    +0.024 A 
ATOM      4  C   UNL     1      -1.228   1.756   0.023  0.00  0.00    +0.034 A 
ATOM      5  C   UNL     1      -1.247   3.134   0.218  0.00  0.00    +0.024 A 
ATOM      6  C   UNL     1      -0.069   3.846   0.216  0.00  0.00    +0.015 A 
ENDROOT
BRANCH   1   8
ATOM      7  N   UNL     1       2.395   5.280   0.204  0.00  0.00    -0.305 N 
ATOM      8  C   UNL     1       2.411   3.945   0.021  0.00  0.00    +0.244 C 
ATOM      9  O   UNL     1       3.468   3.367  -0.147  0.00  0.00    -0.270 OA
ATOM     10  H   UNL     1       1.439   5.802   0.356  0.00  0.00    +0.149 HD
BRANCH   7  12
ATOM     11  C   UNL     1       4.271   5.998   1.600  0.00  0.00    +0.032 C 
ATOM     12  C   UNL     1       3.651   6.035   0.202  0.00  0.00    +0.114 C 
BRANCH  12  13
ATOM     13  C   UNL     1       3.372   7.486  -0.194  0.00  0.00    +0.231 C 
ATOM     14  C   UNL     1       4.695   8.255  -0.306  0.00  0.00    +0.275 C 
ATOM     15  O   UNL     1       4.397   9.610  -0.663  0.00  0.00    -0.485 OA
ATOM     16  C   UNL     1       3.397  10.219   0.029  0.00  0.00    +0.162 A 
ATOM     17  C   UNL     1       3.292  11.602  -0.002  0.00  0.00    +0.049 A 
ATOM     18  C   UNL     1       2.279  12.235   0.693  0.00  0.00    +0.004 A 
ATOM     19  C   UNL     1       1.368  11.493   1.421  0.00  0.00    +0.004 A 
ATOM     20  C   UNL     1       1.468  10.115   1.458  0.00  0.00    +0.049 A 
ATOM     21  C   UNL     1       2.483   9.473   0.763  0.00  0.00    +0.163 A 
ATOM     22  O   UNL     1       2.570   8.116   0.811  0.00  0.00    -0.480 OA
ENDBRANCH  12  13
ENDBRANCH   7  12
ENDBRANCH   1   8
BRANCH   4  23
ATOM     23  N   UNL     1      -2.424   1.038   0.020  0.00  0.00    -0.282 N 
ATOM     24  C   UNL     1      -3.548   1.603  -0.465  0.00  0.00    +0.261 C 
ATOM     25  O   UNL     1      -3.501   2.697  -0.986  0.00  0.00    -0.271 OA
ATOM     26  H   UNL     1      -2.450   0.011   0.413  0.00  0.00    +0.155 HD
BRANCH  24  27
ATOM     27  C   UNL     1      -4.862   0.874  -0.360  0.00  0.00    +0.296 C 
ATOM     28  C   UNL     1      -5.268   0.747   1.114  0.00  0.00    +0.283 C 
ATOM     29  O   UNL     1      -6.524   0.063   1.177  0.00  0.00    -0.484 OA
ATOM     30  C   UNL     1      -7.491   0.482   0.315  0.00  0.00    +0.162 A 
ATOM     31  C   UNL     1      -8.812   0.130   0.551  0.00  0.00    +0.049 A 
ATOM     32  C   UNL     1      -9.805   0.545  -0.316  0.00  0.00    +0.004 A 
ATOM     33  C   UNL     1      -9.484   1.311  -1.421  0.00  0.00    +0.004 A 
ATOM     34  C   UNL     1      -8.170   1.666  -1.662  0.00  0.00    +0.049 A 
ATOM     35  C   UNL     1      -7.169   1.254  -0.795  0.00  0.00    +0.163 A 
ATOM     36  O   UNL     1      -5.880   1.614  -1.043  0.00  0.00    -0.473 OA
ENDBRANCH  24  27
ENDBRANCH   4  23
TORSDOF 5
