REMARK  Name = ZINC12656023
REMARK  15 active torsions:
REMARK  status: ('A' for Active; 'I' for Inactive)
REMARK    1  A    between atoms: C_1  and  C_2
REMARK    2  A    between atoms: C_2  and  O_3
REMARK    3  A    between atoms: O_3  and  C_4
REMARK    4  A    between atoms: N_6  and  N_7
REMARK    5  A    between atoms: C_8  and  C_9
REMARK    6  A    between atoms: C_8  and  C_10
REMARK    7  A    between atoms: C_10  and  O_42
REMARK    8  A    between atoms: C_11  and  O_38
REMARK    9  A    between atoms: C_16  and  C_37
REMARK   10  A    between atoms: C_26  and  C_36
REMARK   11  A    between atoms: C_29  and  O_32
REMARK   12  A    between atoms: O_32  and  C_33
REMARK   13  A    between atoms: C_33  and  C_35
REMARK   14  A    between atoms: O_38  and  C_39
REMARK   15  A    between atoms: C_39  and  C_41
REMARK                            x       y       z     vdW  Elec       q    Type
REMARK                         _______ _______ _______ _____ _____    ______ ____
ROOT
ATOM      1  C   UNL     1       1.926   0.710  -3.738  0.00  0.00    +0.147 C 
ATOM      2  C   UNL     1       0.754   0.810  -4.750  0.00  0.00    +0.214 C 
ATOM      3  C   UNL     1      -0.512   1.163  -3.925  0.00  0.00    +0.052 C 
ATOM      4  C   UNL     1       0.073   1.640  -2.588  0.00  0.00    +0.005 C 
ATOM      5  C   UNL     1       1.226   0.646  -2.362  0.00  0.00    +0.009 C 
ATOM      6  C   UNL     1       2.089   1.070  -1.201  0.00  0.00    +0.010 C 
ATOM      7  C   UNL     1       1.244   1.717  -0.093  0.00  0.00    +0.005 C 
ATOM      8  C   UNL     1      -0.196   1.224  -0.144  0.00  0.00    +0.003 C 
ATOM      9  C   UNL     1      -0.867   1.740  -1.426  0.00  0.00    +0.001 C 
ATOM     10  C   UNL     1      -2.176   0.972  -1.600  0.00  0.00    +0.031 C 
ATOM     11  C   UNL     1      -3.005   1.221  -0.365  0.00  0.00    -0.027 C 
ATOM     12  C   UNL     1      -2.496   1.541   0.786  0.00  0.00    -0.064 C 
ATOM     13  C   UNL     1      -1.017   1.665   1.058  0.00  0.00    -0.008 C 
ATOM     14  C   UNL     1      -0.712   3.099   1.475  0.00  0.00    +0.015 C 
ATOM     15  C   UNL     1      -2.008   3.867   1.728  0.00  0.00    +0.046 C 
ATOM     16  C   UNL     1      -2.966   3.102   2.632  0.00  0.00    +0.180 C 
ATOM     17  C   UNL     1      -3.426   1.804   1.957  0.00  0.00    +0.075 C 
ATOM     18  C   UNL     1      -0.663   0.733   2.223  0.00  0.00    +0.016 C 
ATOM     19  C   UNL     1       0.741  -0.797  -2.192  0.00  0.00    +0.015 C 
ENDROOT
BRANCH   1  21
ATOM     20  N   UNL     1       3.934  -0.617  -3.572  0.00  0.00    -0.184 NA
ATOM     21  C   UNL     1       2.719  -0.545  -3.969  0.00  0.00    +0.069 C 
ATOM     22  C   UNL     1       2.083  -1.720  -4.667  0.00  0.00    +0.065 C 
BRANCH  20  25
ATOM     23  C   UNL     1       5.725   0.293  -2.295  0.00  0.00    +0.420 C 
ATOM     24  O   UNL     1       6.197   1.184  -1.617  0.00  0.00    -0.225 OA
ATOM     25  N   UNL     1       4.477   0.411  -2.791  0.00  0.00    -0.172 N 
ATOM     26  H   UNL     1       3.955   1.207  -2.606  0.00  0.00    +0.181 HD
BRANCH  23  27
ATOM     27  O   UNL     1       6.449  -0.813  -2.551  0.00  0.00    -0.450 OA
BRANCH  27  29
ATOM     28  C   UNL     1       8.449  -2.193  -2.382  0.00  0.00    +0.048 C 
ATOM     29  C   UNL     1       7.785  -0.872  -1.986  0.00  0.00    +0.230 C 
ENDBRANCH  27  29
ENDBRANCH  23  27
ENDBRANCH  20  25
ENDBRANCH   1  21
BRANCH   1  30
ATOM     30  O   UNL     1       2.756   1.864  -3.819  0.00  0.00    -0.378 OA
ATOM     31  H   UNL     1       3.220   1.956  -4.662  0.00  0.00    +0.211 HD
ENDBRANCH   1  30
BRANCH  16  32
ATOM     32  O   UNL     1      -2.321   2.798   3.896  0.00  0.00    -0.461 OA
BRANCH  32  33
ATOM     33  C   UNL     1      -3.104   2.754   4.984  0.00  0.00    +0.304 C 
ATOM     34  O   UNL     1      -4.290   2.963   4.884  0.00  0.00    -0.251 OA
ATOM     35  C   UNL     1      -2.505   2.443   6.332  0.00  0.00    +0.136 C 
ENDBRANCH  32  33
ENDBRANCH  16  32
BRANCH   2  36
ATOM     36  O   UNL     1       1.023   1.852  -5.723  0.00  0.00    -0.458 OA
BRANCH  36  37
ATOM     37  C   UNL     1       0.502   1.688  -6.949  0.00  0.00    +0.304 C 
ATOM     38  O   UNL     1      -0.156   0.707  -7.201  0.00  0.00    -0.251 OA
ATOM     39  C   UNL     1       0.740   2.729  -8.013  0.00  0.00    +0.136 C 
ENDBRANCH  36  37
ENDBRANCH   2  36
TORSDOF 9
