REMARK  Name = ZINC40645201
REMARK  9 active torsions:
REMARK  status: ('A' for Active; 'I' for Inactive)
REMARK    1  A    between atoms: C_1  and  C_2
REMARK    2  A    between atoms: C_3  and  C_28
REMARK    3  A    between atoms: C_9  and  N_25
REMARK    4  A    between atoms: C_10  and  N_14
REMARK    5  A    between atoms: N_14  and  C_15
REMARK    6  A    between atoms: C_17  and  C_23
REMARK    7  A    between atoms: C_17  and  C_24
REMARK    8  A    between atoms: C_19  and  C_21
REMARK    9  A    between atoms: C_19  and  C_22
REMARK                            x       y       z     vdW  Elec       q    Type
REMARK                         _______ _______ _______ _____ _____    ______ ____
ROOT
ATOM      1  C   UNL     1       0.615   1.662  -0.027  0.00  0.00    +0.066 C 
ATOM      2  C   UNL     1       0.529   0.158  -0.025  0.00  0.00    +0.050 A 
ATOM      3  C   UNL     1       0.484  -0.550  -1.180  0.00  0.00    +0.011 A 
ATOM      4  S   UNL     1       0.391  -2.217  -0.546  0.00  0.00    -0.057 S 
ATOM      5  C   UNL     1       0.418  -1.844   1.095  0.00  0.00    +0.164 A 
ATOM      6  N   UNL     1       0.499  -0.530   1.102  0.00  0.00    -0.230 NA
ATOM      7  N   UNL     1       0.372  -2.711   2.177  0.00  0.00    -0.277 N 
ATOM      8  C   UNL     1       0.405  -2.209   3.471  0.00  0.00    +0.160 A 
ATOM      9  C   UNL     1       0.365  -3.070   4.563  0.00  0.00    +0.205 A 
ATOM     10  C   UNL     1       0.401  -2.517   5.840  0.00  0.00    +0.155 A 
ATOM     11  N   UNL     1       0.472  -1.193   5.969  0.00  0.00    -0.218 NA
ATOM     12  C   UNL     1       0.508  -0.411   4.909  0.00  0.00    +0.225 A 
ATOM     13  N   UNL     1       0.482  -0.897   3.684  0.00  0.00    -0.218 NA
ATOM     14  C   UNL     1       0.506  -0.064  -2.606  0.00  0.00    +0.053 C 
ATOM     15  H   UNL     1       0.316  -3.668   2.030  0.00  0.00    +0.156 HD
ENDROOT
BRANCH   9  16
ATOM     16  N   UNL     1       0.286  -4.536   4.373  0.00  0.00    +0.063 N 
ATOM     17  O   UNL     1       1.299  -5.190   4.289  0.00  0.00    -0.126 OA
ATOM     18  O   UNL     1      -0.792  -5.078   4.301  0.00  0.00    -0.126 OA
ENDBRANCH   9  16
BRANCH  10  19
ATOM     19  N   UNL     1       0.363  -3.332   6.961  0.00  0.00    -0.324 N 
ATOM     20  H   UNL     1       0.311  -4.295   6.859  0.00  0.00    +0.148 HD
BRANCH  19  21
ATOM     21  C   UNL     1       0.402  -2.736   8.303  0.00  0.00    +0.069 C 
ATOM     22  C   UNL     1       1.859  -2.535   8.721  0.00  0.00    +0.009 C 
ATOM     23  C   UNL     1       1.917  -1.927  10.122  0.00  0.00    -0.072 C 
ATOM     24  N   UNL     1       1.161  -2.709  11.090  0.00  0.00    +0.386 N 
ATOM     25  C   UNL     1      -0.177  -3.137  10.715  0.00  0.00    -0.072 C 
ATOM     26  C   UNL     1      -0.255  -3.693   9.297  0.00  0.00    +0.009 C 
ATOM     27  C   UNL     1      -0.586  -4.278  11.678  0.00  0.00    -0.010 C 
ATOM     28  C   UNL     1      -1.202  -2.014  10.893  0.00  0.00    -0.010 C 
ATOM     29  C   UNL     1       3.398  -1.939  10.567  0.00  0.00    -0.010 C 
ATOM     30  C   UNL     1       1.467  -0.467  10.084  0.00  0.00    -0.010 C 
ATOM     31  H   UNL     1       1.709  -3.538  11.331  0.00  0.00    -0.084 HD
ATOM     32  H   UNL     1       1.096  -2.170  11.957  0.00  0.00    -0.084 HD
ENDBRANCH  19  21
ENDBRANCH  10  19
TORSDOF 3
