REMARK  Name = ZINC35991420
REMARK  11 active torsions:
REMARK  status: ('A' for Active; 'I' for Inactive)
REMARK    1  A    between atoms: C_1  and  C_2
REMARK    2  A    between atoms: C_2  and  N_3
REMARK    3  A    between atoms: N_6  and  C_9
REMARK    4  A    between atoms: C_9  and  C_10
REMARK    5  A    between atoms: C_11  and  C_27
REMARK    6  A    between atoms: C_12  and  C_20
REMARK    7  A    between atoms: N_17  and  C_18
REMARK    8  A    between atoms: C_18  and  C_19
REMARK    9  A    between atoms: C_27  and  O_29
REMARK   10  A    between atoms: O_29  and  C_30
REMARK   11  A    between atoms: C_30  and  C_31
REMARK                            x       y       z     vdW  Elec       q    Type
REMARK                         _______ _______ _______ _____ _____    ______ ____
ROOT
ATOM      1  C   UNL     1       1.682  -4.079   4.803  0.00  0.00    +0.041 C 
ATOM      2  C   UNL     1       2.667  -4.951   4.499  0.00  0.00    +0.080 C 
ATOM      3  C   UNL     1       2.348  -6.430   4.575  0.00  0.00    +0.145 C 
ATOM      4  N   UNL     1       0.979  -6.798   4.977  0.00  0.00    -0.288 N 
ATOM      5  C   UNL     1       0.104  -5.810   5.249  0.00  0.00    +0.307 C 
ATOM      6  O   UNL     1      -1.028  -6.103   5.582  0.00  0.00    -0.252 OA
ATOM      7  N   UNL     1       0.442  -4.517   5.171  0.00  0.00    -0.258 N 
ATOM      8  H   UNL     1       0.714  -7.728   5.043  0.00  0.00    +0.151 HD
ENDROOT
BRANCH   3   9
ATOM      9  C   UNL     1       2.610  -7.032   3.219  0.00  0.00    -0.004 A 
ATOM     10  C   UNL     1       1.587  -7.128   2.295  0.00  0.00    +0.007 A 
ATOM     11  C   UNL     1       1.827  -7.681   1.051  0.00  0.00    +0.000 A 
ATOM     12  C   UNL     1       3.092  -8.137   0.730  0.00  0.00    +0.001 A 
ATOM     13  C   UNL     1       4.117  -8.042   1.652  0.00  0.00    +0.020 A 
ATOM     14  C   UNL     1       3.877  -7.484   2.896  0.00  0.00    +0.046 A 
ATOM     15 CL   UNL     1       5.165  -7.357   4.053  0.00  0.00    -0.083 Cl
ENDBRANCH   3   9
BRANCH   7  16
ATOM     16  C   UNL     1      -0.577  -3.515   5.493  0.00  0.00    +0.111 C 
ATOM     17  C   UNL     1      -1.349  -3.147   4.225  0.00  0.00    +0.025 C 
ENDBRANCH   7  16
BRANCH   2  18
ATOM     18  C   UNL     1       3.954  -4.499   4.122  0.00  0.00    +0.339 C 
ATOM     19  O   UNL     1       4.252  -4.426   2.945  0.00  0.00    -0.245 OA
BRANCH  18  20
ATOM     20  O   UNL     1       4.850  -4.149   5.069  0.00  0.00    -0.462 OA
BRANCH  20  21
ATOM     21  C   UNL     1       6.130  -3.702   4.617  0.00  0.00    +0.229 C 
ATOM     22  C   UNL     1       7.003  -3.353   5.823  0.00  0.00    +0.048 C 
ENDBRANCH  20  21
ENDBRANCH  18  20
ENDBRANCH   2  18
BRANCH   1  23
ATOM     23  C   UNL     1       1.957  -2.599   4.740  0.00  0.00    +0.136 C 
BRANCH  23  27
ATOM     24  N   UNL     1       0.888  -0.437   1.269  0.00  0.00    +0.381 N 
ATOM     25  C   UNL     1       0.386   0.043   2.563  0.00  0.00    -0.063 C 
ATOM     26  C   UNL     1       1.244  -0.536   3.690  0.00  0.00    +0.066 C 
ATOM     27  N   UNL     1       1.190  -2.004   3.638  0.00  0.00    -0.300 NA
ATOM     28  C   UNL     1       1.666  -2.498   2.338  0.00  0.00    +0.066 C 
ATOM     29  C   UNL     1       0.804  -1.903   1.223  0.00  0.00    -0.063 C 
ATOM     30  H   UNL     1       1.849  -0.151   1.154  0.00  0.00    -0.082 HD
BRANCH  24  32
ATOM     31  C   UNL     1       0.260   1.653   0.157  0.00  0.00    -0.017 C 
ATOM     32  C   UNL     1       0.075   0.134   0.187  0.00  0.00    -0.082 C 
ENDBRANCH  24  32
ENDBRANCH  23  27
ENDBRANCH   1  23
TORSDOF 8
