REMARK  Name = ZINC03049468
REMARK  3 active torsions:
REMARK  status: ('A' for Active; 'I' for Inactive)
REMARK    1  A    between atoms: C_4  and  C_7
REMARK    2  A    between atoms: N_11  and  C_19
REMARK    3  A    between atoms: C_19  and  C_20
REMARK                            x       y       z     vdW  Elec       q    Type
REMARK                         _______ _______ _______ _____ _____    ______ ____
ROOT
ATOM      1  C   UNL     1       3.382  10.881  -5.873  0.00  0.00    +0.028 C 
ATOM      2  C   UNL     1       2.338  11.170  -5.060  0.00  0.00    +0.076 C 
ATOM      3  C   UNL     1       1.529  10.109  -4.420  0.00  0.00    +0.258 C 
ATOM      4  O   UNL     1       1.431   9.020  -4.952  0.00  0.00    -0.269 OA
ATOM      5  N   UNL     1       0.899  10.340  -3.264  0.00  0.00    -0.257 N 
ATOM      6  C   UNL     1       0.990  11.487  -2.486  0.00  0.00    +0.051 A 
ATOM      7  C   UNL     1       0.636  11.406  -1.139  0.00  0.00    +0.024 A 
ATOM      8  C   UNL     1       0.713  12.520  -0.329  0.00  0.00    +0.002 A 
ATOM      9  C   UNL     1       1.141  13.732  -0.839  0.00  0.00    +0.001 A 
ATOM     10  C   UNL     1       1.495  13.830  -2.172  0.00  0.00    +0.017 A 
ATOM     11  C   UNL     1       1.419  12.715  -2.991  0.00  0.00    +0.034 A 
ATOM     12  S   UNL     1       1.867  12.841  -4.696  0.00  0.00    -0.082 S 
ENDROOT
BRANCH   1  16
ATOM     13  C   UNL     1       5.342  13.985  -7.995  0.00  0.00    +0.000 A 
ATOM     14  C   UNL     1       6.068  12.899  -7.539  0.00  0.00    +0.001 A 
ATOM     15  C   UNL     1       5.438  11.885  -6.849  0.00  0.00    +0.008 A 
ATOM     16  C   UNL     1       4.062  11.957  -6.609  0.00  0.00    -0.024 A 
ATOM     17  C   UNL     1       3.334  13.056  -7.078  0.00  0.00    +0.008 A 
ATOM     18  C   UNL     1       3.980  14.064  -7.762  0.00  0.00    +0.001 A 
ENDBRANCH   1  16
BRANCH   5  19
ATOM     19  C   UNL     1       0.030   9.272  -2.764  0.00  0.00    +0.209 C 
BRANCH  19  20
ATOM     20  C   UNL     1       0.844   8.304  -1.944  0.00  0.00    +0.233 C 
ATOM     21  O   UNL     1       2.034   8.488  -1.793  0.00  0.00    -0.274 OA
ATOM     22  N   UNL     1       0.251   7.234  -1.379  0.00  0.00    -0.297 N 
ATOM     23  C   UNL     1       1.027   6.277  -0.576  0.00  0.00    +0.126 C 
ATOM     24  C   UNL     1       0.741   4.863  -1.093  0.00  0.00    +0.125 C 
ATOM     25  N   UNL     1      -0.710   4.633  -1.103  0.00  0.00    -0.314 N 
ATOM     26  C   UNL     1      -1.388   5.550  -2.028  0.00  0.00    +0.125 C 
ATOM     27  C   UNL     1      -1.190   6.992  -1.550  0.00  0.00    +0.126 C 
ATOM     28  C   UNL     1      -1.002   3.309  -1.411  0.00  0.00    +0.099 A 
ATOM     29  C   UNL     1      -2.328   2.891  -1.469  0.00  0.00    +0.042 A 
ATOM     30  C   UNL     1      -2.604   1.573  -1.781  0.00  0.00    +0.005 A 
ATOM     31  C   UNL     1      -1.541   0.710  -2.014  0.00  0.00    +0.018 A 
ATOM     32  C   UNL     1      -0.250   1.192  -1.940  0.00  0.00    +0.084 A 
ATOM     33  N   UNL     1      -0.016   2.457  -1.645  0.00  0.00    -0.350 N 
ATOM     34  H   UNL     1       1.029   2.798  -1.596  0.00  0.00    +0.166 HD
ENDBRANCH  19  20
ENDBRANCH   5  19
TORSDOF 3
