REMARK  Name = ZINC39836369
REMARK  10 active torsions:
REMARK  status: ('A' for Active; 'I' for Inactive)
REMARK    1  A    between atoms: C_1  and  C_2
REMARK    2  A    between atoms: C_2  and  C_3
REMARK    3  A    between atoms: C_3  and  C_4
REMARK    4  A    between atoms: C_4  and  O_5
REMARK    5  A    between atoms: O_5  and  C_6
REMARK    6  A    between atoms: C_10  and  C_12
REMARK    7  A    between atoms: N_14  and  C_15
REMARK    8  A    between atoms: C_16  and  C_26
REMARK    9  A    between atoms: C_21  and  C_25
REMARK   10  A    between atoms: N_28  and  C_29
REMARK                            x       y       z     vdW  Elec       q    Type
REMARK                         _______ _______ _______ _____ _____    ______ ____
ROOT
ATOM      1  C   UNL     1       3.689  -8.143  -6.332  0.00  0.00    +0.085 A 
ATOM      2  C   UNL     1       3.882  -9.477  -6.657  0.00  0.00    +0.069 A 
ATOM      3  C   UNL     1       4.591  -9.763  -7.892  0.00  0.00    -0.023 A 
ATOM      4  C   UNL     1       4.978  -8.664  -8.575  0.00  0.00    -0.004 A 
ATOM      5  S   UNL     1       4.404  -7.305  -7.600  0.00  0.00    -0.077 S 
ATOM      6  C   UNL     1       5.725  -8.628  -9.872  0.00  0.00    +0.046 C 
ATOM      7  C   UNL     1       6.318 -10.022 -10.127  0.00  0.00    -0.009 C 
ATOM      8  C   UNL     1       5.228 -11.073  -9.899  0.00  0.00    +0.008 C 
ATOM      9  C   UNL     1       4.893 -11.162  -8.408  0.00  0.00    +0.037 C 
ATOM     10  C   UNL     1       6.824 -10.108 -11.568  0.00  0.00    +0.008 C 
ENDROOT
BRANCH   1  13
ATOM     11  C   UNL     1       2.946  -6.286  -5.066  0.00  0.00    +0.249 C 
ATOM     12  O   UNL     1       3.416  -5.540  -5.903  0.00  0.00    -0.270 OA
ATOM     13  N   UNL     1       3.048  -7.621  -5.221  0.00  0.00    -0.275 N 
ATOM     14  H   UNL     1       2.672  -8.216  -4.553  0.00  0.00    +0.156 HD
BRANCH  11  19
ATOM     15  C   UNL     1       1.514  -3.833  -2.603  0.00  0.00    +0.121 A 
ATOM     16  C   UNL     1       0.979  -4.691  -1.652  0.00  0.00    +0.046 A 
ATOM     17  C   UNL     1       1.083  -6.061  -1.812  0.00  0.00    +0.004 A 
ATOM     18  C   UNL     1       1.721  -6.584  -2.918  0.00  0.00    +0.013 A 
ATOM     19  C   UNL     1       2.262  -5.729  -3.880  0.00  0.00    +0.040 A 
ATOM     20  C   UNL     1       2.150  -4.348  -3.720  0.00  0.00    +0.058 A 
BRANCH  15  21
ATOM     21  O   UNL     1       1.408  -2.488  -2.441  0.00  0.00    -0.492 OA
BRANCH  21  22
ATOM     22  C   UNL     1       0.739  -2.027  -1.265  0.00  0.00    +0.229 C 
BRANCH  22  23
ATOM     23  C   UNL     1       0.718  -0.497  -1.257  0.00  0.00    +0.041 C 
BRANCH  23  25
ATOM     24  C   UNL     1      -0.019   1.526   0.010  0.00  0.00    +0.004 C 
ATOM     25  C   UNL     1       0.002  -0.004   0.002  0.00  0.00    -0.000 C 
ENDBRANCH  23  25
ENDBRANCH  22  23
ENDBRANCH  21  22
ENDBRANCH  15  21
ENDBRANCH  11  19
ENDBRANCH   1  13
BRANCH   2  26
ATOM     26  C   UNL     1       3.390 -10.553  -5.791  0.00  0.00    +0.247 C 
ATOM     27  O   UNL     1       2.272 -11.004  -5.956  0.00  0.00    -0.270 OA
ATOM     28  N   UNL     1       4.177 -11.042  -4.812  0.00  0.00    -0.307 N 
ATOM     29  H   UNL     1       5.068 -10.682  -4.680  0.00  0.00    +0.149 HD
BRANCH  28  30
ATOM     30  C   UNL     1       3.686 -12.117  -3.946  0.00  0.00    +0.096 C 
ATOM     31  C   UNL     1       3.948 -13.474  -4.620  0.00  0.00    +0.046 C 
ATOM     32  C   UNL     1       3.713 -14.592  -3.564  0.00  0.00    +0.168 C 
ATOM     33  S   UNL     1       4.483 -13.821  -2.079  0.00  0.00    -0.029 S 
ATOM     34  O   UNL     1       5.843 -14.228  -1.999  0.00  0.00    -0.174 OA
ATOM     35  O   UNL     1       3.629 -14.015  -0.960  0.00  0.00    -0.174 OA
ATOM     36  C   UNL     1       4.418 -12.055  -2.584  0.00  0.00    +0.188 C 
ENDBRANCH  28  30
ENDBRANCH   2  26
TORSDOF 8
