REMARK  Name = ZINC36562129
REMARK  14 active torsions:
REMARK  status: ('A' for Active; 'I' for Inactive)
REMARK    1  A    between atoms: C_1  and  C_2
REMARK    2  A    between atoms: C_2  and  C_3
REMARK    3  A    between atoms: C_3  and  N_4
REMARK    4  A    between atoms: N_4  and  C_5
REMARK    5  A    between atoms: C_5  and  C_7
REMARK    6  A    between atoms: C_5  and  C_12
REMARK    7  A    between atoms: N_14  and  C_15
REMARK    8  A    between atoms: C_15  and  S_16
REMARK    9  A    between atoms: S_16  and  C_19
REMARK   10  A    between atoms: C_22  and  C_25
REMARK   11  A    between atoms: C_26  and  C_28
REMARK   12  A    between atoms: C_36  and  C_38
REMARK   13  A    between atoms: C_39  and  C_40
REMARK   14  A    between atoms: C_39  and  C_41
REMARK                            x       y       z     vdW  Elec       q    Type
REMARK                         _______ _______ _______ _____ _____    ______ ____
ROOT
ATOM      1  C   UNL     1      -2.530  -2.903   0.903  0.00  0.00    +0.228 C 
ENDROOT
BRANCH   1   2
ATOM      2  C   UNL     1      -1.914  -2.629   2.251  0.00  0.00    +0.134 A 
ATOM      3  C   UNL     1      -1.463  -3.558   3.113  0.00  0.00    +0.047 A 
ATOM      4  C   UNL     1      -0.970  -2.865   4.242  0.00  0.00    +0.041 A 
ATOM      5  C   UNL     1      -1.149  -1.553   4.003  0.00  0.00    +0.195 A 
ATOM      6  O   UNL     1      -1.716  -1.416   2.793  0.00  0.00    -0.465 OA
ENDBRANCH   1   2
BRANCH   1   7
ATOM      7  C   UNL     1      -3.966  -2.444   0.905  0.00  0.00    +0.242 C 
ATOM      8  O   UNL     1      -4.332  -1.595   0.120  0.00  0.00    -0.273 OA
ATOM      9  N   UNL     1      -4.843  -2.977   1.779  0.00  0.00    -0.294 N 
ATOM     10  H   UNL     1      -4.550  -3.656   2.406  0.00  0.00    +0.150 HD
BRANCH   9  11
ATOM     11  C   UNL     1      -6.238  -2.530   1.780  0.00  0.00    +0.278 C 
BRANCH  11  12
ATOM     12  S   UNL     1      -7.234  -3.653   0.761  0.00  0.00    +0.013 S 
ATOM     13  O   UNL     1      -8.601  -3.270   0.803  0.00  0.00    -0.168 OA
ATOM     14  O   UNL     1      -6.586  -3.891  -0.481  0.00  0.00    -0.168 OA
BRANCH  12  15
ATOM     15  C   UNL     1      -7.174  -5.201   1.602  0.00  0.00    +0.090 A 
ATOM     16  C   UNL     1      -6.170  -6.106   1.313  0.00  0.00    +0.027 A 
ATOM     17  C   UNL     1      -6.123  -7.320   1.973  0.00  0.00    +0.005 A 
ATOM     18  C   UNL     1      -7.080  -7.628   2.922  0.00  0.00    -0.050 A 
ATOM     19  C   UNL     1      -8.083  -6.722   3.211  0.00  0.00    +0.005 A 
ATOM     20  C   UNL     1      -8.127  -5.507   2.555  0.00  0.00    +0.027 A 
ATOM     21  C   UNL     1      -7.029  -8.952   3.640  0.00  0.00    +0.044 C 
ENDBRANCH  12  15
ENDBRANCH  11  12
ENDBRANCH   9  11
ENDBRANCH   1   7
BRANCH   1  22
ATOM     22  N   UNL     1      -1.787  -2.178  -0.130  0.00  0.00    -0.283 N 
ATOM     23  C   UNL     1      -1.296  -2.840  -1.196  0.00  0.00    +0.220 C 
ATOM     24  O   UNL     1      -0.659  -2.244  -2.039  0.00  0.00    -0.275 OA
BRANCH  23  25
ATOM     25  C   UNL     1      -1.540  -4.331  -1.342  0.00  0.00    +0.079 C 
ATOM     26  C   UNL     1      -0.512  -5.081  -0.503  0.00  0.00    +0.017 C 
ATOM     27  C   UNL     1      -0.038  -6.373  -1.167  0.00  0.00    -0.004 C 
ATOM     28  C   UNL     1       0.595  -6.097  -2.548  0.00  0.00    +0.008 C 
ATOM     29  C   UNL     1      -0.874  -6.086  -3.043  0.00  0.00    -0.001 C 
ATOM     30  C   UNL     1      -1.471  -4.697  -2.820  0.00  0.00    +0.001 C 
ATOM     31  C   UNL     1      -2.853  -4.589  -3.469  0.00  0.00    +0.008 C 
ATOM     32  C   UNL     1      -1.136  -7.114  -1.941  0.00  0.00    -0.029 C 
ATOM     33  C   UNL     1      -0.728  -8.547  -2.338  0.00  0.00    +0.011 C 
ATOM     34  C   UNL     1      -2.517  -7.104  -1.295  0.00  0.00    +0.011 C 
ENDBRANCH  23  25
BRANCH  22  35
ATOM     35  C   UNL     1      -1.577  -0.734  -0.004  0.00  0.00    +0.109 C 
BRANCH  35  37
ATOM     36  C   UNL     1       0.045   1.038   0.682  0.00  0.00    +0.005 C 
ATOM     37  C   UNL     1      -0.206  -0.470   0.622  0.00  0.00    +0.016 C 
ENDBRANCH  35  37
ENDBRANCH  22  35
ENDBRANCH   1  22
TORSDOF 9
