REMARK  Name = ZINC02096837
REMARK  4 active torsions:
REMARK  status: ('A' for Active; 'I' for Inactive)
REMARK    1  A    between atoms: C_1  and  C_2
REMARK    2  A    between atoms: N_21  and  C_24
REMARK    3  A    between atoms: C_24  and  C_25
REMARK    4  A    between atoms: C_25  and  C_26
REMARK                            x       y       z     vdW  Elec       q    Type
REMARK                         _______ _______ _______ _____ _____    ______ ____
ROOT
ATOM      1  C   UNL     1      -0.439  -0.523  -1.368  0.00  0.00    +0.035 C 
ATOM      2  C   UNL     1       0.002  -0.004   0.002  0.00  0.00    +0.121 C 
ATOM      3  C   UNL     1      -0.018   1.508   0.010  0.00  0.00    +0.041 A 
ATOM      4  C   UNL     1       1.097   2.269   0.004  0.00  0.00    -0.015 A 
ATOM      5  C   UNL     1       0.666   3.652   0.013  0.00  0.00    +0.003 A 
ATOM      6  C   UNL     1       1.367   4.862   0.010  0.00  0.00    +0.010 A 
ATOM      7  C   UNL     1       0.617   6.013   0.024  0.00  0.00    +0.001 A 
ATOM      8  C   UNL     1      -0.768   5.988   0.040  0.00  0.00    +0.002 A 
ATOM      9  C   UNL     1      -1.486   4.805   0.042  0.00  0.00    +0.026 A 
ATOM     10  C   UNL     1      -0.751   3.621   0.027  0.00  0.00    +0.047 A 
ATOM     11  N   UNL     1      -1.129   2.309   0.019  0.00  0.00    -0.356 N 
ATOM     12  H   UNL     1      -2.046   1.992   0.021  0.00  0.00    +0.166 HD
ATOM     13  C   UNL     1       2.505   1.729  -0.008  0.00  0.00    +0.069 C 
ATOM     14  C   UNL     1       2.468   0.256  -0.439  0.00  0.00    +0.167 C 
ATOM     15  N   UNL     1       1.392  -0.428   0.277  0.00  0.00    -0.280 N 
ATOM     16  C   UNL     1       1.608  -1.405   1.160  0.00  0.00    +0.234 C 
ATOM     17  O   UNL     1       0.649  -1.857   1.749  0.00  0.00    -0.274 OA
ATOM     18  C   UNL     1       2.952  -1.978   1.473  0.00  0.00    +0.203 C 
ATOM     19  N   UNL     1       4.004  -1.371   0.675  0.00  0.00    -0.291 N 
ATOM     20  C   UNL     1       3.800  -0.374  -0.184  0.00  0.00    +0.237 C 
ATOM     21  O   UNL     1       4.755   0.049  -0.800  0.00  0.00    -0.274 OA
ENDROOT
BRANCH  19  22
ATOM     22  C   UNL     1       5.367  -1.884   0.826  0.00  0.00    +0.112 C 
BRANCH  22  23
ATOM     23  C   UNL     1       6.087  -1.106   1.929  0.00  0.00    +0.049 C 
BRANCH  23  24
ATOM     24  C   UNL     1       7.489  -1.633   2.084  0.00  0.00    -0.072 C 
ATOM     25  C   UNL     1       8.440  -1.027   1.448  0.00  0.00    -0.028 C 
ATOM     26  C   UNL     1       9.881  -1.441   1.496  0.00  0.00    +0.027 C 
ATOM     27  C   UNL     1      10.125  -2.366   2.690  0.00  0.00    +0.004 C 
ATOM     28  C   UNL     1       9.058  -3.468   2.676  0.00  0.00    +0.005 C 
ATOM     29  C   UNL     1       7.699  -2.826   2.971  0.00  0.00    +0.030 C 
ENDBRANCH  23  24
ENDBRANCH  22  23
ENDBRANCH  19  22
TORSDOF 3
