REMARK  Name = ZINC09036389
REMARK  4 active torsions:
REMARK  status: ('A' for Active; 'I' for Inactive)
REMARK    1  A    between atoms: C_3  and  C_6
REMARK    2  A    between atoms: C_14  and  N_18
REMARK    3  A    between atoms: C_19  and  C_21
REMARK    4  A    between atoms: C_23  and  N_28
REMARK                            x       y       z     vdW  Elec       q    Type
REMARK                         _______ _______ _______ _____ _____    ______ ____
ROOT
ATOM      1  C   UNL     1      -8.894  -5.882   1.664  0.00  0.00    +0.282 C 
ATOM      2  O   UNL     1      -9.993  -6.365   1.863  0.00  0.00    -0.267 OA
ATOM      3  N   UNL     1      -8.747  -4.890   0.763  0.00  0.00    -0.290 N 
ATOM      4  C   UNL     1      -9.906  -4.320   0.057  0.00  0.00    +0.113 C 
ATOM      5  C   UNL     1     -10.035  -2.855   0.471  0.00  0.00    +0.054 C 
ATOM      6  C   UNL     1      -8.704  -2.155   0.391  0.00  0.00    -0.041 A 
ATOM      7  C   UNL     1      -8.710  -0.767   0.318  0.00  0.00    +0.006 A 
ATOM      8  C   UNL     1      -7.529  -0.060   0.274  0.00  0.00    +0.023 A 
ATOM      9  C   UNL     1      -6.317  -0.740   0.290  0.00  0.00    +0.034 A 
ATOM     10  C   UNL     1      -6.311  -2.124   0.356  0.00  0.00    +0.028 A 
ATOM     11  C   UNL     1      -7.504  -2.831   0.402  0.00  0.00    -0.025 A 
ATOM     12  C   UNL     1      -7.426  -4.337   0.447  0.00  0.00    +0.143 C 
ENDROOT
BRANCH   1  15
ATOM     13  C   UNL     1      -6.425  -7.467   3.836  0.00  0.00    +0.042 A 
ATOM     14  C   UNL     1      -7.755  -7.280   3.429  0.00  0.00    +0.054 A 
ATOM     15  C   UNL     1      -7.730  -6.379   2.404  0.00  0.00    +0.189 A 
ATOM     16  O   UNL     1      -6.446  -6.022   2.194  0.00  0.00    -0.458 OA
ATOM     17  C   UNL     1      -5.656  -6.676   3.055  0.00  0.00    +0.196 A 
ENDBRANCH   1  15
BRANCH   9  18
ATOM     18  N   UNL     1      -5.112  -0.032   0.245  0.00  0.00    -0.281 N 
ATOM     19  C   UNL     1      -5.034   1.122  -0.448  0.00  0.00    +0.250 C 
ATOM     20  O   UNL     1      -5.981   1.498  -1.111  0.00  0.00    -0.270 OA
ATOM     21  H   UNL     1      -4.333  -0.371   0.712  0.00  0.00    +0.155 HD
BRANCH  19  22
ATOM     22  C   UNL     1      -3.797   1.929  -0.402  0.00  0.00    +0.057 A 
ATOM     23  C   UNL     1      -2.707   1.499   0.359  0.00  0.00    +0.047 A 
ATOM     24  C   UNL     1      -1.556   2.256   0.397  0.00  0.00    +0.127 A 
ATOM     25  C   UNL     1      -1.479   3.443  -0.311  0.00  0.00    +0.034 A 
ATOM     26  C   UNL     1      -2.552   3.873  -1.071  0.00  0.00    +0.023 A 
ATOM     27  C   UNL     1      -3.712   3.124  -1.119  0.00  0.00    +0.053 A 
ATOM     28 CL   UNL     1      -5.060   3.668  -2.068  0.00  0.00    -0.083 Cl
BRANCH  24  29
ATOM     29  N   UNL     1      -0.400   1.802   1.203  0.00  0.00    +0.056 N 
ATOM     30  O   UNL     1      -0.467   0.760   1.831  0.00  0.00    -0.126 OA
ATOM     31  O   UNL     1       0.620   2.467   1.234  0.00  0.00    -0.126 OA
ENDBRANCH  24  29
ENDBRANCH  19  22
ENDBRANCH   9  18
TORSDOF 4
