REMARK  Name = ZINC38700635
REMARK  10 active torsions:
REMARK  status: ('A' for Active; 'I' for Inactive)
REMARK    1  A    between atoms: C_1  and  C_2
REMARK    2  A    between atoms: C_2  and  C_3
REMARK    3  A    between atoms: C_3  and  O_4
REMARK    4  A    between atoms: O_4  and  C_5
REMARK    5  A    between atoms: C_10  and  C_11
REMARK    6  A    between atoms: C_16  and  O_25
REMARK    7  A    between atoms: C_20  and  N_24
REMARK    8  A    between atoms: C_21  and  C_22
REMARK    9  A    between atoms: O_25  and  C_26
REMARK   10  A    between atoms: C_26  and  C_28
REMARK                            x       y       z     vdW  Elec       q    Type
REMARK                         _______ _______ _______ _____ _____    ______ ____
ROOT
ATOM      1  C   UNL     1      -1.438  -4.830  -0.037  0.00  0.00    +0.101 C 
ATOM      2  C   UNL     1      -1.371  -5.687   1.200  0.00  0.00    +0.008 A 
ATOM      3  C   UNL     1      -0.948  -5.128   2.392  0.00  0.00    +0.012 A 
ATOM      4  C   UNL     1      -0.881  -5.897   3.537  0.00  0.00    +0.047 A 
ATOM      5  C   UNL     1      -1.239  -7.238   3.493  0.00  0.00    +0.135 A 
ATOM      6  C   UNL     1      -1.663  -7.801   2.300  0.00  0.00    +0.093 A 
ATOM      7  C   UNL     1      -1.730  -7.024   1.150  0.00  0.00    +0.138 A 
ATOM      8  O   UNL     1      -2.147  -7.590  -0.009  0.00  0.00    -0.441 OA
ATOM      9  C   UNL     1      -1.861  -7.002  -1.183  0.00  0.00    +0.199 C 
ATOM     10  C   UNL     1      -1.520  -5.697  -1.262  0.00  0.00    +0.098 C 
ENDROOT
BRANCH   1  16
ATOM     11  C   UNL     1      -2.517  -2.567   0.016  0.00  0.00    +0.125 A 
ATOM     12  C   UNL     1      -3.642  -1.757   0.075  0.00  0.00    +0.046 A 
ATOM     13  C   UNL     1      -4.898  -2.326   0.153  0.00  0.00    +0.004 A 
ATOM     14  C   UNL     1      -5.035  -3.702   0.174  0.00  0.00    +0.001 A 
ATOM     15  C   UNL     1      -3.915  -4.512   0.116  0.00  0.00    +0.008 A 
ATOM     16  C   UNL     1      -2.657  -3.947   0.032  0.00  0.00    +0.007 A 
BRANCH  11  17
ATOM     17  O   UNL     1      -1.280  -2.010  -0.061  0.00  0.00    -0.492 OA
BRANCH  17  18
ATOM     18  C   UNL     1      -1.211  -0.583  -0.073  0.00  0.00    +0.229 C 
BRANCH  18  20
ATOM     19  C   UNL     1       0.325   1.385  -0.176  0.00  0.00    +0.007 C 
ATOM     20  C   UNL     1       0.252  -0.143  -0.164  0.00  0.00    +0.038 C 
ENDBRANCH  18  20
ENDBRANCH  17  18
ENDBRANCH  11  17
ENDBRANCH   1  16
BRANCH   9  21
ATOM     21  N   UNL     1      -1.919  -7.748  -2.334  0.00  0.00    -0.328 N 
ATOM     22  H   UNL     1      -2.163  -8.686  -2.292  0.00  0.00    +0.145 HD
ATOM     23  H   UNL     1      -1.715  -7.337  -3.189  0.00  0.00    +0.145 HD
ENDBRANCH   9  21
BRANCH  10  24
ATOM     24  C   UNL     1      -1.228  -5.130  -2.544  0.00  0.00    +0.101 C 
ATOM     25  N   UNL     1      -0.998  -4.679  -3.561  0.00  0.00    -0.191 NA
ENDBRANCH  10  24
BRANCH   5  26
ATOM     26  O   UNL     1      -1.173  -7.997   4.618  0.00  0.00    -0.423 OA
BRANCH  26  27
ATOM     27  C   UNL     1      -0.232  -8.954   4.679  0.00  0.00    +0.357 C 
ATOM     28  O   UNL     1       0.589  -9.051   3.797  0.00  0.00    -0.246 OA
BRANCH  27  29
ATOM     29  C   UNL     1      -0.200  -9.906   5.846  0.00  0.00    +0.319 C 
ATOM     30  C   UNL     1      -1.460 -10.782   5.834  0.00  0.00    +0.285 C 
ATOM     31  O   UNL     1      -1.390 -11.682   6.945  0.00  0.00    -0.484 OA
ATOM     32  C   UNL     1      -0.206 -12.324   7.139  0.00  0.00    +0.162 A 
ATOM     33  C   UNL     1      -0.167 -13.453   7.944  0.00  0.00    +0.049 A 
ATOM     34  C   UNL     1       1.028 -14.114   8.153  0.00  0.00    +0.004 A 
ATOM     35  C   UNL     1       2.189 -13.652   7.561  0.00  0.00    +0.004 A 
ATOM     36  C   UNL     1       2.157 -12.529   6.756  0.00  0.00    +0.049 A 
ATOM     37  C   UNL     1       0.960 -11.861   6.542  0.00  0.00    +0.163 A 
ATOM     38  O   UNL     1       0.944 -10.761   5.741  0.00  0.00    -0.470 OA
ENDBRANCH  27  29
ENDBRANCH  26  27
ENDBRANCH   5  26
TORSDOF 9
