REMARK  Name = ZINC28864158
REMARK  10 active torsions:
REMARK  status: ('A' for Active; 'I' for Inactive)
REMARK    1  A    between atoms: C_1  and  C_2
REMARK    2  A    between atoms: C_9  and  N_15
REMARK    3  A    between atoms: C_10  and  C_11
REMARK    4  A    between atoms: C_11  and  O_13
REMARK    5  A    between atoms: O_13  and  C_14
REMARK    6  A    between atoms: C_16  and  C_18
REMARK    7  A    between atoms: C_18  and  S_19
REMARK    8  A    between atoms: S_19  and  C_20
REMARK    9  A    between atoms: N_24  and  C_25
REMARK   10  A    between atoms: C_28  and  O_31
REMARK                            x       y       z     vdW  Elec       q    Type
REMARK                         _______ _______ _______ _____ _____    ______ ____
ROOT
ATOM      1  N   UNL     1      -4.716  -2.954   3.422  0.00  0.00    -0.279 N 
ATOM      2  C   UNL     1      -4.079  -1.861   2.957  0.00  0.00    +0.228 C 
ATOM      3  O   UNL     1      -4.484  -0.755   3.244  0.00  0.00    -0.275 OA
ATOM      4  H   UNL     1      -4.349  -3.958   3.161  0.00  0.00    +0.155 HD
ENDROOT
BRANCH   1  12
ATOM      5  C   UNL     1     -11.038  -1.729   7.862  0.00  0.00    +0.008 C 
ATOM      6  C   UNL     1     -10.090  -2.341   6.829  0.00  0.00    -0.009 C 
ATOM      7  C   UNL     1      -9.450  -3.607   7.406  0.00  0.00    +0.008 C 
ATOM      8  C   UNL     1      -8.698  -4.357   6.305  0.00  0.00    +0.037 C 
ATOM      9  C   UNL     1      -7.747  -3.389   5.612  0.00  0.00    -0.021 A 
ATOM     10  C   UNL     1      -7.912  -2.053   5.723  0.00  0.00    -0.004 A 
ATOM     11  S   UNL     1      -6.595  -1.353   4.769  0.00  0.00    -0.077 S 
ATOM     12  C   UNL     1      -5.835  -2.813   4.228  0.00  0.00    +0.086 A 
ATOM     13  C   UNL     1      -6.621  -3.808   4.794  0.00  0.00    +0.091 A 
ATOM     14  C   UNL     1      -8.980  -1.336   6.489  0.00  0.00    +0.046 C 
BRANCH  13  15
ATOM     15  C   UNL     1      -6.325  -5.226   4.578  0.00  0.00    +0.342 C 
ATOM     16  O   UNL     1      -5.587  -5.816   5.342  0.00  0.00    -0.245 OA
BRANCH  15  17
ATOM     17  O   UNL     1      -6.872  -5.877   3.530  0.00  0.00    -0.464 OA
ATOM     18  C   UNL     1      -6.535  -7.281   3.378  0.00  0.00    +0.280 C 
ENDBRANCH  15  17
ENDBRANCH  13  15
ENDBRANCH   1  12
BRANCH   2  19
ATOM     19  C   UNL     1      -2.863  -2.015   2.079  0.00  0.00    +0.173 C 
BRANCH  19  20
ATOM     20  S   UNL     1      -2.239  -0.378   1.622  0.00  0.00    -0.075 S 
BRANCH  20  21
ATOM     21  C   UNL     1      -0.860  -0.843   0.628  0.00  0.00    +0.214 A 
ATOM     22  N   UNL     1      -0.474  -2.070   0.351  0.00  0.00    -0.101 NA
ATOM     23  N   UNL     1       0.571  -2.055  -0.395  0.00  0.00    -0.022 NA
ATOM     24  N   UNL     1       0.922  -0.842  -0.651  0.00  0.00    -0.038 NA
ATOM     25  N   UNL     1       0.002  -0.004   0.002  0.00  0.00    -0.187 N 
BRANCH  25  26
ATOM     26  C   UNL     1      -0.017   1.399   0.010  0.00  0.00    +0.070 A 
ATOM     27  C   UNL     1      -1.228   2.077   0.019  0.00  0.00    +0.031 A 
ATOM     28  C   UNL     1      -1.247   3.458   0.033  0.00  0.00    +0.047 A 
ATOM     29  C   UNL     1      -0.054   4.167   0.025  0.00  0.00    +0.117 A 
ATOM     30  C   UNL     1       1.156   3.490   0.010  0.00  0.00    +0.047 A 
ATOM     31  C   UNL     1       1.176   2.110   0.002  0.00  0.00    +0.031 A 
BRANCH  29  32
ATOM     32  O   UNL     1      -0.073   5.527   0.032  0.00  0.00    -0.507 OA
ATOM     33  H   UNL     1       0.872   6.090   0.026  0.00  0.00    +0.292 HD
ENDBRANCH  29  32
ENDBRANCH  25  26
ENDBRANCH  20  21
ENDBRANCH  19  20
ENDBRANCH   2  19
TORSDOF 8
