REMARK  Name = ZINC36512245
REMARK  13 active torsions:
REMARK  status: ('A' for Active; 'I' for Inactive)
REMARK    1  A    between atoms: C_1  and  C_2
REMARK    2  A    between atoms: C_2  and  C_3
REMARK    3  A    between atoms: C_3  and  C_4
REMARK    4  A    between atoms: C_4  and  C_5
REMARK    5  A    between atoms: C_5  and  C_6
REMARK    6  A    between atoms: C_6  and  N_7
REMARK    7  A    between atoms: N_7  and  C_8
REMARK    8  A    between atoms: C_8  and  C_10
REMARK    9  A    between atoms: C_8  and  C_17
REMARK   10  A    between atoms: C_15  and  O_16
REMARK   11  A    between atoms: N_19  and  C_20
REMARK   12  A    between atoms: C_26  and  C_28
REMARK   13  A    between atoms: C_28  and  C_29
REMARK                            x       y       z     vdW  Elec       q    Type
REMARK                         _______ _______ _______ _____ _____    ______ ____
ROOT
ATOM      1  C   UNL     1       3.476  -4.857  -3.881  0.00  0.00    +0.196 C 
ENDROOT
BRANCH   1   2
ATOM      2  C   UNL     1       3.635  -6.258  -4.411  0.00  0.00    +0.023 A 
ATOM      3  C   UNL     1       2.695  -6.780  -5.279  0.00  0.00    +0.009 A 
ATOM      4  C   UNL     1       2.839  -8.066  -5.765  0.00  0.00    +0.001 A 
ATOM      5  C   UNL     1       3.925  -8.833  -5.386  0.00  0.00    +0.004 A 
ATOM      6  C   UNL     1       4.869  -8.316  -4.519  0.00  0.00    +0.046 A 
ATOM      7  C   UNL     1       4.728  -7.024  -4.033  0.00  0.00    +0.122 A 
BRANCH   7   8
ATOM      8  O   UNL     1       5.658  -6.511  -3.185  0.00  0.00    -0.506 OA
ATOM      9  H   UNL     1       5.470  -6.675  -2.251  0.00  0.00    +0.292 HD
ENDBRANCH   7   8
ENDBRANCH   1   2
BRANCH   1  10
ATOM     10  C   UNL     1       4.303  -3.909  -4.711  0.00  0.00    +0.238 C 
ATOM     11  O   UNL     1       3.767  -2.996  -5.303  0.00  0.00    -0.273 OA
ATOM     12  N   UNL     1       5.638  -4.076  -4.796  0.00  0.00    -0.311 N 
ATOM     13  H   UNL     1       6.066  -4.806  -4.323  0.00  0.00    +0.149 HD
BRANCH  12  14
ATOM     14  C   UNL     1       6.441  -3.154  -5.603  0.00  0.00    +0.073 C 
ATOM     15  C   UNL     1       6.438  -3.618  -7.061  0.00  0.00    +0.022 C 
ATOM     16  C   UNL     1       7.277  -2.655  -7.904  0.00  0.00    +0.002 C 
ATOM     17  C   UNL     1       8.713  -2.636  -7.378  0.00  0.00    +0.000 C 
ATOM     18  C   UNL     1       8.717  -2.173  -5.920  0.00  0.00    +0.002 C 
ATOM     19  C   UNL     1       7.878  -3.135  -5.077  0.00  0.00    +0.022 C 
ENDBRANCH  12  14
ENDBRANCH   1  10
BRANCH   1  20
ATOM     20  N   UNL     1       2.066  -4.465  -3.950  0.00  0.00    -0.286 N 
ATOM     21  C   UNL     1       1.468  -4.313  -5.148  0.00  0.00    +0.221 C 
ATOM     22  O   UNL     1       2.116  -4.416  -6.168  0.00  0.00    -0.275 OA
BRANCH  20  23
ATOM     23  C   UNL     1       1.307  -4.239  -2.718  0.00  0.00    +0.109 C 
BRANCH  23  24
ATOM     24  C   UNL     1       1.331  -2.749  -2.370  0.00  0.00    +0.019 C 
BRANCH  24  25
ATOM     25  C   UNL     1       0.437  -2.494  -1.156  0.00  0.00    +0.002 C 
BRANCH  25  26
ATOM     26  C   UNL     1       0.461  -1.004  -0.808  0.00  0.00    -0.000 C 
BRANCH  26  28
ATOM     27  C   UNL     1      -0.409   0.741   0.754  0.00  0.00    +0.004 C 
ATOM     28  C   UNL     1      -0.433  -0.749   0.407  0.00  0.00    -0.003 C 
ENDBRANCH  26  28
ENDBRANCH  25  26
ENDBRANCH  24  25
ENDBRANCH  23  24
ENDBRANCH  20  23
BRANCH  21  29
ATOM     29  C   UNL     1      -0.008  -4.015  -5.221  0.00  0.00    +0.131 C 
BRANCH  29  30
ATOM     30  C   UNL     1      -0.425  -3.893  -6.664  0.00  0.00    -0.039 A 
ATOM     31  C   UNL     1      -0.376  -2.664  -7.295  0.00  0.00    +0.005 A 
ATOM     32  C   UNL     1      -0.758  -2.551  -8.619  0.00  0.00    +0.015 A 
ATOM     33  C   UNL     1      -1.190  -3.668  -9.311  0.00  0.00    +0.018 A 
ATOM     34  C   UNL     1      -1.240  -4.897  -8.679  0.00  0.00    +0.015 A 
ATOM     35  C   UNL     1      -0.852  -5.010  -7.357  0.00  0.00    +0.005 A 
ATOM     36 BR   UNL     1      -1.714  -3.514 -11.122  0.00  0.00    -0.050 Br
ENDBRANCH  29  30
ENDBRANCH  21  29
ENDBRANCH   1  20
TORSDOF 12
