REMARK  Name = ZINC25782923
REMARK  5 active torsions:
REMARK  status: ('A' for Active; 'I' for Inactive)
REMARK    1  A    between atoms: C_4  and  C_7
REMARK    2  A    between atoms: C_7  and  N_8
REMARK    3  A    between atoms: C_12  and  N_30
REMARK    4  A    between atoms: N_16  and  N_17
REMARK    5  A    between atoms: C_18  and  C_20
REMARK                            x       y       z     vdW  Elec       q    Type
REMARK                         _______ _______ _______ _____ _____    ______ ____
ROOT
ATOM      1  N   UNL     1       4.152  -0.952   1.338  0.00  0.00    -0.261 N 
ATOM      2  C   UNL     1       4.944  -0.078   2.074  0.00  0.00    +0.046 A 
ATOM      3  C   UNL     1       5.495   1.158   1.757  0.00  0.00    +0.026 A 
ATOM      4  C   UNL     1       6.260   1.835   2.687  0.00  0.00    +0.034 A 
ATOM      5  C   UNL     1       6.487   1.294   3.941  0.00  0.00    +0.127 A 
ATOM      6  C   UNL     1       5.947   0.068   4.274  0.00  0.00    +0.044 A 
ATOM      7  C   UNL     1       5.176  -0.621   3.344  0.00  0.00    +0.031 A 
ATOM      8  C   UNL     1       4.470  -1.923   3.378  0.00  0.00    +0.153 C 
ATOM      9  N   UNL     1       4.414  -2.776   4.372  0.00  0.00    -0.174 NA
ATOM     10  C   UNL     1       3.837  -2.048   2.050  0.00  0.00    +0.272 C 
ATOM     11  O   UNL     1       3.154  -2.979   1.666  0.00  0.00    -0.268 OA
ENDROOT
BRANCH   9  12
ATOM     12  N   UNL     1       3.695  -3.970   4.231  0.00  0.00    -0.202 N 
ATOM     13  C   UNL     1       3.638  -4.847   5.254  0.00  0.00    +0.265 C 
ATOM     14  O   UNL     1       4.210  -4.602   6.297  0.00  0.00    -0.268 OA
ATOM     15  H   UNL     1       3.238  -4.166   3.398  0.00  0.00    +0.178 HD
BRANCH  13  16
ATOM     16  C   UNL     1       2.880  -6.105   5.105  0.00  0.00    +0.057 A 
ATOM     17  C   UNL     1       2.225  -6.393   3.905  0.00  0.00    +0.016 A 
ATOM     18  C   UNL     1       1.520  -7.569   3.773  0.00  0.00    +0.021 A 
ATOM     19  C   UNL     1       1.457  -8.466   4.827  0.00  0.00    +0.042 A 
ATOM     20  C   UNL     1       2.103  -8.188   6.020  0.00  0.00    +0.040 A 
ATOM     21  C   UNL     1       2.819  -7.016   6.163  0.00  0.00    +0.054 A 
ATOM     22 CL   UNL     1       3.634  -6.673   7.657  0.00  0.00    -0.083 Cl
ATOM     23 CL   UNL     1       0.564  -9.944   4.652  0.00  0.00    -0.083 Cl
ENDBRANCH  13  16
ENDBRANCH   9  12
BRANCH   5  24
ATOM     24  N   UNL     1       7.309   2.032   4.926  0.00  0.00    +0.056 N 
ATOM     25  O   UNL     1       7.782   3.105   4.636  0.00  0.00    -0.126 OA
ATOM     26  O   UNL     1       7.507   1.560   6.022  0.00  0.00    -0.126 OA
ENDBRANCH   5  24
BRANCH   1  27
ATOM     27  C   UNL     1       3.711  -0.707  -0.038  0.00  0.00    +0.149 C 
BRANCH  27  31
ATOM     28  C   UNL     1      -0.017   1.378   0.010  0.00  0.00    +0.000 A 
ATOM     29  C   UNL     1       1.171   2.086   0.002  0.00  0.00    +0.000 A 
ATOM     30  C   UNL     1       2.377   1.411  -0.013  0.00  0.00    +0.005 A 
ATOM     31  C   UNL     1       2.396   0.029  -0.020  0.00  0.00    -0.030 A 
ATOM     32  C   UNL     1       1.208  -0.679  -0.012  0.00  0.00    +0.005 A 
ATOM     33  C   UNL     1       0.002  -0.004   0.002  0.00  0.00    +0.000 A 
ENDBRANCH  27  31
ENDBRANCH   1  27
TORSDOF 5
