REMARK  Name = ZINC00661058
REMARK  9 active torsions:
REMARK  status: ('A' for Active; 'I' for Inactive)
REMARK    1  A    between atoms: C_1  and  C_2
REMARK    2  A    between atoms: C_2  and  O_3
REMARK    3  A    between atoms: O_3  and  C_4
REMARK    4  A    between atoms: C_6  and  C_19
REMARK    5  A    between atoms: C_9  and  O_10
REMARK    6  A    between atoms: O_10  and  C_11
REMARK    7  A    between atoms: C_11  and  C_12
REMARK    8  A    between atoms: C_21  and  C_32
REMARK    9  A    between atoms: C_22  and  N_31
REMARK                            x       y       z     vdW  Elec       q    Type
REMARK                         _______ _______ _______ _____ _____    ______ ____
ROOT
ATOM      1  C   UNL     1      -0.016   1.356   0.009  0.00  0.00    +0.162 A 
ATOM      2  C   UNL     1       1.173   2.066   0.002  0.00  0.00    +0.055 A 
ATOM      3  C   UNL     1       1.153   3.449   0.009  0.00  0.00    -0.017 A 
ATOM      4  C   UNL     1      -0.053   4.125   0.023  0.00  0.00    +0.026 A 
ATOM      5  C   UNL     1      -1.244   3.422   0.031  0.00  0.00    +0.065 A 
ATOM      6  C   UNL     1      -1.230   2.037   0.019  0.00  0.00    +0.163 A 
ATOM      7 BR   UNL     1      -0.074   6.016   0.032  0.00  0.00    -0.050 Br
ENDROOT
BRANCH   3   8
ATOM      8  C   UNL     1       2.448   4.219   0.000  0.00  0.00    +0.102 C 
ATOM      9  C   UNL     1       3.221   3.882  -1.244  0.00  0.00    +0.098 C 
ATOM     10  C   UNL     1       4.263   3.018  -1.190  0.00  0.00    +0.198 C 
ATOM     11  O   UNL     1       4.631   2.437  -0.037  0.00  0.00    -0.445 OA
ATOM     12  C   UNL     1       4.285   2.998   1.136  0.00  0.00    +0.115 C 
ATOM     13  C   UNL     1       3.254   3.858   1.225  0.00  0.00    +0.046 C 
ATOM     14  C   UNL     1       2.895   4.447   2.453  0.00  0.00    +0.163 C 
ATOM     15  O   UNL     1       1.945   5.203   2.496  0.00  0.00    -0.292 OA
ATOM     16  C   UNL     1       3.666   4.156   3.711  0.00  0.00    +0.080 C 
ATOM     17  C   UNL     1       5.111   3.810   3.336  0.00  0.00    +0.016 C 
ATOM     18  C   UNL     1       5.090   2.631   2.361  0.00  0.00    +0.075 C 
BRANCH  10  19
ATOM     19  N   UNL     1       4.957   2.730  -2.339  0.00  0.00    -0.328 N 
ATOM     20  H   UNL     1       5.705   2.112  -2.312  0.00  0.00    +0.145 HD
ATOM     21  H   UNL     1       4.700   3.144  -3.178  0.00  0.00    +0.145 HD
ENDBRANCH  10  19
BRANCH   9  22
ATOM     22  C   UNL     1       2.854   4.478  -2.493  0.00  0.00    +0.101 C 
ATOM     23  N   UNL     1       2.563   4.951  -3.485  0.00  0.00    -0.191 NA
ENDBRANCH   9  22
ENDBRANCH   3   8
BRANCH   1  24
ATOM     24  O   UNL     1       0.002  -0.004   0.002  0.00  0.00    -0.489 OA
BRANCH  24  26
ATOM     25  C   UNL     1       1.104  -2.155  -0.020  0.00  0.00    +0.048 C 
ATOM     26  C   UNL     1       1.284  -0.635  -0.014  0.00  0.00    +0.226 C 
ENDBRANCH  24  26
ENDBRANCH   1  24
BRANCH   6  27
ATOM     27  O   UNL     1      -2.400   1.343   0.021  0.00  0.00    -0.484 OA
BRANCH  27  28
ATOM     28  C   UNL     1      -3.607   2.108   0.031  0.00  0.00    +0.264 C 
BRANCH  28  29
ATOM     29  C   UNL     1      -4.792   1.177   0.031  0.00  0.00    -0.010 A 
ATOM     30  C   UNL     1      -5.344   0.760  -1.166  0.00  0.00    +0.007 A 
ATOM     31  C   UNL     1      -6.428  -0.098  -1.165  0.00  0.00    +0.000 A 
ATOM     32  C   UNL     1      -6.965  -0.532   0.032  0.00  0.00    +0.000 A 
ATOM     33  C   UNL     1      -6.416  -0.111   1.229  0.00  0.00    +0.000 A 
ATOM     34  C   UNL     1      -5.330   0.743   1.229  0.00  0.00    +0.007 A 
ENDBRANCH  28  29
ENDBRANCH  27  28
ENDBRANCH   6  27
TORSDOF 8
