REMARK  Name = ZINC06856681
REMARK  7 active torsions:
REMARK  status: ('A' for Active; 'I' for Inactive)
REMARK    1  A    between atoms: C_1  and  C_2
REMARK    2  A    between atoms: C_2  and  C_3
REMARK    3  A    between atoms: C_3  and  C_4
REMARK    4  A    between atoms: C_4  and  S_5
REMARK    5  A    between atoms: S_5  and  C_6
REMARK    6  A    between atoms: C_17  and  C_19
REMARK    7  A    between atoms: C_23  and  O_25
REMARK                            x       y       z     vdW  Elec       q    Type
REMARK                         _______ _______ _______ _____ _____    ______ ____
ROOT
ATOM      1  C   UNL     1       1.529  -4.368  -2.621  0.00  0.00    +0.171 A 
ATOM      2  N   UNL     1       2.095  -5.132  -3.597  0.00  0.00    -0.302 N 
ATOM      3  H   UNL     1       2.526  -4.708  -4.355  0.00  0.00    +0.171 HD
ATOM      4  C   UNL     1       2.057  -6.479  -3.510  0.00  0.00    +0.258 A 
ATOM      5  O   UNL     1       2.559  -7.173  -4.380  0.00  0.00    -0.267 OA
ATOM      6  C   UNL     1       1.431  -7.065  -2.403  0.00  0.00    +0.069 A 
ATOM      7  C   UNL     1       0.875  -6.243  -1.438  0.00  0.00    +0.135 A 
ATOM      8  N   UNL     1       0.944  -4.915  -1.575  0.00  0.00    -0.208 NA
ATOM      9  N   UNL     1       0.261  -6.803  -0.335  0.00  0.00    -0.302 N 
ATOM     10  C   UNL     1       0.518  -8.097   0.025  0.00  0.00    +0.017 C 
ATOM     11  C   UNL     1       1.049  -8.970  -0.857  0.00  0.00    +0.024 C 
ATOM     12  C   UNL     1       1.365  -8.557  -2.272  0.00  0.00    +0.092 C 
ATOM     13  C   UNL     1       1.329 -10.297  -0.483  0.00  0.00    +0.162 C 
ATOM     14  O   UNL     1       1.799 -11.060  -1.303  0.00  0.00    -0.292 OA
ATOM     15  C   UNL     1       1.057 -10.790   0.911  0.00  0.00    +0.080 C 
ATOM     16  C   UNL     1       1.161  -9.612   1.886  0.00  0.00    +0.014 C 
ATOM     17  C   UNL     1       0.186  -8.523   1.435  0.00  0.00    +0.051 C 
ATOM     18  H   UNL     1      -0.359  -6.272   0.190  0.00  0.00    +0.153 HD
ENDROOT
BRANCH  12  19
ATOM     19  C   UNL     1       0.292  -9.085  -3.190  0.00  0.00    -0.032 A 
ATOM     20  C   UNL     1      -1.017  -8.667  -3.036  0.00  0.00    +0.005 A 
ATOM     21  C   UNL     1      -2.002  -9.150  -3.877  0.00  0.00    +0.004 A 
ATOM     22  C   UNL     1      -1.681 -10.053  -4.872  0.00  0.00    +0.045 A 
ATOM     23  C   UNL     1      -0.369 -10.474  -5.029  0.00  0.00    +0.117 A 
ATOM     24  C   UNL     1       0.619  -9.983  -4.188  0.00  0.00    +0.050 A 
BRANCH  23  25
ATOM     25  O   UNL     1      -0.051 -11.361  -6.008  0.00  0.00    -0.507 OA
ATOM     26  H   UNL     1       0.189 -10.950  -6.849  0.00  0.00    +0.292 HD
ENDBRANCH  23  25
ENDBRANCH  12  19
BRANCH   1  27
ATOM     27  S   UNL     1       1.588  -2.612  -2.758  0.00  0.00    -0.088 S 
BRANCH  27  28
ATOM     28  C   UNL     1       0.739  -2.027  -1.265  0.00  0.00    +0.077 C 
BRANCH  28  29
ATOM     29  C   UNL     1       0.718  -0.497  -1.257  0.00  0.00    +0.011 C 
BRANCH  29  31
ATOM     30  C   UNL     1      -0.019   1.526   0.010  0.00  0.00    +0.004 C 
ATOM     31  C   UNL     1       0.002  -0.004   0.002  0.00  0.00    -0.003 C 
ENDBRANCH  29  31
ENDBRANCH  28  29
ENDBRANCH  27  28
ENDBRANCH   1  27
TORSDOF 6
