REMARK  Name = ZINC09993417
REMARK  16 active torsions:
REMARK  status: ('A' for Active; 'I' for Inactive)
REMARK    1  A    between atoms: C_1  and  C_2
REMARK    2  A    between atoms: C_2  and  O_3
REMARK    3  A    between atoms: O_3  and  C_4
REMARK    4  A    between atoms: C_4  and  C_6
REMARK    5  A    between atoms: C_8  and  C_35
REMARK    6  A    between atoms: C_15  and  C_26
REMARK    7  A    between atoms: C_17  and  C_21
REMARK    8  A    between atoms: C_18  and  C_20
REMARK    9  A    between atoms: C_21  and  O_23
REMARK   10  A    between atoms: O_23  and  C_24
REMARK   11  A    between atoms: C_24  and  C_25
REMARK   12  A    between atoms: C_29  and  N_32
REMARK   13  A    between atoms: N_32  and  C_33
REMARK   14  A    between atoms: N_32  and  C_34
REMARK   15  A    between atoms: C_38  and  O_41
REMARK   16  A    between atoms: O_41  and  C_42
REMARK                            x       y       z     vdW  Elec       q    Type
REMARK                         _______ _______ _______ _____ _____    ______ ____
ROOT
ATOM      1  C   UNL     1       1.347  -2.497  -2.861  0.00  0.00    +0.176 C 
ATOM      2  C   UNL     1       1.337  -4.017  -3.053  0.00  0.00    +0.046 C 
ATOM      3  C   UNL     1       2.276  -4.367  -4.209  0.00  0.00    +0.060 C 
ATOM      4  C   UNL     1       3.664  -3.861  -3.904  0.00  0.00    +0.016 C 
ATOM      5  C   UNL     1       3.852  -2.753  -3.156  0.00  0.00    +0.025 C 
ATOM      6  C   UNL     1       2.761  -2.040  -2.627  0.00  0.00    +0.176 C 
ATOM      7  O   UNL     1       2.963  -1.040  -1.968  0.00  0.00    -0.291 OA
ATOM      8  C   UNL     1       5.242  -2.244  -2.870  0.00  0.00    +0.092 C 
ATOM      9  C   UNL     1       6.268  -3.310  -3.120  0.00  0.00    +0.065 C 
ATOM     10  C   UNL     1       5.981  -4.394  -3.861  0.00  0.00    +0.016 C 
ATOM     11  N   UNL     1       4.736  -4.554  -4.402  0.00  0.00    -0.321 N 
ATOM     12  C   UNL     1       7.039  -5.441  -4.097  0.00  0.00    +0.061 C 
ATOM     13  H   UNL     1       4.609  -5.164  -5.145  0.00  0.00    +0.152 HD
ENDROOT
BRANCH   8  14
ATOM     14  C   UNL     1       5.530  -1.063  -3.761  0.00  0.00    -0.035 A 
ATOM     15  C   UNL     1       5.494  -1.212  -5.136  0.00  0.00    +0.006 A 
ATOM     16  C   UNL     1       5.757  -0.132  -5.955  0.00  0.00    +0.023 A 
ATOM     17  C   UNL     1       6.058   1.105  -5.398  0.00  0.00    +0.029 A 
ATOM     18  C   UNL     1       6.093   1.250  -4.016  0.00  0.00    +0.023 A 
ATOM     19  C   UNL     1       5.824   0.167  -3.203  0.00  0.00    +0.006 A 
BRANCH  17  20
ATOM     20  N   UNL     1       6.324   2.199  -6.224  0.00  0.00    -0.336 N 
ATOM     21  C   UNL     1       6.287   2.043  -7.680  0.00  0.00    +0.129 C 
ATOM     22  C   UNL     1       6.642   3.502  -5.634  0.00  0.00    +0.129 C 
ENDBRANCH  17  20
ENDBRANCH   8  14
BRANCH   2  23
ATOM     23  C   UNL     1      -0.062  -4.478  -3.375  0.00  0.00    -0.042 A 
ATOM     24  C   UNL     1      -0.703  -4.000  -4.503  0.00  0.00    +0.007 A 
ATOM     25  C   UNL     1      -1.985  -4.420  -4.800  0.00  0.00    +0.046 A 
ATOM     26  C   UNL     1      -2.629  -5.322  -3.965  0.00  0.00    +0.120 A 
ATOM     27  C   UNL     1      -1.983  -5.800  -2.834  0.00  0.00    +0.046 A 
ATOM     28  C   UNL     1      -0.699  -5.381  -2.544  0.00  0.00    +0.007 A 
BRANCH  26  29
ATOM     29  O   UNL     1      -3.891  -5.737  -4.255  0.00  0.00    -0.495 OA
ATOM     30  C   UNL     1      -4.492  -6.667  -3.351  0.00  0.00    +0.277 C 
ENDBRANCH  26  29
ENDBRANCH   2  23
BRANCH   1  31
ATOM     31  C   UNL     1       0.496  -2.134  -1.671  0.00  0.00    +0.318 C 
ATOM     32  O   UNL     1      -0.065  -3.000  -1.042  0.00  0.00    -0.250 OA
BRANCH  31  33
ATOM     33  O   UNL     1       0.361  -0.848  -1.310  0.00  0.00    -0.464 OA
BRANCH  33  35
ATOM     34  C   UNL     1      -0.493   0.932   0.084  0.00  0.00    +0.048 C 
ATOM     35  C   UNL     1      -0.460  -0.576  -0.172  0.00  0.00    +0.229 C 
ENDBRANCH  33  35
ENDBRANCH  31  33
ENDBRANCH   1  31
BRANCH   9  36
ATOM     36  C   UNL     1       7.562  -3.171  -2.566  0.00  0.00    +0.338 C 
ATOM     37  O   UNL     1       8.364  -4.082  -2.658  0.00  0.00    -0.245 OA
BRANCH  36  38
ATOM     38  O   UNL     1       7.908  -2.029  -1.936  0.00  0.00    -0.462 OA
BRANCH  38  39
ATOM     39  C   UNL     1       9.231  -1.958  -1.401  0.00  0.00    +0.229 C 
ATOM     40  C   UNL     1       9.437  -0.598  -0.730  0.00  0.00    +0.048 C 
ENDBRANCH  38  39
ENDBRANCH  36  38
ENDBRANCH   9  36
TORSDOF 10
