REMARK  Name = ZINC36770364
REMARK  5 active torsions:
REMARK  status: ('A' for Active; 'I' for Inactive)
REMARK    1  A    between atoms: C_1  and  C_2
REMARK    2  A    between atoms: C_2  and  C_3
REMARK    3  A    between atoms: N_6  and  C_10
REMARK    4  A    between atoms: C_13  and  N_18
REMARK    5  A    between atoms: C_15  and  C_16
REMARK                            x       y       z     vdW  Elec       q    Type
REMARK                         _______ _______ _______ _____ _____    ______ ____
ROOT
ATOM      1  C   UNL     1      -3.373  -3.439  -0.831  0.00  0.00    +0.034 A 
ATOM      2  C   UNL     1      -3.239  -4.811  -0.659  0.00  0.00    +0.025 A 
ATOM      3  C   UNL     1      -3.820  -5.678  -1.563  0.00  0.00    +0.034 A 
ATOM      4  C   UNL     1      -4.535  -5.182  -2.639  0.00  0.00    +0.127 A 
ATOM      5  C   UNL     1      -4.669  -3.817  -2.813  0.00  0.00    +0.039 A 
ATOM      6  C   UNL     1      -4.095  -2.944  -1.909  0.00  0.00    -0.010 A 
ENDROOT
BRANCH   1   9
ATOM      7  C   UNL     1      -1.433  -0.534   0.013  0.00  0.00    +0.135 C 
ATOM      8  C   UNL     1      -1.417  -2.061  -0.119  0.00  0.00    +0.136 C 
ATOM      9  N   UNL     1      -2.787  -2.559   0.082  0.00  0.00    -0.325 N 
ATOM     10  C   UNL     1      -3.521  -2.102   1.272  0.00  0.00    +0.133 C 
ATOM     11  C   UNL     1      -3.435  -0.573   1.336  0.00  0.00    +0.179 C 
ATOM     12  O   UNL     1      -2.066  -0.173   1.243  0.00  0.00    -0.373 OA
BRANCH   7  14
ATOM     13  C   UNL     1      -0.019   1.526   0.010  0.00  0.00    +0.006 C 
ATOM     14  C   UNL     1       0.002  -0.004   0.002  0.00  0.00    +0.030 C 
ENDBRANCH   7  14
ENDBRANCH   1   9
BRANCH   4  15
ATOM     15  N   UNL     1      -5.156  -6.115  -3.606  0.00  0.00    +0.056 N 
ATOM     16  O   UNL     1      -5.039  -7.308  -3.455  0.00  0.00    -0.126 OA
ATOM     17  O   UNL     1      -5.781  -5.682  -4.546  0.00  0.00    -0.126 OA
ENDBRANCH   4  15
BRANCH   6  18
ATOM     18  C   UNL     1      -4.248  -1.457  -2.096  0.00  0.00    +0.145 C 
ATOM     19 CL   UNL     1      -2.891  -0.836  -3.108  0.00  0.00    -0.120 Cl
ENDBRANCH   6  18
TORSDOF 4
