REMARK  Name = ZINC60290483
REMARK  8 active torsions:
REMARK  status: ('A' for Active; 'I' for Inactive)
REMARK    1  A    between atoms: C_1  and  C_2
REMARK    2  A    between atoms: C_5  and  C_7
REMARK    3  A    between atoms: C_9  and  C_29
REMARK    4  A    between atoms: C_10  and  C_12
REMARK    5  A    between atoms: N_14  and  C_15
REMARK    6  A    between atoms: C_20  and  S_21
REMARK    7  A    between atoms: S_21  and  C_22
REMARK    8  A    between atoms: N_26  and  C_27
REMARK                            x       y       z     vdW  Elec       q    Type
REMARK                         _______ _______ _______ _____ _____    ______ ____
ROOT
ATOM      1  C   UNL     1       3.600  -6.917  -0.275  0.00  0.00    +0.257 C 
ATOM      2  O   UNL     1       4.794  -7.159  -0.269  0.00  0.00    -0.269 OA
ATOM      3  N   UNL     1       2.708  -7.926  -0.223  0.00  0.00    -0.280 N 
ATOM      4  H   UNL     1       1.760  -7.732  -0.160  0.00  0.00    +0.155 HD
ENDROOT
BRANCH   3   5
ATOM      5  C   UNL     1       3.150  -9.254  -0.261  0.00  0.00    +0.049 A 
ATOM      6  C   UNL     1       4.357  -9.602   0.326  0.00  0.00    +0.044 A 
ATOM      7  C   UNL     1       4.791 -10.915   0.287  0.00  0.00    +0.043 A 
ATOM      8  C   UNL     1       4.023 -11.884  -0.335  0.00  0.00    +0.021 A 
ATOM      9  C   UNL     1       2.819 -11.545  -0.923  0.00  0.00    +0.018 A 
ATOM     10  C   UNL     1       2.374 -10.232  -0.884  0.00  0.00    +0.037 A 
ATOM     11 CL   UNL     1       6.303 -11.349   1.022  0.00  0.00    -0.083 Cl
BRANCH  10  12
ATOM     12  S   UNL     1       0.835  -9.799  -1.626  0.00  0.00    -0.047 S 
BRANCH  12  13
ATOM     13  C   UNL     1       1.296  -8.984  -3.119  0.00  0.00    +0.214 A 
ATOM     14  N   UNL     1       2.519  -8.693  -3.505  0.00  0.00    -0.101 NA
ATOM     15  N   UNL     1       2.502  -8.099  -4.643  0.00  0.00    -0.022 NA
ATOM     16  N   UNL     1       1.290  -7.968  -5.062  0.00  0.00    -0.043 NA
ATOM     17  N   UNL     1       0.458  -8.545  -4.087  0.00  0.00    -0.223 N 
ATOM     18  C   UNL     1      -1.004  -8.647  -4.113  0.00  0.00    +0.177 C 
ENDBRANCH  12  13
ENDBRANCH  10  12
ENDBRANCH   3   5
BRANCH   1  22
ATOM     19  C   UNL     1       1.903  -3.153  -0.449  0.00  0.00    +0.144 A 
ATOM     20  N   UNL     1       3.234  -3.212  -0.451  0.00  0.00    -0.240 NA
ATOM     21  C   UNL     1       3.867  -4.350  -0.399  0.00  0.00    +0.058 A 
ATOM     22  C   UNL     1       3.135  -5.531  -0.340  0.00  0.00    +0.097 A 
ATOM     23  S   UNL     1       1.467  -4.885  -0.356  0.00  0.00    -0.059 S 
ATOM     24  C   UNL     1       5.373  -4.386  -0.404  0.00  0.00    +0.067 C 
BRANCH  19  29
ATOM     25  C   UNL     1       0.382   1.615  -0.679  0.00  0.00    +0.086 C 
ATOM     26  C   UNL     1       0.353   0.111  -0.602  0.00  0.00    +0.103 A 
ATOM     27  C   UNL     1      -0.759  -0.652  -0.554  0.00  0.00    +0.045 A 
ATOM     28  C   UNL     1      -0.338  -1.993  -0.490  0.00  0.00    +0.052 A 
ATOM     29  C   UNL     1       1.026  -1.976  -0.502  0.00  0.00    +0.160 A 
ATOM     30  O   UNL     1       1.428  -0.692  -0.576  0.00  0.00    -0.458 OA
ENDBRANCH  19  29
ENDBRANCH   1  22
TORSDOF 5
