REMARK  Name = ZINC08453983
REMARK  9 active torsions:
REMARK  status: ('A' for Active; 'I' for Inactive)
REMARK    1  A    between atoms: C_1  and  C_2
REMARK    2  A    between atoms: C_5  and  C_7
REMARK    3  A    between atoms: N_9  and  C_10
REMARK    4  A    between atoms: C_13  and  C_16
REMARK    5  A    between atoms: C_16  and  C_34
REMARK    6  A    between atoms: N_17  and  N_18
REMARK    7  A    between atoms: C_19  and  C_21
REMARK    8  A    between atoms: C_22  and  C_33
REMARK    9  A    between atoms: C_25  and  C_26
REMARK                            x       y       z     vdW  Elec       q    Type
REMARK                         _______ _______ _______ _____ _____    ______ ____
ROOT
ATOM      1  C   UNL     1       6.171  -1.708  -2.779  0.00  0.00    +0.063 C 
ATOM      2  N   UNL     1       5.689  -1.957  -1.600  0.00  0.00    -0.184 NA
ATOM      3  C   UNL     1       5.280  -1.797  -3.991  0.00  0.00    +0.068 C 
ENDROOT
BRANCH   1   7
ATOM      4  C   UNL     1      10.257  -0.640  -3.221  0.00  0.00    +0.034 A 
ATOM      5  C   UNL     1       9.742  -0.907  -1.957  0.00  0.00    +0.024 A 
ATOM      6  C   UNL     1       8.417  -1.254  -1.809  0.00  0.00    +0.011 A 
ATOM      7  C   UNL     1       7.590  -1.337  -2.933  0.00  0.00    -0.002 A 
ATOM      8  C   UNL     1       8.111  -1.074  -4.202  0.00  0.00    +0.011 A 
ATOM      9  C   UNL     1       9.436  -0.722  -4.341  0.00  0.00    +0.024 A 
BRANCH   4  12
ATOM     10  C   UNL     1      12.532  -0.842  -2.564  0.00  0.00    +0.255 C 
ATOM     11  O   UNL     1      12.195  -1.587  -1.663  0.00  0.00    -0.269 OA
ATOM     12  N   UNL     1      11.600  -0.289  -3.366  0.00  0.00    -0.281 N 
ATOM     13  H   UNL     1      11.863   0.354  -4.044  0.00  0.00    +0.155 HD
BRANCH  10  18
ATOM     14  C   UNL     1      17.598   0.888  -4.174  0.00  0.00    +0.051 C 
ATOM     15  C   UNL     1      16.367   0.283  -3.549  0.00  0.00    -0.013 A 
ATOM     16  C   UNL     1      16.287  -0.565  -2.490  0.00  0.00    +0.011 A 
ATOM     17  C   UNL     1      15.055  -1.004  -2.075  0.00  0.00    +0.021 A 
ATOM     18  C   UNL     1      13.951  -0.545  -2.778  0.00  0.00    +0.074 A 
ATOM     19  S   UNL     1      14.710   0.494  -4.014  0.00  0.00    -0.089 S 
ENDBRANCH  10  18
ENDBRANCH   4  12
ENDBRANCH   1   7
BRANCH   2  20
ATOM     20  N   UNL     1       4.341  -2.309  -1.454  0.00  0.00    -0.203 N 
ATOM     21  C   UNL     1       3.841  -2.568  -0.230  0.00  0.00    +0.269 C 
ATOM     22  O   UNL     1       4.560  -2.496   0.749  0.00  0.00    -0.268 OA
ATOM     23  H   UNL     1       3.768  -2.367  -2.235  0.00  0.00    +0.178 HD
BRANCH  21  24
ATOM     24  C   UNL     1       2.424  -2.938  -0.077  0.00  0.00    +0.108 A 
ATOM     25  C   UNL     1       1.870  -4.192  -0.005  0.00  0.00    +0.147 A 
ATOM     26  O   UNL     1       0.552  -4.019   0.126  0.00  0.00    -0.359 OA
ATOM     27  N   UNL     1       0.222  -2.858   0.150  0.00  0.00    -0.077 NA
ATOM     28  C   UNL     1       1.247  -2.052   0.041  0.00  0.00    +0.127 A 
ATOM     29  C   UNL     1       2.604  -5.507  -0.068  0.00  0.00    +0.090 C 
BRANCH  28  30
ATOM     30  C   UNL     1       1.231  -0.569   0.031  0.00  0.00    +0.023 A 
ATOM     31  C   UNL     1       2.096   0.146   0.858  0.00  0.00    +0.011 A 
ATOM     32  C   UNL     1       2.076   1.525   0.845  0.00  0.00    +0.001 A 
ATOM     33  C   UNL     1       1.200   2.200   0.013  0.00  0.00    +0.001 A 
ATOM     34  C   UNL     1       0.339   1.497  -0.809  0.00  0.00    +0.020 A 
ATOM     35  C   UNL     1       0.349   0.116  -0.805  0.00  0.00    +0.050 A 
ATOM     36 CL   UNL     1      -0.732  -0.766  -1.838  0.00  0.00    -0.083 Cl
ENDBRANCH  28  30
ENDBRANCH  21  24
ENDBRANCH   2  20
TORSDOF 6
