REMARK  Name = ZINC03353973
REMARK  7 active torsions:
REMARK  status: ('A' for Active; 'I' for Inactive)
REMARK    1  A    between atoms: C_2  and  C_3
REMARK    2  A    between atoms: C_2  and  N_11
REMARK    3  A    between atoms: N_11  and  N_12
REMARK    4  A    between atoms: C_13  and  C_15
REMARK    5  A    between atoms: C_20  and  N_21
REMARK    6  A    between atoms: N_21  and  S_22
REMARK    7  A    between atoms: S_22  and  C_25
REMARK                            x       y       z     vdW  Elec       q    Type
REMARK                         _______ _______ _______ _____ _____    ______ ____
ROOT
ATOM      1  N   UNL     1      -0.137   0.322   0.311  0.00  0.00    -0.232 N 
ATOM      2  C   UNL     1      -1.275  -0.400   0.284  0.00  0.00    +0.262 C 
ATOM      3  O   UNL     1      -2.349   0.162   0.195  0.00  0.00    -0.269 OA
ATOM      4  H   UNL     1       0.720  -0.127   0.382  0.00  0.00    +0.173 HD
ENDROOT
BRANCH   2   5
ATOM      5  C   UNL     1      -1.217  -1.871   0.363  0.00  0.00    +0.060 A 
ATOM      6  C   UNL     1       0.015  -2.522   0.466  0.00  0.00    +0.015 A 
ATOM      7  C   UNL     1       0.063  -3.896   0.540  0.00  0.00    +0.001 A 
ATOM      8  C   UNL     1      -1.107  -4.640   0.513  0.00  0.00    +0.002 A 
ATOM      9  C   UNL     1      -2.331  -4.012   0.412  0.00  0.00    +0.025 A 
ATOM     10  C   UNL     1      -2.400  -2.626   0.342  0.00  0.00    +0.060 A 
BRANCH  10  11
ATOM     11  N   UNL     1      -3.631  -1.992   0.246  0.00  0.00    -0.215 N 
ATOM     12  H   UNL     1      -3.722  -1.187  -0.286  0.00  0.00    +0.174 HD
BRANCH  11  13
ATOM     13  S   UNL     1      -4.945  -2.611   1.042  0.00  0.00    +0.079 S 
ATOM     14  O   UNL     1      -6.003  -1.679   0.865  0.00  0.00    -0.149 OA
ATOM     15  O   UNL     1      -5.055  -3.972   0.647  0.00  0.00    -0.149 OA
BRANCH  13  16
ATOM     16  C   UNL     1      -4.559  -2.615   2.761  0.00  0.00    +0.146 A 
ATOM     17  C   UNL     1      -4.773  -1.648   3.686  0.00  0.00    +0.036 A 
ATOM     18  C   UNL     1      -4.384  -1.873   4.993  0.00  0.00    +0.010 A 
ATOM     19  C   UNL     1      -3.800  -3.054   5.311  0.00  0.00    +0.047 A 
ATOM     20  S   UNL     1      -3.792  -3.898   3.738  0.00  0.00    -0.077 S 
ENDBRANCH  13  16
ENDBRANCH  11  13
ENDBRANCH  10  11
ENDBRANCH   2   5
BRANCH   1  21
ATOM     21  N   UNL     1      -0.192   1.720   0.236  0.00  0.00    -0.264 N 
ATOM     22  H   UNL     1      -1.049   2.168   0.161  0.00  0.00    +0.170 HD
BRANCH  21  24
ATOM     23  C   UNL     1       2.165   1.850   0.361  0.00  0.00    +0.035 C 
ATOM     24  C   UNL     1       0.986   2.467   0.263  0.00  0.00    +0.046 C 
BRANCH  24  25
ATOM     25  C   UNL     1       0.928   3.944   0.184  0.00  0.00    +0.016 A 
ATOM     26  C   UNL     1       1.612   4.619  -0.827  0.00  0.00    +0.031 A 
ATOM     27  C   UNL     1       1.550   5.996  -0.899  0.00  0.00    +0.042 A 
ATOM     28  C   UNL     1       0.819   6.709   0.036  0.00  0.00    +0.021 A 
ATOM     29  C   UNL     1       0.143   6.046   1.044  0.00  0.00    +0.022 A 
ATOM     30  C   UNL     1       0.193   4.668   1.124  0.00  0.00    +0.050 A 
ATOM     31 CL   UNL     1      -0.656   3.838   2.390  0.00  0.00    -0.083 Cl
ATOM     32 CL   UNL     1       2.396   6.837  -2.161  0.00  0.00    -0.084 Cl
ENDBRANCH  24  25
ENDBRANCH  21  24
ENDBRANCH   1  21
TORSDOF 7
