REMARK  Name = ZINC39921270
REMARK  9 active torsions:
REMARK  status: ('A' for Active; 'I' for Inactive)
REMARK    1  A    between atoms: C_1  and  C_2
REMARK    2  A    between atoms: C_2  and  O_3
REMARK    3  A    between atoms: O_3  and  C_4
REMARK    4  A    between atoms: C_7  and  C_10
REMARK    5  A    between atoms: C_25  and  N_32
REMARK    6  A    between atoms: C_26  and  C_27
REMARK    7  A    between atoms: C_27  and  O_29
REMARK    8  A    between atoms: O_29  and  C_30
REMARK    9  A    between atoms: C_30  and  C_31
REMARK                            x       y       z     vdW  Elec       q    Type
REMARK                         _______ _______ _______ _____ _____    ______ ____
ROOT
ATOM      1  C   UNL     1      -2.060  -5.878   0.035  0.00  0.00    +0.080 C 
ATOM      2  C   UNL     1      -2.760  -6.318  -1.256  0.00  0.00    +0.154 C 
ATOM      3  C   UNL     1      -4.247  -6.185  -0.973  0.00  0.00    +0.129 C 
ATOM      4  C   UNL     1      -4.991  -5.337  -1.778  0.00  0.00    +0.035 A 
ATOM      5  C   UNL     1      -6.379  -5.177  -1.589  0.00  0.00    +0.013 A 
ATOM      6  C   UNL     1      -7.077  -4.340  -2.404  0.00  0.00    +0.001 A 
ATOM      7  C   UNL     1      -6.448  -3.635  -3.426  0.00  0.00    +0.002 A 
ATOM      8  C   UNL     1      -5.110  -3.746  -3.657  0.00  0.00    +0.024 A 
ATOM      9  C   UNL     1      -4.326  -4.590  -2.853  0.00  0.00    +0.044 A 
ATOM     10  N   UNL     1      -3.010  -4.692  -3.075  0.00  0.00    -0.284 N 
ATOM     11  C   UNL     1      -2.190  -5.484  -2.381  0.00  0.00    +0.229 C 
ATOM     12  O   UNL     1      -1.001  -5.534  -2.636  0.00  0.00    -0.275 OA
ATOM     13  O   UNL     1      -4.767  -6.877   0.044  0.00  0.00    -0.445 OA
ATOM     14  C   UNL     1      -4.029  -6.936   1.177  0.00  0.00    +0.194 C 
ATOM     15  C   UNL     1      -2.753  -6.488   1.221  0.00  0.00    +0.102 C 
ATOM     16  H   UNL     1      -2.625  -4.163  -3.791  0.00  0.00    +0.155 HD
ENDROOT
BRANCH   1  20
ATOM     17  C   UNL     1      -2.194  -1.618   0.344  0.00  0.00    +0.121 A 
ATOM     18  C   UNL     1      -0.972  -2.274   0.299  0.00  0.00    +0.046 A 
ATOM     19  C   UNL     1      -0.931  -3.651   0.200  0.00  0.00    +0.008 A 
ATOM     20  C   UNL     1      -2.107  -4.376   0.144  0.00  0.00    -0.038 A 
ATOM     21  C   UNL     1      -3.326  -3.725   0.187  0.00  0.00    +0.008 A 
ATOM     22  C   UNL     1      -3.372  -2.349   0.293  0.00  0.00    +0.046 A 
BRANCH  17  23
ATOM     23  O   UNL     1      -2.237  -0.264   0.443  0.00  0.00    -0.492 OA
BRANCH  23  25
ATOM     24  C   UNL     1      -1.232   1.929   0.600  0.00  0.00    +0.048 C 
ATOM     25  C   UNL     1      -0.984   0.423   0.490  0.00  0.00    +0.225 C 
ENDBRANCH  23  25
ENDBRANCH  17  23
ENDBRANCH   1  20
BRANCH  14  26
ATOM     26  N   UNL     1      -4.590  -7.461   2.310  0.00  0.00    -0.329 N 
ATOM     27  H   UNL     1      -5.529  -7.705   2.318  0.00  0.00    +0.145 HD
ATOM     28  H   UNL     1      -4.049  -7.589   3.105  0.00  0.00    +0.145 HD
ENDBRANCH  14  26
BRANCH  15  29
ATOM     29  C   UNL     1      -2.046  -6.599   2.429  0.00  0.00    +0.341 C 
ATOM     30  O   UNL     1      -1.238  -7.498   2.582  0.00  0.00    -0.245 OA
BRANCH  29  31
ATOM     31  O   UNL     1      -2.261  -5.709   3.422  0.00  0.00    -0.462 OA
BRANCH  31  32
ATOM     32  C   UNL     1      -1.507  -5.881   4.623  0.00  0.00    +0.229 C 
ATOM     33  C   UNL     1      -1.884  -4.787   5.624  0.00  0.00    +0.048 C 
ENDBRANCH  31  32
ENDBRANCH  29  31
ENDBRANCH  15  29
TORSDOF 7
