REMARK  Name = ZINC08917905
REMARK  12 active torsions:
REMARK  status: ('A' for Active; 'I' for Inactive)
REMARK    1  A    between atoms: C_1  and  C_2
REMARK    2  A    between atoms: C_13  and  O_15
REMARK    3  A    between atoms: O_15  and  C_16
REMARK    4  A    between atoms: C_16  and  C_18
REMARK    5  A    between atoms: C_18  and  C_19
REMARK    6  A    between atoms: C_19  and  C_20
REMARK    7  A    between atoms: N_22  and  C_23
REMARK    8  A    between atoms: C_23  and  C_25
REMARK    9  A    between atoms: C_23  and  C_31
REMARK   10  A    between atoms: C_31  and  O_33
REMARK   11  A    between atoms: O_33  and  C_34
REMARK   12  A    between atoms: C_43  and  C_44
REMARK                            x       y       z     vdW  Elec       q    Type
REMARK                         _______ _______ _______ _____ _____    ______ ____
ROOT
ATOM      1  C   UNL     1       0.839  -7.985  -6.172  0.00  0.00    +0.015 C 
ATOM      2  C   UNL     1       1.344  -8.754  -4.952  0.00  0.00    +0.008 C 
ATOM      3  C   UNL     1       2.837  -8.570  -4.786  0.00  0.00    +0.011 C 
ATOM      4  C   UNL     1       3.558  -9.838  -5.283  0.00  0.00    +0.005 C 
ATOM      5  C   UNL     1       2.917 -10.312  -6.582  0.00  0.00    +0.002 C 
ATOM      6  C   UNL     1       1.527 -10.859  -6.338  0.00  0.00    -0.003 C 
ATOM      7  C   UNL     1       1.009 -10.258  -5.039  0.00  0.00    +0.002 C 
ATOM      8  C   UNL     1      -0.522 -10.254  -4.900  0.00  0.00    +0.008 C 
ATOM      9  C   UNL     1      -0.794  -9.140  -3.856  0.00  0.00    +0.045 C 
ATOM     10  C   UNL     1       0.513  -8.321  -3.730  0.00  0.00    +0.183 C 
ATOM     11  C   UNL     1       1.495 -12.375  -6.177  0.00  0.00    +0.008 C 
ATOM     12  C   UNL     1       2.150 -13.075  -7.357  0.00  0.00    +0.032 C 
ATOM     13  C   UNL     1       3.578 -12.582  -7.470  0.00  0.00    -0.060 C 
ATOM     14  C   UNL     1       4.544 -13.497  -7.558  0.00  0.00    +0.046 C 
ATOM     15  C   UNL     1       5.946 -13.103  -7.709  0.00  0.00    +0.156 C 
ATOM     16  O   UNL     1       6.842 -13.920  -7.596  0.00  0.00    -0.293 OA
ATOM     17  C   UNL     1       6.248 -11.650  -8.005  0.00  0.00    +0.080 C 
ATOM     18  C   UNL     1       5.298 -10.780  -7.186  0.00  0.00    +0.019 C 
ATOM     19  C   UNL     1       3.841 -11.114  -7.462  0.00  0.00    -0.007 C 
ATOM     20  C   UNL     1       3.563 -10.630  -8.892  0.00  0.00    +0.016 C 
ENDROOT
BRANCH  10  21
ATOM     21  O   UNL     1       0.236  -6.902  -3.795  0.00  0.00    -0.461 OA
BRANCH  21  22
ATOM     22  C   UNL     1       0.016  -6.269  -2.632  0.00  0.00    +0.308 C 
ATOM     23  O   UNL     1       0.055  -6.885  -1.593  0.00  0.00    -0.251 OA
BRANCH  22  24
ATOM     24  C   UNL     1      -0.280  -4.792  -2.621  0.00  0.00    +0.130 C 
BRANCH  24  25
ATOM     25  C   UNL     1      -0.489  -4.324  -1.179  0.00  0.00    +0.107 C 
BRANCH  25  26
ATOM     26  C   UNL     1      -0.785  -2.846  -1.169  0.00  0.00    +0.214 C 
ATOM     27  O   UNL     1      -0.824  -2.228  -2.211  0.00  0.00    -0.276 OA
ATOM     28  N   UNL     1      -1.005  -2.212  -0.000  0.00  0.00    -0.299 N 
ATOM     29  H   UNL     1      -0.974  -2.706   0.834  0.00  0.00    +0.150 HD
BRANCH  28  30
ATOM     30  C   UNL     1      -1.293  -0.775   0.010  0.00  0.00    +0.213 C 
BRANCH  30  31
ATOM     31  C   UNL     1      -2.076  -0.429   1.250  0.00  0.00    -0.017 A 
ATOM     32  C   UNL     1      -1.760  -1.024   2.457  0.00  0.00    +0.006 A 
ATOM     33  C   UNL     1      -2.475  -0.703   3.595  0.00  0.00    +0.000 A 
ATOM     34  C   UNL     1      -3.513   0.207   3.525  0.00  0.00    +0.000 A 
ATOM     35  C   UNL     1      -3.833   0.799   2.317  0.00  0.00    +0.000 A 
ATOM     36  C   UNL     1      -3.115   0.481   1.180  0.00  0.00    +0.006 A 
ENDBRANCH  30  31
BRANCH  30  37
ATOM     37  C   UNL     1       0.002  -0.004   0.002  0.00  0.00    +0.332 C 
ATOM     38  O   UNL     1       1.056  -0.594  -0.011  0.00  0.00    -0.248 OA
BRANCH  37  39
ATOM     39  O   UNL     1      -0.016   1.338   0.009  0.00  0.00    -0.466 OA
ATOM     40  C   UNL     1       1.268   2.015   0.001  0.00  0.00    +0.280 C 
ENDBRANCH  37  39
ENDBRANCH  30  37
ENDBRANCH  28  30
ENDBRANCH  25  26
ENDBRANCH  24  25
ENDBRANCH  22  24
ENDBRANCH  21  22
ENDBRANCH  10  21
TORSDOF 9
