REMARK  Name = ZINC08962121
REMARK  5 active torsions:
REMARK  status: ('A' for Active; 'I' for Inactive)
REMARK    1  A    between atoms: C_1  and  C_2
REMARK    2  A    between atoms: C_2  and  C_3
REMARK    3  A    between atoms: C_10  and  N_16
REMARK    4  A    between atoms: N_16  and  S_17
REMARK    5  A    between atoms: S_17  and  C_20
REMARK                            x       y       z     vdW  Elec       q    Type
REMARK                         _______ _______ _______ _____ _____    ______ ____
ROOT
ATOM      1  C   UNL     1      -8.148   2.814   3.823  0.00  0.00    +0.110 C 
ATOM      2  C   UNL     1      -7.005   3.786   4.078  0.00  0.00    +0.251 C 
ATOM      3  O   UNL     1      -5.816   3.107   4.463  0.00  0.00    -0.489 OA
ATOM      4  C   UNL     1      -5.476   2.000   3.754  0.00  0.00    +0.133 A 
ATOM      5  C   UNL     1      -4.429   2.028   2.849  0.00  0.00    +0.048 A 
ATOM      6  C   UNL     1      -4.102   0.891   2.135  0.00  0.00    +0.028 A 
ATOM      7  C   UNL     1      -4.826  -0.283   2.310  0.00  0.00    +0.049 A 
ATOM      8  C   UNL     1      -5.876  -0.326   3.214  0.00  0.00    +0.041 A 
ATOM      9  C   UNL     1      -6.205   0.816   3.942  0.00  0.00    +0.080 A 
ATOM     10  C   UNL     1      -7.312   0.804   4.917  0.00  0.00    +0.248 C 
ATOM     11  O   UNL     1      -7.407  -0.090   5.736  0.00  0.00    -0.270 OA
ATOM     12  N   UNL     1      -8.221   1.808   4.884  0.00  0.00    -0.305 N 
ATOM     13  H   UNL     1      -8.915   1.860   5.560  0.00  0.00    +0.149 HD
ENDROOT
BRANCH   1  15
ATOM     14  C   UNL     1      -9.039   1.091   2.247  0.00  0.00    +0.006 C 
ATOM     15  C   UNL     1      -7.925   2.115   2.481  0.00  0.00    +0.022 C 
ENDBRANCH   1  15
BRANCH   7  16
ATOM     16  N   UNL     1      -4.490  -1.426   1.576  0.00  0.00    -0.216 N 
ATOM     17  H   UNL     1      -5.056  -1.716   0.843  0.00  0.00    +0.174 HD
BRANCH  16  18
ATOM     18  S   UNL     1      -3.127  -2.285   1.958  0.00  0.00    +0.072 S 
ATOM     19  O   UNL     1      -2.067  -1.344   2.052  0.00  0.00    -0.150 OA
ATOM     20  O   UNL     1      -3.084  -3.395   1.072  0.00  0.00    -0.150 OA
BRANCH  18  21
ATOM     21  C   UNL     1      -3.362  -2.942   3.576  0.00  0.00    +0.112 A 
ATOM     22  C   UNL     1      -2.870  -2.262   4.675  0.00  0.00    +0.032 A 
ATOM     23  C   UNL     1      -3.048  -2.777   5.946  0.00  0.00    +0.051 A 
ATOM     24  C   UNL     1      -3.727  -3.973   6.122  0.00  0.00    +0.162 A 
ATOM     25  C   UNL     1      -4.224  -4.655   5.018  0.00  0.00    +0.164 A 
ATOM     26  C   UNL     1      -4.038  -4.136   3.745  0.00  0.00    +0.078 A 
ATOM     27  O   UNL     1      -4.894  -5.830   5.168  0.00  0.00    -0.485 OA
ATOM     28  C   UNL     1      -4.733  -6.506   6.420  0.00  0.00    +0.270 C 
ATOM     29  C   UNL     1      -4.896  -5.476   7.546  0.00  0.00    +0.270 C 
ATOM     30  O   UNL     1      -3.894  -4.468   7.379  0.00  0.00    -0.485 OA
ENDBRANCH  18  21
ENDBRANCH  16  18
ENDBRANCH   7  16
TORSDOF 4
