REMARK  Name = ZINC08789014
REMARK  6 active torsions:
REMARK  status: ('A' for Active; 'I' for Inactive)
REMARK    1  A    between atoms: C_1  and  C_2
REMARK    2  A    between atoms: C_2  and  C_3
REMARK    3  A    between atoms: N_21  and  C_24
REMARK    4  A    between atoms: C_27  and  O_30
REMARK    5  A    between atoms: O_30  and  C_31
REMARK    6  A    between atoms: C_31  and  C_33
REMARK                            x       y       z     vdW  Elec       q    Type
REMARK                         _______ _______ _______ _____ _____    ______ ____
ROOT
ATOM      1  C   UNL     1      -0.792   3.130   1.363  0.00  0.00    -0.047 A 
ATOM      2  C   UNL     1       0.224   3.841   1.975  0.00  0.00    +0.005 A 
ATOM      3  C   UNL     1       0.204   5.220   1.980  0.00  0.00    +0.024 A 
ATOM      4  C   UNL     1      -0.847   5.908   1.378  0.00  0.00    +0.036 A 
ATOM      5  C   UNL     1      -1.866   5.182   0.771  0.00  0.00    -0.027 A 
ATOM      6  C   UNL     1      -1.840   3.805   0.763  0.00  0.00    +0.008 A 
ATOM      7  C   UNL     1      -2.828   6.200   0.225  0.00  0.00    +0.053 C 
ATOM      8  C   UNL     1      -4.228   6.023   0.824  0.00  0.00    +0.089 C 
ATOM      9  C   UNL     1      -5.200   6.366  -0.338  0.00  0.00    +0.074 C 
ATOM     10  C   UNL     1      -4.293   6.716  -1.532  0.00  0.00    -0.054 C 
ATOM     11  C   UNL     1      -3.180   4.641  -1.589  0.00  0.00    -0.076 C 
ATOM     12  C   UNL     1      -4.074   4.657  -2.845  0.00  0.00    -0.020 C 
ATOM     13  C   UNL     1      -4.830   6.027  -2.800  0.00  0.00    -0.016 C 
ATOM     14  C   UNL     1      -5.893   5.030  -0.599  0.00  0.00    +0.228 C 
ATOM     15  O   UNL     1      -6.742   4.837  -1.443  0.00  0.00    -0.275 OA
ATOM     16  N   UNL     1      -5.424   4.109   0.250  0.00  0.00    -0.210 N 
ATOM     17  C   UNL     1      -4.486   4.558   1.093  0.00  0.00    +0.229 C 
ATOM     18  O   UNL     1      -3.930   3.893   1.941  0.00  0.00    -0.275 OA
ATOM     19  C   UNL     1      -2.236   7.533   0.596  0.00  0.00    +0.212 C 
ATOM     20  O   UNL     1      -2.700   8.625   0.345  0.00  0.00    -0.277 OA
ATOM     21  N   UNL     1      -1.093   7.277   1.259  0.00  0.00    -0.286 N 
ATOM     22  H   UNL     1      -0.507   7.965   1.613  0.00  0.00    +0.155 HD
ATOM     23  N   UNL     1      -3.042   6.064  -1.219  0.00  0.00    +0.395 N 
ATOM     24  H   UNL     1      -2.266   6.493  -1.736  0.00  0.00    -0.079 HD
ENDROOT
BRANCH  16  25
ATOM     25  C   UNL     1      -5.877   2.781   0.257  0.00  0.00    +0.044 A 
ATOM     26  C   UNL     1      -5.023   1.754  -0.120  0.00  0.00    +0.027 A 
ATOM     27  C   UNL     1      -5.467   0.447  -0.109  0.00  0.00    +0.048 A 
ATOM     28  C   UNL     1      -6.772   0.161   0.269  0.00  0.00    +0.132 A 
ATOM     29  C   UNL     1      -7.628   1.188   0.640  0.00  0.00    +0.048 A 
ATOM     30  C   UNL     1      -7.182   2.495   0.634  0.00  0.00    +0.027 A 
BRANCH  28  31
ATOM     31  O   UNL     1      -7.211  -1.125   0.275  0.00  0.00    -0.426 OA
BRANCH  31  32
ATOM     32  C   UNL     1      -8.013  -1.500  -0.733  0.00  0.00    +0.309 C 
ATOM     33  O   UNL     1      -8.234  -0.739  -1.645  0.00  0.00    -0.251 OA
ATOM     34  C   UNL     1      -8.639  -2.871  -0.728  0.00  0.00    +0.136 C 
ENDBRANCH  31  32
ENDBRANCH  28  31
ENDBRANCH  16  25
BRANCH   1  36
ATOM     35  C   UNL     1      -0.025   1.134   0.108  0.00  0.00    +0.009 C 
ATOM     36  C   UNL     1      -0.762   1.623   1.356  0.00  0.00    +0.032 C 
ENDBRANCH   1  36
TORSDOF 4
