REMARK  Name = ZINC06269477
REMARK  14 active torsions:
REMARK  status: ('A' for Active; 'I' for Inactive)
REMARK    1  A    between atoms: C_1  and  C_2
REMARK    2  A    between atoms: C_5  and  C_37
REMARK    3  A    between atoms: C_6  and  S_8
REMARK    4  A    between atoms: S_8  and  N_11
REMARK    5  A    between atoms: N_11  and  C_12
REMARK    6  A    between atoms: C_14  and  C_23
REMARK    7  A    between atoms: C_15  and  O_22
REMARK    8  A    between atoms: C_23  and  C_25
REMARK    9  A    between atoms: C_23  and  C_31
REMARK   10  A    between atoms: C_25  and  C_27
REMARK   11  A    between atoms: C_31  and  O_33
REMARK   12  A    between atoms: O_33  and  C_34
REMARK   13  A    between atoms: C_34  and  C_35
REMARK   14  A    between atoms: C_34  and  C_36
REMARK                            x       y       z     vdW  Elec       q    Type
REMARK                         _______ _______ _______ _____ _____    ______ ____
ROOT
ATOM      1  C   UNL     1       2.075   3.234  -1.576  0.00  0.00    +0.056 A 
ATOM      2  C   UNL     1       0.922   2.725  -1.019  0.00  0.00    +0.033 A 
ATOM      3  C   UNL     1       0.796   1.363  -0.761  0.00  0.00    +0.018 A 
ATOM      4  C   UNL     1       1.812   0.496  -1.047  0.00  0.00    +0.129 A 
ATOM      5  C   UNL     1       3.005   0.978  -1.622  0.00  0.00    +0.026 A 
ATOM      6  C   UNL     1       3.140   2.363  -1.888  0.00  0.00    +0.008 A 
ATOM      7  C   UNL     1       4.331   2.843  -2.456  0.00  0.00    +0.010 A 
ATOM      8  C   UNL     1       5.338   1.974  -2.743  0.00  0.00    +0.001 A 
ATOM      9  C   UNL     1       5.206   0.611  -2.482  0.00  0.00    +0.001 A 
ATOM     10  C   UNL     1       4.066   0.111  -1.932  0.00  0.00    +0.012 A 
ENDROOT
BRANCH   1  11
ATOM     11  N   UNL     1       2.188   4.603  -1.830  0.00  0.00    -0.216 N 
ATOM     12  H   UNL     1       2.671   4.913  -2.613  0.00  0.00    +0.174 HD
BRANCH  11  13
ATOM     13  S   UNL     1       1.499   5.697  -0.795  0.00  0.00    +0.073 S 
ATOM     14  O   UNL     1       1.881   6.987  -1.254  0.00  0.00    -0.150 OA
ATOM     15  O   UNL     1       0.139   5.314  -0.645  0.00  0.00    -0.150 OA
BRANCH  13  21
ATOM     16  C   UNL     1       1.292   4.388   4.261  0.00  0.00    +0.044 C 
ATOM     17  C   UNL     1       2.109   4.866   3.088  0.00  0.00    -0.049 A 
ATOM     18  C   UNL     1       3.456   5.133   3.247  0.00  0.00    +0.004 A 
ATOM     19  C   UNL     1       4.206   5.572   2.172  0.00  0.00    +0.005 A 
ATOM     20  C   UNL     1       3.608   5.744   0.937  0.00  0.00    -0.024 A 
ATOM     21  C   UNL     1       2.261   5.477   0.778  0.00  0.00    +0.112 A 
ATOM     22  C   UNL     1       1.510   5.043   1.855  0.00  0.00    +0.032 A 
ATOM     23  C   UNL     1       4.425   6.223  -0.235  0.00  0.00    +0.046 C 
ENDBRANCH  13  21
ENDBRANCH  11  13
ENDBRANCH   1  11
BRANCH   4  24
ATOM     24  O   UNL     1       1.671  -0.830  -0.782  0.00  0.00    -0.506 OA
ATOM     25  H   UNL     1       1.295  -1.340  -1.513  0.00  0.00    +0.292 HD
ENDBRANCH   4  24
BRANCH   3  26
ATOM     26  C   UNL     1      -0.477   0.838  -0.151  0.00  0.00    +0.206 C 
BRANCH  26  27
ATOM     27  C   UNL     1      -0.724   1.525   1.167  0.00  0.00    +0.254 C 
ATOM     28  O   UNL     1      -1.385   2.535   1.208  0.00  0.00    -0.287 OA
BRANCH  27  29
ATOM     29  C   UNL     1      -0.145   0.953   2.436  0.00  0.00    +0.452 C 
ATOM     30  F   UNL     1      -0.607   1.687   3.533  0.00  0.00    -0.163 F 
ATOM     31  F   UNL     1      -0.541  -0.383   2.568  0.00  0.00    -0.163 F 
ATOM     32  F   UNL     1       1.252   1.021   2.383  0.00  0.00    -0.163 F 
ENDBRANCH  27  29
ENDBRANCH  26  27
BRANCH  26  33
ATOM     33  C   UNL     1      -1.630   1.110  -1.082  0.00  0.00    +0.323 C 
ATOM     34  O   UNL     1      -1.437   1.673  -2.134  0.00  0.00    -0.250 OA
BRANCH  33  35
ATOM     35  O   UNL     1      -2.872   0.728  -0.744  0.00  0.00    -0.461 OA
BRANCH  35  36
ATOM     36  C   UNL     1      -3.933   1.023  -1.689  0.00  0.00    +0.170 C 
ATOM     37  C   UNL     1      -4.089  -0.147  -2.663  0.00  0.00    +0.052 C 
ATOM     38  C   UNL     1      -5.246   1.234  -0.932  0.00  0.00    +0.052 C 
ENDBRANCH  35  36
ENDBRANCH  33  35
ENDBRANCH  26  33
ENDBRANCH   3  26
TORSDOF 10
