REMARK  Name = ZINC41864162
REMARK  4 active torsions:
REMARK  status: ('A' for Active; 'I' for Inactive)
REMARK    1  A    between atoms: C_1  and  N_2
REMARK    2  A    between atoms: C_12  and  C_14
REMARK    3  A    between atoms: C_16  and  N_21
REMARK    4  A    between atoms: C_19  and  O_20
REMARK                            x       y       z     vdW  Elec       q    Type
REMARK                         _______ _______ _______ _____ _____    ______ ____
ROOT
ATOM      1  C   UNL     1      -0.018   1.461   0.010  0.00  0.00    +0.131 C 
ATOM      2  N   UNL     1       0.002  -0.004   0.002  0.00  0.00    -0.310 N 
ATOM      3  C   UNL     1       0.006  -0.705  -1.199  0.00  0.00    +0.043 A 
ATOM      4  C   UNL     1      -0.574  -0.190  -2.346  0.00  0.00    +0.024 A 
ATOM      5  C   UNL     1      -0.535  -0.920  -3.518  0.00  0.00    +0.002 A 
ATOM      6  C   UNL     1       0.078  -2.162  -3.555  0.00  0.00    +0.001 A 
ATOM      7  C   UNL     1       0.657  -2.691  -2.421  0.00  0.00    +0.015 A 
ATOM      8  C   UNL     1       0.622  -1.969  -1.230  0.00  0.00    +0.058 A 
ATOM      9  C   UNL     1       1.204  -2.502   0.014  0.00  0.00    +0.247 C 
ATOM     10  O   UNL     1       1.885  -3.509  -0.009  0.00  0.00    -0.270 OA
ATOM     11  N   UNL     1       0.975  -1.862   1.179  0.00  0.00    -0.289 N 
ATOM     12  C   UNL     1       0.024  -0.758   1.261  0.00  0.00    +0.196 C 
ATOM     13  H   UNL     1       1.452  -2.140   1.976  0.00  0.00    +0.151 HD
ENDROOT
BRANCH  12  14
ATOM     14  C   UNL     1      -1.351  -1.309   1.537  0.00  0.00    +0.034 A 
ATOM     15  C   UNL     1      -1.493  -2.538   2.151  0.00  0.00    +0.043 A 
ATOM     16  C   UNL     1      -2.754  -3.044   2.405  0.00  0.00    +0.127 A 
ATOM     17  C   UNL     1      -3.877  -2.321   2.044  0.00  0.00    +0.036 A 
ATOM     18  C   UNL     1      -3.740  -1.092   1.429  0.00  0.00    +0.048 A 
ATOM     19  C   UNL     1      -2.475  -0.580   1.179  0.00  0.00    +0.123 A 
BRANCH  16  20
ATOM     20  N   UNL     1      -2.904  -4.361   3.063  0.00  0.00    +0.056 N 
ATOM     21  O   UNL     1      -1.923  -4.994   3.379  0.00  0.00    -0.126 OA
ATOM     22  O   UNL     1      -4.006  -4.804   3.285  0.00  0.00    -0.126 OA
ENDBRANCH  16  20
BRANCH  19  23
ATOM     23  O   UNL     1      -2.338   0.632   0.579  0.00  0.00    -0.506 OA
ATOM     24  H   UNL     1      -2.301   0.591  -0.387  0.00  0.00    +0.292 HD
ENDBRANCH  19  23
ENDBRANCH  12  14
TORSDOF 3
