REMARK  Name = ZINC35848635
REMARK  14 active torsions:
REMARK  status: ('A' for Active; 'I' for Inactive)
REMARK    1  A    between atoms: C_1  and  C_2
REMARK    2  A    between atoms: C_2  and  C_3
REMARK    3  A    between atoms: C_3  and  C_4
REMARK    4  A    between atoms: C_4  and  C_5
REMARK    5  A    between atoms: C_5  and  N_6
REMARK    6  A    between atoms: C_7  and  C_9
REMARK    7  A    between atoms: C_9  and  N_10
REMARK    8  A    between atoms: C_13  and  C_23
REMARK    9  A    between atoms: N_15  and  C_16
REMARK   10  A    between atoms: C_19  and  C_22
REMARK   11  A    between atoms: C_23  and  C_24
REMARK   12  A    between atoms: C_23  and  C_25
REMARK   13  A    between atoms: C_23  and  C_26
REMARK   14  A    between atoms: C_27  and  C_33
REMARK                            x       y       z     vdW  Elec       q    Type
REMARK                         _______ _______ _______ _____ _____    ______ ____
ROOT
ATOM      1  N   UNL     1       6.398  -5.016  -8.445  0.00  0.00    -0.246 N 
ATOM      2  C   UNL     1       5.046  -5.360  -8.303  0.00  0.00    +0.136 A 
ATOM      3  C   UNL     1       4.236  -5.677  -9.340  0.00  0.00    +0.034 A 
ATOM      4  C   UNL     1       2.972  -5.968  -8.823  0.00  0.00    +0.075 A 
ATOM      5  N   UNL     1       3.019  -5.828  -7.520  0.00  0.00    -0.169 NA
ATOM      6  N   UNL     1       4.321  -5.441  -7.162  0.00  0.00    -0.218 N 
ATOM      7  C   UNL     1       4.657  -5.696 -10.787  0.00  0.00    +0.118 C 
ATOM      8  S   UNL     1       5.712  -7.164 -11.068  0.00  0.00    -0.138 S 
ATOM      9  C   UNL     1       6.737  -7.184  -9.559  0.00  0.00    +0.166 C 
ATOM     10  C   UNL     1       7.178  -5.795  -9.203  0.00  0.00    +0.231 C 
ATOM     11  O   UNL     1       8.245  -5.378  -9.600  0.00  0.00    -0.274 OA
ENDROOT
BRANCH   6  12
ATOM     12  C   UNL     1       4.784  -5.186  -5.864  0.00  0.00    +0.067 A 
ATOM     13  C   UNL     1       6.087  -5.511  -5.514  0.00  0.00    +0.028 A 
ATOM     14  C   UNL     1       6.541  -5.258  -4.234  0.00  0.00    +0.005 A 
ATOM     15  C   UNL     1       5.698  -4.682  -3.302  0.00  0.00    -0.050 A 
ATOM     16  C   UNL     1       4.399  -4.357  -3.648  0.00  0.00    +0.005 A 
ATOM     17  C   UNL     1       3.942  -4.602  -4.928  0.00  0.00    +0.028 A 
ATOM     18  C   UNL     1       6.195  -4.408  -1.906  0.00  0.00    +0.044 C 
ENDBRANCH   6  12
BRANCH   7  19
ATOM     19  C   UNL     1       3.437  -5.769 -11.668  0.00  0.00    +0.007 A 
ATOM     20  C   UNL     1       2.823  -6.861 -12.187  0.00  0.00    +0.012 A 
ATOM     21  C   UNL     1       1.703  -6.687 -12.978  0.00  0.00    +0.008 A 
ATOM     22  C   UNL     1       1.252  -5.431 -13.212  0.00  0.00    +0.045 A 
ATOM     23  S   UNL     1       2.420  -4.442 -12.293  0.00  0.00    -0.100 S 
ENDBRANCH   7  19
BRANCH   4  24
ATOM     24  C   UNL     1       1.762  -6.373  -9.625  0.00  0.00    +0.007 C 
ATOM     25  C   UNL     1       2.150  -7.476 -10.611  0.00  0.00    +0.017 C 
ATOM     26  C   UNL     1       0.675  -6.891  -8.681  0.00  0.00    +0.017 C 
ATOM     27  C   UNL     1       1.233  -5.162 -10.396  0.00  0.00    +0.017 C 
ENDBRANCH   4  24
BRANCH   1  28
ATOM     28  C   UNL     1       6.943  -3.828  -7.784  0.00  0.00    +0.210 C 
BRANCH  28  30
ATOM     29  N   UNL     1       7.241  -1.427  -8.297  0.00  0.00    -0.314 N 
ATOM     30  C   UNL     1       6.805  -2.637  -8.698  0.00  0.00    +0.231 C 
ATOM     31  O   UNL     1       6.301  -2.768  -9.793  0.00  0.00    -0.274 OA
ATOM     32  H   UNL     1       7.644  -1.322  -7.421  0.00  0.00    +0.149 HD
BRANCH  29  33
ATOM     33  C   UNL     1       7.106  -0.269  -9.185  0.00  0.00    +0.104 C 
BRANCH  33  34
ATOM     34  C   UNL     1       7.675   0.972  -8.494  0.00  0.00    +0.019 C 
BRANCH  34  35
ATOM     35  C   UNL     1       7.535   2.181  -9.422  0.00  0.00    +0.001 C 
BRANCH  35  37
ATOM     36  C   UNL     1       7.963   4.631  -9.658  0.00  0.00    +0.004 C 
ATOM     37  C   UNL     1       8.104   3.422  -8.731  0.00  0.00    -0.003 C 
ENDBRANCH  35  37
ENDBRANCH  34  35
ENDBRANCH  33  34
ENDBRANCH  29  33
ENDBRANCH  28  30
ENDBRANCH   1  28
TORSDOF 9
