REMARK  Name = ZINC33937038
REMARK  13 active torsions:
REMARK  status: ('A' for Active; 'I' for Inactive)
REMARK    1  A    between atoms: C_1  and  C_2
REMARK    2  A    between atoms: C_2  and  C_3
REMARK    3  A    between atoms: C_3  and  C_5
REMARK    4  A    between atoms: C_3  and  N_17
REMARK    5  A    between atoms: N_9  and  C_10
REMARK    6  A    between atoms: C_10  and  C_11
REMARK    7  A    between atoms: N_17  and  C_18
REMARK    8  A    between atoms: N_17  and  C_26
REMARK    9  A    between atoms: C_18  and  C_19
REMARK   10  A    between atoms: C_19  and  C_20
REMARK   11  A    between atoms: C_26  and  C_27
REMARK   12  A    between atoms: C_31  and  C_40
REMARK   13  A    between atoms: C_32  and  C_39
REMARK                            x       y       z     vdW  Elec       q    Type
REMARK                         _______ _______ _______ _____ _____    ______ ____
ROOT
ATOM      1  N   UNL     1      -2.233  -0.254   1.314  0.00  0.00    +0.389 N 
ATOM      2  H   UNL     1      -1.683  -0.473   2.131  0.00  0.00    -0.080 HD
ENDROOT
BRANCH   1   3
ATOM      3  C   UNL     1      -1.470  -0.593   0.105  0.00  0.00    +0.003 C 
BRANCH   3   4
ATOM      4  C   UNL     1      -2.272  -0.220  -1.115  0.00  0.00    +0.138 A 
ATOM      5  N   UNL     1      -3.546  -0.451  -1.315  0.00  0.00    -0.115 NA
ATOM      6  N   UNL     1      -3.859   0.018  -2.473  0.00  0.00    -0.023 NA
ATOM      7  N   UNL     1      -2.817   0.542  -3.018  0.00  0.00    -0.044 NA
ATOM      8  N   UNL     1      -1.819   0.420  -2.209  0.00  0.00    -0.228 N 
BRANCH   8   9
ATOM      9  C   UNL     1      -0.450   0.886  -2.440  0.00  0.00    +0.178 C 
BRANCH   9  10
ATOM     10  C   UNL     1       0.357  -0.219  -3.125  0.00  0.00    +0.140 C 
ATOM     11  C   UNL     1       1.783   0.286  -3.460  0.00  0.00    +0.035 C 
ATOM     12  C   UNL     1       2.567  -1.055  -3.508  0.00  0.00    +0.031 C 
ATOM     13  C   UNL     1       1.852  -1.890  -2.423  0.00  0.00    +0.160 C 
ATOM     14  O   UNL     1       0.549  -1.325  -2.228  0.00  0.00    -0.375 OA
ENDBRANCH   9  10
ENDBRANCH   8   9
ENDBRANCH   3   4
BRANCH   3  16
ATOM     15  C   UNL     1      -0.294  -2.459   1.278  0.00  0.00    +0.002 C 
ATOM     16  C   UNL     1      -1.184  -2.096   0.088  0.00  0.00    -0.011 C 
ENDBRANCH   3  16
ENDBRANCH   1   3
BRANCH   1  17
ATOM     17  C   UNL     1      -2.549   1.181   1.307  0.00  0.00    -0.073 C 
BRANCH  17  18
ATOM     18  C   UNL     1      -1.253   1.990   1.395  0.00  0.00    +0.016 C 
BRANCH  18  19
ATOM     19  C   UNL     1      -1.583   3.455   1.515  0.00  0.00    -0.049 A 
ATOM     20  C   UNL     1      -1.722   4.228   0.378  0.00  0.00    +0.003 A 
ATOM     21  C   UNL     1      -2.025   5.572   0.488  0.00  0.00    +0.000 A 
ATOM     22  C   UNL     1      -2.188   6.144   1.737  0.00  0.00    +0.000 A 
ATOM     23  C   UNL     1      -2.049   5.370   2.874  0.00  0.00    +0.000 A 
ATOM     24  C   UNL     1      -1.751   4.025   2.763  0.00  0.00    +0.003 A 
ENDBRANCH  18  19
ENDBRANCH  17  18
ENDBRANCH   1  17
BRANCH   1  25
ATOM     25  C   UNL     1      -3.479  -1.030   1.341  0.00  0.00    -0.037 C 
BRANCH  25  26
ATOM     26  C   UNL     1      -4.186  -0.801   2.652  0.00  0.00    +0.001 A 
ATOM     27  C   UNL     1      -5.168   0.131   2.737  0.00  0.00    +0.017 A 
ATOM     28  C   UNL     1      -5.835   0.329   4.025  0.00  0.00    -0.001 A 
ATOM     29  C   UNL     1      -6.855   1.275   4.174  0.00  0.00    +0.013 A 
ATOM     30  C   UNL     1      -7.457   1.435   5.389  0.00  0.00    -0.047 A 
ATOM     31  C   UNL     1      -7.066   0.668   6.478  0.00  0.00    -0.046 A 
ATOM     32  C   UNL     1      -6.064  -0.269   6.355  0.00  0.00    +0.030 A 
ATOM     33  C   UNL     1      -5.436  -0.451   5.127  0.00  0.00    +0.049 A 
ATOM     34  N   UNL     1      -4.431  -1.382   4.975  0.00  0.00    -0.322 N 
ATOM     35  H   UNL     1      -4.157  -1.918   5.735  0.00  0.00    +0.169 HD
ATOM     36  C   UNL     1      -3.828  -1.560   3.787  0.00  0.00    +0.251 A 
ATOM     37  O   UNL     1      -2.946  -2.396   3.687  0.00  0.00    -0.268 OA
ATOM     38  C   UNL     1      -7.745   0.863   7.809  0.00  0.00    +0.044 C 
ATOM     39  C   UNL     1      -8.556   2.454   5.549  0.00  0.00    +0.044 C 
ENDBRANCH  25  26
ENDBRANCH   1  25
TORSDOF 10
