REMARK  Name = ZINC20717558
REMARK  7 active torsions:
REMARK  status: ('A' for Active; 'I' for Inactive)
REMARK    1  A    between atoms: C_1  and  C_2
REMARK    2  A    between atoms: C_2  and  O_3
REMARK    3  A    between atoms: O_3  and  C_4
REMARK    4  A    between atoms: C_7  and  C_10
REMARK    5  A    between atoms: C_23  and  C_26
REMARK    6  A    between atoms: N_28  and  C_29
REMARK    7  A    between atoms: C_29  and  C_30
REMARK                            x       y       z     vdW  Elec       q    Type
REMARK                         _______ _______ _______ _____ _____    ______ ____
ROOT
ATOM      1  C   UNL     1       4.849   1.465  -0.083  0.00  0.00    +0.105 C 
ATOM      2  C   UNL     1       4.719   0.185   0.715  0.00  0.00    +0.029 C 
ATOM      3  C   UNL     1       5.890  -0.803   0.687  0.00  0.00    +0.033 C 
ATOM      4  C   UNL     1       5.167  -2.138   0.891  0.00  0.00    -0.030 C 
ATOM      5  C   UNL     1       3.915  -2.045   0.457  0.00  0.00    -0.023 C 
ATOM      6  C   UNL     1       3.708  -0.684  -0.096  0.00  0.00    +0.049 C 
ATOM      7  C   UNL     1       2.405   0.014  -0.034  0.00  0.00    -0.019 A 
ATOM      8  C   UNL     1       1.212  -0.677  -0.021  0.00  0.00    +0.006 A 
ATOM      9  C   UNL     1       0.002  -0.004   0.002  0.00  0.00    +0.001 A 
ATOM     10  C   UNL     1      -0.017   1.374   0.010  0.00  0.00    +0.015 A 
ATOM     11  C   UNL     1       1.179   2.088   0.002  0.00  0.00    +0.058 A 
ATOM     12  C   UNL     1       2.417   1.411  -0.008  0.00  0.00    +0.044 A 
ATOM     13  N   UNL     1       3.568   2.180   0.032  0.00  0.00    -0.336 N 
ATOM     14  H   UNL     1       3.556   3.274   0.142  0.00  0.00    +0.147 HD
ENDROOT
BRANCH   1  18
ATOM     15  C   UNL     1       8.003   3.865   1.516  0.00  0.00    +0.121 A 
ATOM     16  C   UNL     1       8.209   3.127   0.359  0.00  0.00    +0.046 A 
ATOM     17  C   UNL     1       7.188   2.352  -0.156  0.00  0.00    +0.009 A 
ATOM     18  C   UNL     1       5.961   2.312   0.481  0.00  0.00    -0.027 A 
ATOM     19  C   UNL     1       5.751   3.050   1.630  0.00  0.00    +0.009 A 
ATOM     20  C   UNL     1       6.771   3.822   2.152  0.00  0.00    +0.046 A 
BRANCH  15  21
ATOM     21  O   UNL     1       9.006   4.628   2.024  0.00  0.00    -0.492 OA
BRANCH  21  23
ATOM     22  C   UNL     1       9.962   6.154   3.636  0.00  0.00    +0.048 C 
ATOM     23  C   UNL     1       8.722   5.361   3.218  0.00  0.00    +0.225 C 
ENDBRANCH  21  23
ENDBRANCH  15  21
ENDBRANCH   1  18
BRANCH  11  24
ATOM     24  C   UNL     1       1.151   3.563   0.004  0.00  0.00    +0.246 C 
ATOM     25  O   UNL     1       2.192   4.191  -0.003  0.00  0.00    -0.270 OA
ATOM     26  N   UNL     1      -0.029   4.214   0.012  0.00  0.00    -0.307 N 
ATOM     27  H   UNL     1      -0.971   3.646   0.018  0.00  0.00    +0.149 HD
BRANCH  26  28
ATOM     28  C   UNL     1      -0.057   5.679   0.014  0.00  0.00    +0.139 C 
BRANCH  28  29
ATOM     29  C   UNL     1      -1.487   6.154   0.024  0.00  0.00    -0.030 A 
ATOM     30  C   UNL     1      -2.149   6.378  -1.168  0.00  0.00    +0.005 A 
ATOM     31  C   UNL     1      -3.462   6.810  -1.159  0.00  0.00    +0.000 A 
ATOM     32  C   UNL     1      -4.110   7.027   0.043  0.00  0.00    +0.000 A 
ATOM     33  C   UNL     1      -3.446   6.807   1.235  0.00  0.00    +0.000 A 
ATOM     34  C   UNL     1      -2.134   6.371   1.226  0.00  0.00    +0.005 A 
ENDBRANCH  28  29
ENDBRANCH  26  28
ENDBRANCH  11  24
TORSDOF 6
