REMARK  Name = ZINC40741425
REMARK  12 active torsions:
REMARK  status: ('A' for Active; 'I' for Inactive)
REMARK    1  A    between atoms: C_1  and  C_2
REMARK    2  A    between atoms: C_4  and  O_43
REMARK    3  A    between atoms: C_6  and  N_42
REMARK    4  A    between atoms: C_9  and  O_12
REMARK    5  A    between atoms: O_12  and  C_13
REMARK    6  A    between atoms: C_16  and  C_38
REMARK    7  A    between atoms: C_20  and  O_37
REMARK    8  A    between atoms: C_23  and  O_24
REMARK    9  A    between atoms: C_31  and  O_35
REMARK   10  A    between atoms: O_35  and  C_36
REMARK   11  A    between atoms: C_38  and  C_40
REMARK   12  A    between atoms: C_40  and  O_41
REMARK                            x       y       z     vdW  Elec       q    Type
REMARK                         _______ _______ _______ _____ _____    ______ ____
ROOT
ATOM      1  C   UNL     1       2.885  -1.842   2.406  0.00  0.00    +0.160 C 
ATOM      2  C   UNL     1       2.988  -0.447   3.018  0.00  0.00    +0.075 C 
ATOM      3  C   UNL     1       2.705  -0.495   4.494  0.00  0.00    +0.001 C 
ATOM      4  C   UNL     1       3.107  -1.554   5.239  0.00  0.00    +0.019 C 
ATOM      5  C   UNL     1       3.813  -2.665   4.587  0.00  0.00    +0.027 A 
ATOM      6  C   UNL     1       3.714  -2.814   3.204  0.00  0.00    +0.034 A 
ATOM      7  C   UNL     1       4.376  -3.856   2.569  0.00  0.00    +0.135 A 
ATOM      8  C   UNL     1       5.144  -4.758   3.313  0.00  0.00    +0.078 A 
ATOM      9  C   UNL     1       5.245  -4.612   4.711  0.00  0.00    +0.079 A 
ATOM     10  C   UNL     1       4.581  -3.567   5.345  0.00  0.00    +0.136 A 
ATOM     11  C   UNL     1       6.049  -5.563   5.497  0.00  0.00    +0.198 C 
ATOM     12  O   UNL     1       6.136  -5.436   6.704  0.00  0.00    -0.286 OA
ATOM     13  C   UNL     1       6.750  -6.672   4.818  0.00  0.00    +0.037 A 
ATOM     14  C   UNL     1       7.510  -7.577   5.552  0.00  0.00    +0.012 A 
ATOM     15  C   UNL     1       8.166  -8.614   4.910  0.00  0.00    +0.004 A 
ATOM     16  C   UNL     1       8.073  -8.762   3.541  0.00  0.00    +0.046 A 
ATOM     17  C   UNL     1       7.319  -7.869   2.787  0.00  0.00    +0.132 A 
ATOM     18  C   UNL     1       6.651  -6.816   3.421  0.00  0.00    +0.075 A 
ATOM     19  C   UNL     1       5.846  -5.865   2.635  0.00  0.00    +0.202 C 
ATOM     20  O   UNL     1       5.762  -5.990   1.429  0.00  0.00    -0.286 OA
ENDROOT
BRANCH  10  21
ATOM     21  O   UNL     1       4.675  -3.420   6.688  0.00  0.00    -0.505 OA
ATOM     22  H   UNL     1       3.993  -3.893   7.184  0.00  0.00    +0.292 HD
ENDBRANCH  10  21
BRANCH  17  23
ATOM     23  O   UNL     1       7.231  -8.018   1.442  0.00  0.00    -0.494 OA
ATOM     24  C   UNL     1       7.941  -9.116   0.864  0.00  0.00    +0.277 C 
ENDBRANCH  17  23
BRANCH   7  25
ATOM     25  O   UNL     1       4.279  -3.999   1.223  0.00  0.00    -0.506 OA
ATOM     26  H   UNL     1       4.960  -3.525   0.727  0.00  0.00    +0.292 HD
ENDBRANCH   7  25
BRANCH   3  27
ATOM     27  C   UNL     1       2.016   0.571   5.109  0.00  0.00    +0.184 C 
ATOM     28  O   UNL     1       1.785   0.537   6.301  0.00  0.00    -0.290 OA
BRANCH  27  29
ATOM     29  C   UNL     1       1.566   1.751   4.288  0.00  0.00    +0.235 C 
BRANCH  29  30
ATOM     30  O   UNL     1       0.896   2.691   5.130  0.00  0.00    -0.387 OA
ATOM     31  H   UNL     1       0.578   3.478   4.667  0.00  0.00    +0.210 HD
ENDBRANCH  29  30
ENDBRANCH  27  29
ENDBRANCH   3  27
BRANCH   1  32
ATOM     32  O   UNL     1       1.520  -2.264   2.413  0.00  0.00    -0.343 OA
BRANCH  32  38
ATOM     33  C   UNL     1      -0.019   1.526   0.010  0.00  0.00    +0.040 C 
ATOM     34  C   UNL     1       0.002  -0.004   0.002  0.00  0.00    +0.145 C 
ATOM     35  C   UNL     1      -1.434  -0.534   0.013  0.00  0.00    +0.129 C 
ATOM     36  C   UNL     1      -1.405  -2.065   0.066  0.00  0.00    -0.039 C 
ATOM     37  C   UNL     1      -0.612  -2.507   1.299  0.00  0.00    +0.048 C 
ATOM     38  C   UNL     1       0.793  -1.901   1.238  0.00  0.00    +0.250 C 
ATOM     39  O   UNL     1       0.693  -0.478   1.160  0.00  0.00    -0.346 OA
BRANCH  36  40
ATOM     40  N   UNL     1      -2.778  -2.580   0.151  0.00  0.00    +0.382 N 
ATOM     41  H   UNL     1      -3.300  -2.282  -0.659  0.00  0.00    -0.090 HD
ATOM     42  H   UNL     1      -2.757  -3.588   0.185  0.00  0.00    -0.090 HD
ATOM     43  H   UNL     1      -3.219  -2.224   0.986  0.00  0.00    -0.090 HD
ENDBRANCH  36  40
BRANCH  35  44
ATOM     44  O   UNL     1      -2.110  -0.109  -1.172  0.00  0.00    -0.391 OA
ATOM     45  H   UNL     1      -2.161   0.852  -1.272  0.00  0.00    +0.210 HD
ENDBRANCH  35  44
ENDBRANCH  32  38
ENDBRANCH   1  32
TORSDOF 10
