REMARK  Name = ZINC39708280
REMARK  12 active torsions:
REMARK  status: ('A' for Active; 'I' for Inactive)
REMARK    1  A    between atoms: C_1  and  C_2
REMARK    2  A    between atoms: C_2  and  C_3
REMARK    3  A    between atoms: C_3  and  C_4
REMARK    4  A    between atoms: C_4  and  C_5
REMARK    5  A    between atoms: C_5  and  O_6
REMARK    6  A    between atoms: O_6  and  C_7
REMARK    7  A    between atoms: C_11  and  C_13
REMARK    8  A    between atoms: N_15  and  C_16
REMARK    9  A    between atoms: C_16  and  C_17
REMARK   10  A    between atoms: C_17  and  C_18
REMARK   11  A    between atoms: C_18  and  N_19
REMARK   12  A    between atoms: C_27  and  C_34
REMARK                            x       y       z     vdW  Elec       q    Type
REMARK                         _______ _______ _______ _____ _____    ______ ____
ROOT
ATOM      1  C   UNL     1       2.507  -7.823  -4.918  0.00  0.00    +0.252 C 
ATOM      2  O   UNL     1       2.077  -8.437  -3.962  0.00  0.00    -0.270 OA
ATOM      3  N   UNL     1       3.293  -8.443  -5.819  0.00  0.00    -0.246 N 
ATOM      4  C   UNL     1       3.864  -7.720  -6.853  0.00  0.00    +0.168 A 
ATOM      5  N   UNL     1       5.130  -7.443  -7.063  0.00  0.00    -0.224 NA
ATOM      6  C   UNL     1       5.549  -6.721  -8.124  0.00  0.00    +0.085 A 
ATOM      7  C   UNL     1       6.872  -6.354  -8.464  0.00  0.00    -0.006 A 
ATOM      8  C   UNL     1       7.126  -5.610  -9.587  0.00  0.00    +0.046 A 
ATOM      9  C   UNL     1       6.103  -5.192 -10.427  0.00  0.00    +0.021 A 
ATOM     10  C   UNL     1       4.797  -5.534 -10.125  0.00  0.00    +0.019 A 
ATOM     11  C   UNL     1       4.534  -6.278  -9.003  0.00  0.00    +0.041 A 
ATOM     12  S   UNL     1       3.066  -6.935  -8.246  0.00  0.00    -0.052 S 
ATOM     13 CL   UNL     1       8.765  -5.181  -9.968  0.00  0.00    -0.083 Cl
ATOM     14  C   UNL     1       8.014  -6.784  -7.580  0.00  0.00    +0.047 C 
ENDROOT
BRANCH   1  19
ATOM     15  C   UNL     1       0.582  -4.594  -4.924  0.00  0.00    +0.121 A 
ATOM     16  C   UNL     1       1.535  -3.715  -5.422  0.00  0.00    +0.046 A 
ATOM     17  C   UNL     1       2.797  -4.172  -5.754  0.00  0.00    +0.004 A 
ATOM     18  C   UNL     1       3.118  -5.504  -5.592  0.00  0.00    +0.013 A 
ATOM     19  C   UNL     1       2.167  -6.395  -5.092  0.00  0.00    +0.041 A 
ATOM     20  C   UNL     1       0.895  -5.931  -4.753  0.00  0.00    +0.058 A 
BRANCH  15  21
ATOM     21  O   UNL     1      -0.657  -4.139  -4.598  0.00  0.00    -0.492 OA
BRANCH  21  22
ATOM     22  C   UNL     1      -0.911  -2.747  -4.801  0.00  0.00    +0.229 C 
BRANCH  22  23
ATOM     23  C   UNL     1      -2.347  -2.425  -4.381  0.00  0.00    +0.041 C 
BRANCH  23  24
ATOM     24  C   UNL     1      -2.619  -0.935  -4.598  0.00  0.00    +0.003 C 
BRANCH  24  26
ATOM     25  C   UNL     1      -4.326   0.878  -4.395  0.00  0.00    +0.004 C 
ATOM     26  C   UNL     1      -4.054  -0.612  -4.178  0.00  0.00    -0.003 C 
ENDBRANCH  24  26
ENDBRANCH  23  24
ENDBRANCH  22  23
ENDBRANCH  21  22
ENDBRANCH  15  21
ENDBRANCH   1  19
BRANCH   3  27
ATOM     27  C   UNL     1       3.544  -9.882  -5.706  0.00  0.00    +0.117 C 
BRANCH  27  28
ATOM     28  C   UNL     1       2.478 -10.649  -6.489  0.00  0.00    +0.041 C 
BRANCH  28  29
ATOM     29  C   UNL     1       2.740 -12.152  -6.370  0.00  0.00    +0.124 C 
BRANCH  29  30
ATOM     30  N   UNL     1       1.719 -12.887  -7.121  0.00  0.00    -0.338 N 
ATOM     31  C   UNL     1       0.517 -13.328  -6.638  0.00  0.00    +0.104 A 
ATOM     32  C   UNL     1      -0.107 -13.950  -7.657  0.00  0.00    +0.101 A 
ATOM     33  N   UNL     1       0.692 -13.890  -8.732  0.00  0.00    -0.352 N 
ATOM     34  C   UNL     1       1.786 -13.250  -8.420  0.00  0.00    +0.173 A 
ATOM     35  H   UNL     1       0.488 -14.260  -9.605  0.00  0.00    +0.166 HD
ENDBRANCH  29  30
ENDBRANCH  28  29
ENDBRANCH  27  28
ENDBRANCH   3  27
TORSDOF 10
