REMARK  Name = ZINC37145565
REMARK  3 active torsions:
REMARK  status: ('A' for Active; 'I' for Inactive)
REMARK    1  A    between atoms: C_1  and  C_2
REMARK    2  A    between atoms: N_5  and  C_8
REMARK    3  A    between atoms: C_13  and  C_15
REMARK                            x       y       z     vdW  Elec       q    Type
REMARK                         _______ _______ _______ _____ _____    ______ ____
ROOT
ATOM      1  C   UNL     1      -0.281   1.526  -0.097  0.00  0.00    +0.007 C 
ATOM      2  C   UNL     1      -0.290  -0.004  -0.118  0.00  0.00    -0.018 C 
ATOM      3  C   UNL     1      -1.688  -0.512   0.246  0.00  0.00    -0.016 C 
ATOM      4  C   UNL     1      -1.671  -2.042   0.301  0.00  0.00    -0.078 C 
ATOM      5  N   UNL     1      -0.707  -2.487   1.315  0.00  0.00    +0.382 N 
ATOM      6  C   UNL     1       0.646  -2.064   0.935  0.00  0.00    -0.078 C 
ATOM      7  C   UNL     1       0.718  -0.536   0.905  0.00  0.00    -0.016 C 
ATOM      8  H   UNL     1      -0.948  -2.082   2.207  0.00  0.00    -0.081 HD
ENDROOT
BRANCH   5   9
ATOM      9  C   UNL     1      -0.750  -3.952   1.419  0.00  0.00    -0.051 C 
ATOM     10  C   UNL     1      -2.197  -4.421   1.673  0.00  0.00    -0.014 C 
ATOM     11  C   UNL     1      -2.044  -5.616   2.647  0.00  0.00    -0.000 C 
ATOM     12  C   UNL     1      -0.889  -5.157   3.571  0.00  0.00    +0.016 C 
ATOM     13  C   UNL     1       0.083  -4.419   2.625  0.00  0.00    +0.078 C 
BRANCH  13  14
ATOM     14  C   UNL     1       0.672  -3.258   3.311  0.00  0.00    +0.064 C 
ATOM     15  N   UNL     1       1.127  -2.362   3.841  0.00  0.00    -0.196 NA
ENDBRANCH  13  14
ENDBRANCH   5   9
TORSDOF 2
