REMARK  Name = ZINC02153680
REMARK  5 active torsions:
REMARK  status: ('A' for Active; 'I' for Inactive)
REMARK    1  A    between atoms: C_11  and  C_31
REMARK    2  A    between atoms: N_19  and  C_23
REMARK    3  A    between atoms: C_23  and  C_24
REMARK    4  A    between atoms: C_24  and  C_25
REMARK    5  A    between atoms: C_25  and  N_64
REMARK                            x       y       z     vdW  Elec       q    Type
REMARK                         _______ _______ _______ _____ _____    ______ ____
ROOT
ATOM      1  C   UNL     1      -9.221  11.893  -4.346  0.00  0.00    +0.001 A 
ATOM      2  C   UNL     1      -8.948  13.236  -4.148  0.00  0.00    +0.002 A 
ATOM      3  C   UNL     1      -7.720  13.681  -3.689  0.00  0.00    +0.026 A 
ATOM      4  C   UNL     1      -6.754  12.710  -3.431  0.00  0.00    +0.047 A 
ATOM      5  C   UNL     1      -7.039  11.336  -3.637  0.00  0.00    +0.003 A 
ATOM      6  C   UNL     1      -8.289  10.915  -4.101  0.00  0.00    +0.010 A 
ATOM      7  C   UNL     1      -5.832  10.618  -3.279  0.00  0.00    -0.015 A 
ATOM      8  C   UNL     1      -4.925  11.541  -2.891  0.00  0.00    +0.046 A 
ATOM      9  N   UNL     1      -5.469  12.795  -2.979  0.00  0.00    -0.356 N 
ATOM     10  H   UNL     1      -5.010  13.620  -2.754  0.00  0.00    +0.166 HD
ATOM     11  C   UNL     1      -3.527  11.195  -2.432  0.00  0.00    +0.154 C 
ATOM     12  N   UNL     1      -3.290   9.775  -2.771  0.00  0.00    -0.276 N 
ATOM     13  C   UNL     1      -4.348   8.814  -2.461  0.00  0.00    +0.167 C 
ATOM     14  C   UNL     1      -5.583   9.132  -3.316  0.00  0.00    +0.069 C 
ATOM     15  C   UNL     1      -3.918   7.405  -2.713  0.00  0.00    +0.237 C 
ATOM     16  O   UNL     1      -4.684   6.515  -2.410  0.00  0.00    -0.274 OA
ATOM     17  N   UNL     1      -2.746   7.064  -3.245  0.00  0.00    -0.291 N 
ATOM     18  C   UNL     1      -1.734   8.024  -3.653  0.00  0.00    +0.203 C 
ATOM     19  C   UNL     1      -2.132   9.429  -3.336  0.00  0.00    +0.234 C 
ATOM     20  O   UNL     1      -1.349  10.315  -3.610  0.00  0.00    -0.274 OA
ENDROOT
BRANCH  11  21
ATOM     21  C   UNL     1      -3.414  11.391  -0.942  0.00  0.00    -0.021 A 
ATOM     22  C   UNL     1      -4.328  10.792  -0.095  0.00  0.00    +0.007 A 
ATOM     23  C   UNL     1      -4.222  10.967   1.272  0.00  0.00    +0.020 A 
ATOM     24  C   UNL     1      -3.207  11.751   1.792  0.00  0.00    +0.041 A 
ATOM     25  C   UNL     1      -2.296  12.355   0.944  0.00  0.00    +0.020 A 
ATOM     26  C   UNL     1      -2.400  12.174  -0.423  0.00  0.00    +0.007 A 
ATOM     27 CL   UNL     1      -3.077  11.977   3.508  0.00  0.00    -0.084 Cl
ENDBRANCH  11  21
BRANCH  17  28
ATOM     28  C   UNL     1      -2.462   5.640  -3.434  0.00  0.00    +0.106 C 
BRANCH  28  29
ATOM     29  C   UNL     1      -1.777   5.086  -2.183  0.00  0.00    +0.000 C 
BRANCH  29  30
ATOM     30  C   UNL     1      -1.480   3.598  -2.381  0.00  0.00    -0.077 C 
BRANCH  30  36
ATOM     31  C   UNL     1      -0.735   1.599  -1.233  0.00  0.00    -0.050 C 
ATOM     32  C   UNL     1       0.009   1.093   0.005  0.00  0.00    +0.141 C 
ATOM     33  O   UNL     1      -0.663   1.553   1.181  0.00  0.00    -0.383 OA
ATOM     34  C   UNL     1      -0.766   2.977   1.265  0.00  0.00    +0.141 C 
ATOM     35  C   UNL     1      -1.518   3.503   0.039  0.00  0.00    -0.050 C 
ATOM     36  N   UNL     1      -0.797   3.075  -1.178  0.00  0.00    +0.383 N 
ATOM     37  H   UNL     1       0.159   3.449  -1.149  0.00  0.00    -0.082 HD
ENDBRANCH  30  36
ENDBRANCH  29  30
ENDBRANCH  28  29
ENDBRANCH  17  28
TORSDOF 5
