REMARK  Name = ZINC22808046
REMARK  7 active torsions:
REMARK  status: ('A' for Active; 'I' for Inactive)
REMARK    1  A    between atoms: C_1  and  C_2
REMARK    2  A    between atoms: C_2  and  O_3
REMARK    3  A    between atoms: O_3  and  C_4
REMARK    4  A    between atoms: C_8  and  N_10
REMARK    5  A    between atoms: C_14  and  N_18
REMARK    6  A    between atoms: N_21  and  C_24
REMARK    7  A    between atoms: C_24  and  C_25
REMARK                            x       y       z     vdW  Elec       q    Type
REMARK                         _______ _______ _______ _____ _____    ______ ____
ROOT
ATOM      1  N   UNL     1      -6.372  -6.548  -1.300  0.00  0.00    -0.295 NA
ATOM      2  C   UNL     1      -5.840  -5.841  -2.474  0.00  0.00    +0.066 C 
ATOM      3  C   UNL     1      -6.374  -6.500  -3.748  0.00  0.00    -0.063 C 
ATOM      4  N   UNL     1      -5.967  -7.911  -3.778  0.00  0.00    +0.384 N 
ATOM      5  C   UNL     1      -6.527  -8.608  -2.613  0.00  0.00    -0.063 C 
ATOM      6  C   UNL     1      -5.994  -7.968  -1.329  0.00  0.00    +0.066 C 
ATOM      7  H   UNL     1      -4.960  -7.971  -3.754  0.00  0.00    -0.081 HD
ENDROOT
BRANCH   1  12
ATOM      8  N   UNL     1      -4.218  -4.332   0.008  0.00  0.00    -0.209 N 
ATOM      9  C   UNL     1      -5.328  -3.591   0.109  0.00  0.00    +0.228 C 
ATOM     10  O   UNL     1      -5.360  -2.383   0.207  0.00  0.00    -0.275 OA
ATOM     11  C   UNL     1      -6.537  -4.500   0.082  0.00  0.00    +0.125 C 
ATOM     12  C   UNL     1      -5.927  -5.909  -0.055  0.00  0.00    +0.153 C 
ATOM     13  C   UNL     1      -4.437  -5.648  -0.095  0.00  0.00    +0.244 C 
ATOM     14  O   UNL     1      -3.578  -6.497  -0.202  0.00  0.00    -0.273 OA
BRANCH   8  19
ATOM     15  C   UNL     1      -0.796  -3.462   1.056  0.00  0.00    +0.122 A 
ATOM     16  C   UNL     1      -0.391  -2.669  -0.008  0.00  0.00    +0.046 A 
ATOM     17  C   UNL     1      -1.253  -2.430  -1.061  0.00  0.00    +0.005 A 
ATOM     18  C   UNL     1      -2.521  -2.980  -1.058  0.00  0.00    +0.024 A 
ATOM     19  C   UNL     1      -2.931  -3.774   0.004  0.00  0.00    +0.047 A 
ATOM     20  C   UNL     1      -2.065  -4.020   1.060  0.00  0.00    +0.069 A 
BRANCH  15  21
ATOM     21  O   UNL     1       0.053  -3.697   2.091  0.00  0.00    -0.492 OA
BRANCH  21  23
ATOM     22  C   UNL     1       2.153  -3.465   3.265  0.00  0.00    +0.048 C 
ATOM     23  C   UNL     1       1.345  -3.090   2.021  0.00  0.00    +0.225 C 
ENDBRANCH  21  23
ENDBRANCH  15  21
ENDBRANCH   8  19
ENDBRANCH   1  12
BRANCH   4  24
ATOM     24  C   UNL     1      -6.465  -8.538  -5.010  0.00  0.00    -0.043 C 
BRANCH  24  25
ATOM     25  C   UNL     1      -5.946  -9.949  -5.100  0.00  0.00    -0.060 A 
ATOM     26  C   UNL     1      -4.740 -10.202  -5.727  0.00  0.00    +0.005 A 
ATOM     27  C   UNL     1      -4.259 -11.495  -5.812  0.00  0.00    +0.050 A 
ATOM     28  C   UNL     1      -4.985 -12.542  -5.269  0.00  0.00    +0.166 A 
ATOM     29  C   UNL     1      -6.200 -12.288  -4.638  0.00  0.00    +0.166 A 
ATOM     30  C   UNL     1      -6.673 -10.989  -4.551  0.00  0.00    +0.051 A 
ATOM     31  O   UNL     1      -6.716 -13.471  -4.192  0.00  0.00    -0.453 OA
ATOM     32  C   UNL     1      -6.007 -14.495  -4.914  0.00  0.00    +0.466 C 
ATOM     33  O   UNL     1      -4.740 -13.884  -5.220  0.00  0.00    -0.453 OA
ENDBRANCH  24  25
ENDBRANCH   4  24
TORSDOF 6
