REMARK  Name = ZINC09100884
REMARK  11 active torsions:
REMARK  status: ('A' for Active; 'I' for Inactive)
REMARK    1  A    between atoms: C_1  and  C_2
REMARK    2  A    between atoms: C_2  and  C_4
REMARK    3  A    between atoms: C_2  and  N_52
REMARK    4  A    between atoms: C_7  and  S_16
REMARK    5  A    between atoms: N_8  and  C_9
REMARK    6  A    between atoms: S_16  and  C_17
REMARK    7  A    between atoms: C_17  and  C_18
REMARK    8  A    between atoms: N_20  and  C_21
REMARK    9  A    between atoms: C_24  and  N_28
REMARK   10  A    between atoms: C_31  and  N_52
REMARK   11  A    between atoms: C_32  and  N_52
REMARK                            x       y       z     vdW  Elec       q    Type
REMARK                         _______ _______ _______ _____ _____    ______ ____
ROOT
ATOM      1  C   UNL     1       1.205   1.745   0.056  0.00  0.00    +0.125 A 
ATOM      2  N   UNL     1      -0.012   1.280   0.061  0.00  0.00    -0.135 NA
ATOM      3  N   UNL     1       0.005  -0.005   0.044  0.00  0.00    -0.122 NA
ATOM      4  C   UNL     1       1.245  -0.436   0.026  0.00  0.00    +0.197 A 
ATOM      5  N   UNL     1       2.052   0.669   0.033  0.00  0.00    -0.275 N 
ENDROOT
BRANCH   5   6
ATOM      6  C   UNL     1       3.454   0.694   0.020  0.00  0.00    +0.050 A 
ATOM      7  C   UNL     1       4.151   1.205   1.107  0.00  0.00    +0.028 A 
ATOM      8  C   UNL     1       5.532   1.225   1.094  0.00  0.00    +0.022 A 
ATOM      9  C   UNL     1       6.221   0.744  -0.005  0.00  0.00    +0.041 A 
ATOM     10  C   UNL     1       5.529   0.238  -1.092  0.00  0.00    +0.022 A 
ATOM     11  C   UNL     1       4.148   0.212  -1.081  0.00  0.00    +0.028 A 
ATOM     12 CL   UNL     1       7.957   0.775  -0.021  0.00  0.00    -0.084 Cl
ENDBRANCH   5   6
BRANCH   1  14
ATOM     13  C   UNL     1       1.369   3.807  -1.313  0.00  0.00    -0.005 C 
ATOM     14  C   UNL     1       1.607   3.197   0.070  0.00  0.00    -0.003 C 
BRANCH  14  17
ATOM     15  C   UNL     1       0.934   3.300   2.394  0.00  0.00    -0.096 C 
ATOM     16  C   UNL     1       1.168   5.340   1.110  0.00  0.00    -0.096 C 
ATOM     17  N   UNL     1       0.776   3.916   1.060  0.00  0.00    +0.382 N 
ATOM     18  H   UNL     1      -0.209   3.851   0.777  0.00  0.00    -0.082 HD
ENDBRANCH  14  17
ENDBRANCH   1  14
BRANCH   4  19
ATOM     19  S   UNL     1       1.770  -2.117  -0.001  0.00  0.00    -0.076 S 
BRANCH  19  20
ATOM     20  C   UNL     1       0.162  -2.949   0.003  0.00  0.00    +0.173 C 
BRANCH  20  21
ATOM     21  C   UNL     1       0.368  -4.441  -0.018  0.00  0.00    +0.228 C 
ATOM     22  O   UNL     1       1.491  -4.898  -0.035  0.00  0.00    -0.275 OA
ATOM     23  N   UNL     1      -0.696  -5.269  -0.019  0.00  0.00    -0.284 N 
ATOM     24  H   UNL     1      -1.592  -4.906   0.060  0.00  0.00    +0.155 HD
BRANCH  23  25
ATOM     25  C   UNL     1      -0.508  -6.651  -0.134  0.00  0.00    +0.052 A 
ATOM     26  C   UNL     1       0.603  -7.252   0.444  0.00  0.00    +0.027 A 
ATOM     27  C   UNL     1       0.786  -8.616   0.330  0.00  0.00    +0.034 A 
ATOM     28  C   UNL     1      -0.135  -9.384  -0.360  0.00  0.00    +0.128 A 
ATOM     29  C   UNL     1      -1.242  -8.789  -0.937  0.00  0.00    +0.054 A 
ATOM     30  C   UNL     1      -1.434  -7.425  -0.821  0.00  0.00    +0.064 A 
ATOM     31 CL   UNL     1      -2.828  -6.680  -1.539  0.00  0.00    -0.082 Cl
BRANCH  28  32
ATOM     32  N   UNL     1       0.065 -10.846  -0.480  0.00  0.00    +0.056 N 
ATOM     33  O   UNL     1       1.039 -11.371   0.028  0.00  0.00    -0.126 OA
ATOM     34  O   UNL     1      -0.746 -11.523  -1.087  0.00  0.00    -0.126 OA
ENDBRANCH  28  32
ENDBRANCH  23  25
ENDBRANCH  20  21
ENDBRANCH  19  20
ENDBRANCH   4  19
TORSDOF 8
