REMARK  Name = ZINC12958920
REMARK  9 active torsions:
REMARK  status: ('A' for Active; 'I' for Inactive)
REMARK    1  A    between atoms: C_1  and  C_2
REMARK    2  A    between atoms: N_4  and  C_11
REMARK    3  A    between atoms: C_14  and  O_40
REMARK    4  A    between atoms: C_16  and  C_19
REMARK    5  A    between atoms: C_19  and  O_20
REMARK    6  A    between atoms: O_20  and  C_21
REMARK    7  A    between atoms: C_21  and  C_22
REMARK    8  A    between atoms: C_21  and  C_28
REMARK    9  A    between atoms: C_21  and  C_34
REMARK                            x       y       z     vdW  Elec       q    Type
REMARK                         _______ _______ _______ _____ _____    ______ ____
ROOT
ATOM      1  O   UNL     1      -0.719   1.230   0.010  0.00  0.00    -0.357 OA
ENDROOT
BRANCH   1   2
ATOM      2  C   UNL     1       0.112   2.388   0.103  0.00  0.00    +0.196 C 
BRANCH   2   6
ATOM      3  C   UNL     1      -1.903   5.108   1.488  0.00  0.00    +0.226 C 
ATOM      4  C   UNL     1      -0.846   5.961   0.760  0.00  0.00    +0.088 C 
ATOM      5  C   UNL     1       0.117   4.920   0.132  0.00  0.00    +0.150 C 
ATOM      6  C   UNL     1      -0.762   3.644   0.104  0.00  0.00    +0.175 C 
ATOM      7  O   UNL     1      -1.527   3.730   1.325  0.00  0.00    -0.348 OA
BRANCH   3  11
ATOM      8  C   UNL     1      -4.296   6.954   5.383  0.00  0.00    +0.051 C 
ATOM      9  C   UNL     1      -3.069   6.333   4.768  0.00  0.00    +0.030 A 
ATOM     10  C   UNL     1      -3.048   6.016   3.455  0.00  0.00    +0.101 A 
ATOM     11  N   UNL     1      -1.925   5.453   2.912  0.00  0.00    -0.274 N 
ATOM     12  C   UNL     1      -0.844   5.208   3.674  0.00  0.00    +0.331 A 
ATOM     13  O   UNL     1       0.141   4.703   3.172  0.00  0.00    -0.246 OA
ATOM     14  N   UNL     1      -0.836   5.519   4.984  0.00  0.00    -0.275 N 
ATOM     15  H   UNL     1      -0.021   5.337   5.534  0.00  0.00    +0.173 HD
ATOM     16  C   UNL     1      -1.923   6.075   5.557  0.00  0.00    +0.257 A 
ATOM     17  O   UNL     1      -1.918   6.352   6.743  0.00  0.00    -0.267 OA
ENDBRANCH   3  11
BRANCH   5  18
ATOM     18  O   UNL     1       0.498   5.306  -1.190  0.00  0.00    -0.389 OA
ATOM     19  H   UNL     1       1.049   6.101  -1.224  0.00  0.00    +0.210 HD
ENDBRANCH   5  18
ENDBRANCH   2   6
ENDBRANCH   1   2
BRANCH   1  20
ATOM     20  C   UNL     1       0.002  -0.004   0.002  0.00  0.00    +0.144 C 
BRANCH  20  21
ATOM     21  C   UNL     1       0.937  -0.032  -1.180  0.00  0.00    -0.007 A 
ATOM     22  C   UNL     1       2.282   0.234  -1.004  0.00  0.00    +0.007 A 
ATOM     23  C   UNL     1       3.140   0.204  -2.087  0.00  0.00    +0.000 A 
ATOM     24  C   UNL     1       2.651  -0.082  -3.348  0.00  0.00    +0.000 A 
ATOM     25  C   UNL     1       1.305  -0.342  -3.525  0.00  0.00    +0.000 A 
ATOM     26  C   UNL     1       0.448  -0.317  -2.441  0.00  0.00    +0.007 A 
ENDBRANCH  20  21
BRANCH  20  27
ATOM     27  C   UNL     1       0.799  -0.129   1.275  0.00  0.00    -0.007 A 
ATOM     28  C   UNL     1       1.813  -1.063   1.367  0.00  0.00    +0.007 A 
ATOM     29  C   UNL     1       2.547  -1.174   2.533  0.00  0.00    +0.000 A 
ATOM     30  C   UNL     1       2.260  -0.358   3.611  0.00  0.00    +0.000 A 
ATOM     31  C   UNL     1       1.242   0.573   3.521  0.00  0.00    +0.000 A 
ATOM     32  C   UNL     1       0.511   0.688   2.353  0.00  0.00    +0.007 A 
ENDBRANCH  20  27
BRANCH  20  33
ATOM     33  C   UNL     1      -0.968  -1.153  -0.098  0.00  0.00    -0.007 A 
ATOM     34  C   UNL     1      -0.591  -2.324  -0.728  0.00  0.00    +0.007 A 
ATOM     35  C   UNL     1      -1.479  -3.379  -0.815  0.00  0.00    +0.000 A 
ATOM     36  C   UNL     1      -2.748  -3.260  -0.282  0.00  0.00    +0.000 A 
ATOM     37  C   UNL     1      -3.128  -2.087   0.343  0.00  0.00    +0.000 A 
ATOM     38  C   UNL     1      -2.238  -1.033   0.435  0.00  0.00    +0.007 A 
ENDBRANCH  20  33
ENDBRANCH   1  20
TORSDOF 8
