REMARK  Name = ZINC09139654
REMARK  5 active torsions:
REMARK  status: ('A' for Active; 'I' for Inactive)
REMARK    1  A    between atoms: C_10  and  C_12
REMARK    2  A    between atoms: N_14  and  C_15
REMARK    3  A    between atoms: C_17  and  S_27
REMARK    4  A    between atoms: C_20  and  N_21
REMARK    5  A    between atoms: S_27  and  N_30
REMARK                            x       y       z     vdW  Elec       q    Type
REMARK                         _______ _______ _______ _____ _____    ______ ____
ROOT
ATOM      1  C   UNL     1      -1.497   3.568  -3.045  0.00  0.00    +0.057 A 
ATOM      2  C   UNL     1      -0.764   3.180  -1.933  0.00  0.00    +0.053 A 
ATOM      3  C   UNL     1      -0.964   1.932  -1.374  0.00  0.00    +0.107 A 
ATOM      4  C   UNL     1      -1.891   1.064  -1.923  0.00  0.00    +0.030 A 
ATOM      5  C   UNL     1      -2.630   1.444  -3.027  0.00  0.00    +0.027 A 
ATOM      6  C   UNL     1      -2.436   2.695  -3.595  0.00  0.00    +0.051 A 
ENDROOT
BRANCH   6   7
ATOM      7  N   UNL     1      -3.179   3.079  -4.716  0.00  0.00    -0.328 N 
ATOM      8  C   UNL     1      -4.609   3.167  -4.394  0.00  0.00    +0.105 C 
ATOM      9  C   UNL     1      -5.370   3.729  -5.597  0.00  0.00    +0.019 C 
ATOM     10  C   UNL     1      -5.155   2.811  -6.804  0.00  0.00    +0.003 C 
ATOM     11  C   UNL     1      -3.655   2.698  -7.088  0.00  0.00    +0.019 C 
ATOM     12  C   UNL     1      -2.943   2.167  -5.842  0.00  0.00    +0.105 C 
ENDBRANCH   6   7
BRANCH   1  15
ATOM     13  C   UNL     1      -0.117   5.464  -3.447  0.00  0.00    +0.284 C 
ATOM     14  O   UNL     1       0.804   4.898  -2.892  0.00  0.00    -0.266 OA
ATOM     15  N   UNL     1      -1.296   4.831  -3.613  0.00  0.00    -0.277 N 
ATOM     16  H   UNL     1      -2.004   5.250  -4.126  0.00  0.00    +0.155 HD
BRANCH  13  26
ATOM     17  C   UNL     1      -0.779  11.299  -6.026  0.00  0.00    +0.001 A 
ATOM     18  C   UNL     1      -1.949  10.562  -6.147  0.00  0.00    +0.004 A 
ATOM     19  C   UNL     1      -2.026   9.276  -5.659  0.00  0.00    +0.047 A 
ATOM     20  C   UNL     1      -0.921   8.705  -5.035  0.00  0.00    +0.139 A 
ATOM     21  C   UNL     1       0.260   9.457  -4.916  0.00  0.00    +0.064 A 
ATOM     22  C   UNL     1       0.319  10.758  -5.417  0.00  0.00    +0.015 A 
ATOM     23  C   UNL     1       1.423   8.837  -4.253  0.00  0.00    +0.193 A 
ATOM     24  O   UNL     1       2.475   9.435  -4.118  0.00  0.00    -0.287 OA
ATOM     25  C   UNL     1       1.250   7.462  -3.762  0.00  0.00    +0.103 A 
ATOM     26  C   UNL     1       0.055   6.850  -3.942  0.00  0.00    +0.194 A 
ATOM     27  O   UNL     1      -0.977   7.447  -4.556  0.00  0.00    -0.450 OA
ENDBRANCH  13  26
ENDBRANCH   1  15
BRANCH   3  28
ATOM     28  S   UNL     1      -0.031   1.442   0.038  0.00  0.00    +0.061 S 
ATOM     29  O   UNL     1      -0.015   0.021   0.041  0.00  0.00    -0.153 OA
ATOM     30  O   UNL     1       1.160   2.217   0.026  0.00  0.00    -0.153 OA
BRANCH  28  31
ATOM     31  N   UNL     1      -0.887   1.908   1.377  0.00  0.00    -0.177 NA
ATOM     32  C   UNL     1      -0.672   3.232   1.978  0.00  0.00    +0.109 C 
ATOM     33  C   UNL     1      -2.030   3.943   2.090  0.00  0.00    +0.017 C 
ATOM     34  C   UNL     1      -3.004   3.051   2.863  0.00  0.00    +0.003 C 
ATOM     35  C   UNL     1      -3.210   1.738   2.104  0.00  0.00    +0.017 C 
ATOM     36  C   UNL     1      -1.870   1.004   1.989  0.00  0.00    +0.109 C 
ENDBRANCH  28  31
ENDBRANCH   3  28
TORSDOF 5
