REMARK  Name = ZINC00622998
REMARK  10 active torsions:
REMARK  status: ('A' for Active; 'I' for Inactive)
REMARK    1  A    between atoms: C_1  and  C_2
REMARK    2  A    between atoms: C_6  and  C_8
REMARK    3  A    between atoms: C_8  and  O_9
REMARK    4  A    between atoms: O_9  and  C_10
REMARK    5  A    between atoms: C_11  and  O_32
REMARK    6  A    between atoms: C_13  and  C_17
REMARK    7  A    between atoms: C_20  and  C_31
REMARK    8  A    between atoms: C_26  and  N_30
REMARK    9  A    between atoms: C_27  and  C_28
REMARK   10  A    between atoms: O_32  and  C_33
REMARK                            x       y       z     vdW  Elec       q    Type
REMARK                         _______ _______ _______ _____ _____    ______ ____
ROOT
ATOM      1  C   UNL     1      -5.503   1.018   3.882  0.00  0.00    +0.176 A 
ATOM      2  C   UNL     1      -6.124   0.498   2.750  0.00  0.00    +0.163 A 
ATOM      3  C   UNL     1      -5.542   0.670   1.505  0.00  0.00    +0.054 A 
ATOM      4  C   UNL     1      -4.347   1.355   1.388  0.00  0.00    -0.030 A 
ATOM      5  C   UNL     1      -3.727   1.867   2.513  0.00  0.00    +0.023 A 
ATOM      6  C   UNL     1      -4.306   1.704   3.759  0.00  0.00    +0.063 A 
ATOM      7 BR   UNL     1      -3.459   2.412   5.295  0.00  0.00    -0.046 Br
ENDROOT
BRANCH   4   8
ATOM      8  C   UNL     1      -3.715   1.540   0.033  0.00  0.00    +0.101 C 
ATOM      9  C   UNL     1      -3.555   3.010  -0.258  0.00  0.00    +0.049 A 
ATOM     10  C   UNL     1      -4.523   3.955  -0.571  0.00  0.00    +0.068 A 
ATOM     11  N   UNL     1      -3.925   5.110  -0.742  0.00  0.00    -0.176 NA
ATOM     12  N   UNL     1      -2.547   4.930  -0.541  0.00  0.00    -0.246 N 
ATOM     13  H   UNL     1      -1.845   5.639  -0.606  0.00  0.00    +0.192 HD
ATOM     14  C   UNL     1      -2.340   3.637  -0.246  0.00  0.00    +0.222 A 
ATOM     15  O   UNL     1      -1.182   2.984   0.029  0.00  0.00    -0.423 OA
ATOM     16  C   UNL     1      -1.209   1.636   0.017  0.00  0.00    +0.200 C 
ATOM     17  C   UNL     1      -2.346   0.906   0.018  0.00  0.00    +0.098 C 
ATOM     18  C   UNL     1      -6.003   3.699  -0.693  0.00  0.00    +0.068 C 
BRANCH  16  19
ATOM     19  N   UNL     1      -0.011   0.966   0.007  0.00  0.00    -0.328 N 
ATOM     20  H   UNL     1       0.002  -0.004   0.002  0.00  0.00    +0.145 HD
ATOM     21  H   UNL     1       0.822   1.462   0.002  0.00  0.00    +0.145 HD
ENDBRANCH  16  19
BRANCH  17  22
ATOM     22  C   UNL     1      -2.249  -0.523   0.005  0.00  0.00    +0.101 C 
ATOM     23  N   UNL     1      -2.171  -1.656  -0.006  0.00  0.00    -0.191 NA
ENDBRANCH  17  22
ENDBRANCH   4   8
BRANCH   2  24
ATOM     24  O   UNL     1      -7.299  -0.177   2.866  0.00  0.00    -0.491 OA
ATOM     25  C   UNL     1      -7.878  -0.682   1.661  0.00  0.00    +0.277 C 
ENDBRANCH   2  24
BRANCH   1  26
ATOM     26  O   UNL     1      -6.071   0.851   5.107  0.00  0.00    -0.483 OA
BRANCH  26  27
ATOM     27  C   UNL     1      -5.701  -0.318   5.841  0.00  0.00    +0.264 C 
BRANCH  27  33
ATOM     28  C   UNL     1      -5.885   0.898  10.692  0.00  0.00    +0.044 C 
ATOM     29  C   UNL     1      -6.512   0.251   9.484  0.00  0.00    -0.050 A 
ATOM     30  C   UNL     1      -7.749  -0.357   9.589  0.00  0.00    +0.003 A 
ATOM     31  C   UNL     1      -8.324  -0.951   8.481  0.00  0.00    +0.001 A 
ATOM     32  C   UNL     1      -7.661  -0.938   7.268  0.00  0.00    +0.007 A 
ATOM     33  C   UNL     1      -6.424  -0.331   7.163  0.00  0.00    -0.010 A 
ATOM     34  C   UNL     1      -5.847   0.259   8.272  0.00  0.00    +0.010 A 
ENDBRANCH  27  33
ENDBRANCH  26  27
ENDBRANCH   1  26
TORSDOF 7
