REMARK  Name = ZINC40167873
REMARK  7 active torsions:
REMARK  status: ('A' for Active; 'I' for Inactive)
REMARK    1  A    between atoms: C_1  and  C_2
REMARK    2  A    between atoms: C_2  and  C_3
REMARK    3  A    between atoms: C_3  and  C_5
REMARK    4  A    between atoms: C_3  and  O_20
REMARK    5  A    between atoms: C_10  and  C_13
REMARK    6  A    between atoms: O_20  and  C_21
REMARK    7  A    between atoms: C_31  and  C_32
REMARK                            x       y       z     vdW  Elec       q    Type
REMARK                         _______ _______ _______ _____ _____    ______ ____
ROOT
ATOM      1  C   UNL     1      -1.181  -0.097  -0.309  0.00  0.00    +0.259 C 
ENDROOT
BRANCH   1   2
ATOM      2  C   UNL     1      -1.062  -1.565  -0.629  0.00  0.00    +0.259 C 
ATOM      3  O   UNL     1      -1.351  -2.393   0.207  0.00  0.00    -0.271 OA
ATOM      4  N   UNL     1      -0.634  -1.956  -1.846  0.00  0.00    -0.262 N 
ATOM      5  C   UNL     1      -0.628  -3.305  -2.180  0.00  0.00    +0.165 A 
ATOM      6  N   UNL     1      -0.248  -3.886  -3.302  0.00  0.00    -0.225 NA
ATOM      7  C   UNL     1      -0.310  -5.201  -3.452  0.00  0.00    +0.080 A 
ATOM      8  C   UNL     1      -0.778  -5.971  -2.424  0.00  0.00    +0.076 A 
ATOM      9  S   UNL     1      -1.127  -4.714  -1.200  0.00  0.00    -0.060 S 
ATOM     10  H   UNL     1      -0.330  -1.296  -2.489  0.00  0.00    +0.157 HD
BRANCH   7  11
ATOM     11  C   UNL     1       0.123  -5.831  -4.723  0.00  0.00    +0.001 A 
ATOM     12  C   UNL     1       0.050  -7.214  -4.877  0.00  0.00    +0.011 A 
ATOM     13  C   UNL     1       0.454  -7.796  -6.062  0.00  0.00    +0.020 A 
ATOM     14  C   UNL     1       0.931  -7.008  -7.095  0.00  0.00    +0.041 A 
ATOM     15  C   UNL     1       1.007  -5.633  -6.946  0.00  0.00    +0.020 A 
ATOM     16  C   UNL     1       0.599  -5.042  -5.768  0.00  0.00    +0.011 A 
ATOM     17 CL   UNL     1       1.439  -7.746  -8.582  0.00  0.00    -0.084 Cl
ENDBRANCH   7  11
ENDBRANCH   1   2
BRANCH   1  19
ATOM     18  C   UNL     1       0.080   2.053  -0.136  0.00  0.00    +0.008 C 
ATOM     19  C   UNL     1       0.212   0.537  -0.296  0.00  0.00    +0.051 C 
ENDBRANCH   1  19
BRANCH   1  20
ATOM     20  O   UNL     1      -1.789   0.062   0.975  0.00  0.00    -0.472 OA
BRANCH  20  21
ATOM     21  C   UNL     1      -2.587   1.150   1.149  0.00  0.00    +0.212 A 
ATOM     22  C   UNL     1      -3.745   1.324   0.348  0.00  0.00    +0.235 A 
ATOM     23  O   UNL     1      -4.052   0.510  -0.508  0.00  0.00    -0.283 OA
ATOM     24  C   UNL     1      -4.564   2.526   0.592  0.00  0.00    +0.068 A 
ATOM     25  C   UNL     1      -5.720   2.778  -0.146  0.00  0.00    +0.015 A 
ATOM     26  C   UNL     1      -6.458   3.912   0.112  0.00  0.00    +0.001 A 
ATOM     27  C   UNL     1      -6.056   4.799   1.100  0.00  0.00    +0.004 A 
ATOM     28  C   UNL     1      -4.915   4.562   1.837  0.00  0.00    +0.047 A 
ATOM     29  C   UNL     1      -4.156   3.423   1.593  0.00  0.00    +0.140 A 
ATOM     30  O   UNL     1      -3.038   3.173   2.304  0.00  0.00    -0.451 OA
ATOM     31  C   UNL     1      -2.284   2.080   2.098  0.00  0.00    +0.181 A 
BRANCH  31  32
ATOM     32  C   UNL     1      -1.079   1.882   2.927  0.00  0.00    +0.021 A 
ATOM     33  C   UNL     1      -0.192   2.940   3.140  0.00  0.00    +0.012 A 
ATOM     34  C   UNL     1       0.932   2.748   3.916  0.00  0.00    +0.001 A 
ATOM     35  C   UNL     1       1.182   1.511   4.482  0.00  0.00    +0.000 A 
ATOM     36  C   UNL     1       0.308   0.458   4.275  0.00  0.00    +0.001 A 
ATOM     37  C   UNL     1      -0.823   0.637   3.507  0.00  0.00    +0.012 A 
ENDBRANCH  31  32
ENDBRANCH  20  21
ENDBRANCH   1  20
TORSDOF 6
