REMARK  Name = ZINC02310107
REMARK  12 active torsions:
REMARK  status: ('A' for Active; 'I' for Inactive)
REMARK    1  A    between atoms: C_1  and  C_2
REMARK    2  A    between atoms: C_2  and  C_3
REMARK    3  A    between atoms: C_6  and  N_9
REMARK    4  A    between atoms: C_10  and  C_12
REMARK    5  A    between atoms: C_12  and  S_13
REMARK    6  A    between atoms: S_13  and  C_14
REMARK    7  A    between atoms: C_15  and  C_35
REMARK    8  A    between atoms: C_16  and  C_28
REMARK    9  A    between atoms: C_18  and  C_23
REMARK   10  A    between atoms: C_23  and  O_25
REMARK   11  A    between atoms: O_25  and  C_26
REMARK   12  A    between atoms: C_26  and  C_27
REMARK                            x       y       z     vdW  Elec       q    Type
REMARK                         _______ _______ _______ _____ _____    ______ ____
ROOT
ATOM      1  C   UNL     1       0.115   0.979  -2.723  0.00  0.00    +0.082 C 
ATOM      2  C   UNL     1      -0.198   1.192  -4.031  0.00  0.00    +0.066 C 
ATOM      3  C   UNL     1       0.655   0.594  -5.120  0.00  0.00    +0.086 C 
ATOM      4  C   UNL     1       1.195  -0.761  -4.657  0.00  0.00    +0.196 C 
ATOM      5  C   UNL     1       1.766  -0.629  -3.270  0.00  0.00    +0.232 C 
ATOM      6  O   UNL     1       2.732  -1.288  -2.952  0.00  0.00    -0.275 OA
ATOM      7  N   UNL     1       1.214   0.220  -2.381  0.00  0.00    -0.279 N 
ATOM      8  H   UNL     1       1.591   0.296  -1.491  0.00  0.00    +0.155 HD
ENDROOT
BRANCH   3   9
ATOM      9  C   UNL     1       1.807   1.517  -5.421  0.00  0.00    -0.020 A 
ATOM     10  C   UNL     1       2.709   1.844  -4.426  0.00  0.00    +0.006 A 
ATOM     11  C   UNL     1       3.769   2.688  -4.703  0.00  0.00    +0.000 A 
ATOM     12  C   UNL     1       3.921   3.213  -5.972  0.00  0.00    +0.001 A 
ATOM     13  C   UNL     1       3.017   2.891  -6.967  0.00  0.00    +0.020 A 
ATOM     14  C   UNL     1       1.959   2.043  -6.691  0.00  0.00    +0.045 A 
ATOM     15 CL   UNL     1       0.823   1.637  -7.940  0.00  0.00    -0.083 Cl
ENDBRANCH   3   9
BRANCH   4  16
ATOM     16  C   UNL     1       0.075  -1.770  -4.645  0.00  0.00    +0.320 C 
ATOM     17  O   UNL     1      -1.040  -1.439  -4.973  0.00  0.00    -0.250 OA
BRANCH  16  18
ATOM     18  O   UNL     1       0.317  -3.036  -4.270  0.00  0.00    -0.464 OA
BRANCH  18  19
ATOM     19  C   UNL     1      -0.809  -3.953  -4.283  0.00  0.00    +0.229 C 
ATOM     20  C   UNL     1      -0.344  -5.338  -3.829  0.00  0.00    +0.048 C 
ENDBRANCH  18  19
ENDBRANCH  16  18
ENDBRANCH   4  16
BRANCH   2  21
ATOM     21  C   UNL     1      -1.339   1.987  -4.373  0.00  0.00    +0.098 C 
ATOM     22  N   UNL     1      -2.244   2.618  -4.644  0.00  0.00    -0.191 NA
ENDBRANCH   2  21
BRANCH   1  23
ATOM     23  S   UNL     1      -0.889   1.683  -1.458  0.00  0.00    -0.100 S 
BRANCH  23  24
ATOM     24  C   UNL     1      -0.016   1.080   0.008  0.00  0.00    +0.171 C 
BRANCH  24  26
ATOM     25  N   UNL     1      -0.242   1.246   2.466  0.00  0.00    -0.285 N 
ATOM     26  C   UNL     1      -0.717   1.573   1.248  0.00  0.00    +0.227 C 
ATOM     27  O   UNL     1      -1.709   2.264   1.150  0.00  0.00    -0.275 OA
ATOM     28  H   UNL     1       0.511   0.639   2.546  0.00  0.00    +0.155 HD
BRANCH  25  32
ATOM     29  C   UNL     1      -2.003   2.842   5.887  0.00  0.00    -0.048 A 
ATOM     30  C   UNL     1      -2.784   2.535   4.788  0.00  0.00    +0.005 A 
ATOM     31  C   UNL     1      -2.203   2.006   3.652  0.00  0.00    +0.023 A 
ATOM     32  C   UNL     1      -0.833   1.782   3.615  0.00  0.00    +0.033 A 
ATOM     33  C   UNL     1      -0.053   2.086   4.722  0.00  0.00    +0.023 A 
ATOM     34  C   UNL     1      -0.639   2.620   5.853  0.00  0.00    +0.005 A 
BRANCH  29  36
ATOM     35  C   UNL     1      -3.060   2.283   8.060  0.00  0.00    +0.009 C 
ATOM     36  C   UNL     1      -2.641   3.419   7.125  0.00  0.00    +0.032 C 
ENDBRANCH  29  36
ENDBRANCH  25  32
ENDBRANCH  24  26
ENDBRANCH  23  24
ENDBRANCH   1  23
TORSDOF 10
