REMARK  Name = ZINC09103727
REMARK  6 active torsions:
REMARK  status: ('A' for Active; 'I' for Inactive)
REMARK    1  A    between atoms: C_1  and  C_2
REMARK    2  A    between atoms: C_2  and  C_3
REMARK    3  A    between atoms: C_2  and  C_4
REMARK    4  A    between atoms: C_4  and  N_5
REMARK    5  A    between atoms: C_6  and  C_8
REMARK    6  A    between atoms: C_19  and  C_21
REMARK                            x       y       z     vdW  Elec       q    Type
REMARK                         _______ _______ _______ _____ _____    ______ ____
ROOT
ATOM      1  C   UNL     1       1.410   2.073  -0.000  0.00  0.00    +0.124 C 
ATOM      2  C   UNL     1      -0.019   1.527   0.010  0.00  0.00    +0.019 C 
ATOM      3  C   UNL     1       0.002  -0.004   0.002  0.00  0.00    +0.006 C 
ATOM      4  C   UNL     1       0.516  -0.498   1.364  0.00  0.00    +0.044 C 
ATOM      5  C   UNL     1       1.742   0.277   1.709  0.00  0.00    +0.015 A 
ATOM      6  C   UNL     1       2.191   1.425   1.138  0.00  0.00    +0.066 A 
ATOM      7  N   UNL     1       3.323   1.919   1.633  0.00  0.00    -0.229 NA
ATOM      8  C   UNL     1       3.972   1.334   2.618  0.00  0.00    +0.165 A 
ATOM      9  S   UNL     1       2.971  -0.049   2.944  0.00  0.00    -0.057 S 
ATOM     10  N   UNL     1       5.153   1.723   3.238  0.00  0.00    -0.261 N 
ATOM     11  C   UNL     1       5.664   0.981   4.240  0.00  0.00    +0.250 C 
ATOM     12  O   UNL     1       5.091  -0.029   4.603  0.00  0.00    -0.270 OA
ATOM     13  H   UNL     1       5.610   2.528   2.949  0.00  0.00    +0.157 HD
ENDROOT
BRANCH  11  14
ATOM     14  C   UNL     1       6.919   1.393   4.898  0.00  0.00    +0.041 A 
ATOM     15  C   UNL     1       7.582   2.550   4.479  0.00  0.00    +0.017 A 
ATOM     16  C   UNL     1       8.750   2.936   5.098  0.00  0.00    +0.050 A 
ATOM     17  C   UNL     1       9.279   2.174   6.131  0.00  0.00    +0.166 A 
ATOM     18  C   UNL     1       8.625   1.015   6.551  0.00  0.00    +0.167 A 
ATOM     19  C   UNL     1       7.450   0.625   5.938  0.00  0.00    +0.062 A 
ATOM     20  O   UNL     1       9.341   0.454   7.569  0.00  0.00    -0.453 OA
ATOM     21  C   UNL     1      10.216   1.496   8.041  0.00  0.00    +0.466 C 
ATOM     22  O   UNL     1      10.403   2.336   6.887  0.00  0.00    -0.453 OA
ENDBRANCH  11  14
BRANCH   1  24
ATOM     23  N   UNL     1       2.535   4.265   0.217  0.00  0.00    -0.315 N 
ATOM     24  C   UNL     1       1.382   3.567   0.193  0.00  0.00    +0.222 C 
ATOM     25  O   UNL     1       0.322   4.141   0.326  0.00  0.00    -0.275 OA
ATOM     26  H   UNL     1       3.382   3.806   0.111  0.00  0.00    +0.149 HD
BRANCH  23  27
ATOM     27  C   UNL     1       2.507   5.718   0.405  0.00  0.00    +0.107 C 
BRANCH  27  29
ATOM     28  C   UNL     1       3.904   7.788   0.464  0.00  0.00    +0.009 C 
ATOM     29  C   UNL     1       3.938   6.261   0.393  0.00  0.00    -0.000 C 
ATOM     30  C   UNL     1       4.701   5.711   1.600  0.00  0.00    +0.009 C 
ENDBRANCH  27  29
ENDBRANCH  23  27
ENDBRANCH   1  24
TORSDOF 4
