REMARK  Name = ZINC09849521
REMARK  3 active torsions:
REMARK  status: ('A' for Active; 'I' for Inactive)
REMARK    1  A    between atoms: C_6  and  N_7
REMARK    2  A    between atoms: C_10  and  N_14
REMARK    3  A    between atoms: C_20  and  C_22
REMARK                            x       y       z     vdW  Elec       q    Type
REMARK                         _______ _______ _______ _____ _____    ______ ____
ROOT
ATOM      1  N   UNL     1       1.305  -3.883  -7.262  0.00  0.00    -0.194 N 
ATOM      2  C   UNL     1       0.153  -3.178  -7.033  0.00  0.00    +0.188 A 
ATOM      3  C   UNL     1       0.490  -2.175  -6.107  0.00  0.00    +0.172 A 
ATOM      4  C   UNL     1      -0.529  -1.296  -5.686  0.00  0.00    +0.154 A 
ATOM      5  N   UNL     1      -1.748  -1.452  -6.190  0.00  0.00    -0.218 NA
ATOM      6  C   UNL     1      -2.012  -2.407  -7.062  0.00  0.00    +0.225 A 
ATOM      7  N   UNL     1      -1.096  -3.254  -7.481  0.00  0.00    -0.214 NA
ATOM      8  N   UNL     1       1.793  -2.309  -5.809  0.00  0.00    -0.124 NA
ATOM      9  N   UNL     1       2.300  -3.293  -6.467  0.00  0.00    -0.058 NA
ENDROOT
BRANCH   4  10
ATOM     10  N   UNL     1      -0.264  -0.293  -4.774  0.00  0.00    -0.310 N 
ATOM     11  C   UNL     1      -1.472   0.496  -4.493  0.00  0.00    +0.125 C 
ATOM     12  C   UNL     1      -1.100   1.702  -3.624  0.00  0.00    +0.127 C 
ATOM     13  N   UNL     1      -0.383   1.217  -2.434  0.00  0.00    -0.296 N 
ATOM     14  C   UNL     1       0.761   0.314  -2.631  0.00  0.00    +0.127 C 
ATOM     15  C   UNL     1       0.312  -0.842  -3.539  0.00  0.00    +0.125 C 
ATOM     16  C   UNL     1      -0.761   1.595  -1.197  0.00  0.00    +0.245 C 
ATOM     17  O   UNL     1      -1.704   2.344  -1.053  0.00  0.00    -0.273 OA
BRANCH  16  18
ATOM     18  C   UNL     1      -0.013   1.086   0.008  0.00  0.00    +0.204 C 
ATOM     19  C   UNL     1       1.429   1.629  -0.003  0.00  0.00    +0.043 C 
ATOM     20  C   UNL     1       1.553   2.402   1.333  0.00  0.00    +0.031 C 
ATOM     21  C   UNL     1       0.413   1.778   2.177  0.00  0.00    +0.161 C 
ATOM     22  O   UNL     1      -0.639   1.560   1.212  0.00  0.00    -0.367 OA
ENDBRANCH  16  18
ENDBRANCH   4  10
BRANCH   1  28
ATOM     23  C   UNL     1       0.429  -5.896  -8.271  0.00  0.00    +0.029 A 
ATOM     24  C   UNL     1       0.582  -6.973  -9.122  0.00  0.00    +0.022 A 
ATOM     25  C   UNL     1       1.767  -7.145  -9.816  0.00  0.00    +0.041 A 
ATOM     26  C   UNL     1       2.798  -6.235  -9.665  0.00  0.00    +0.022 A 
ATOM     27  C   UNL     1       2.648  -5.153  -8.819  0.00  0.00    +0.029 A 
ATOM     28  C   UNL     1       1.460  -4.979  -8.121  0.00  0.00    +0.069 A 
ATOM     29 CL   UNL     1       1.959  -8.504 -10.879  0.00  0.00    -0.084 Cl
ENDBRANCH   1  28
TORSDOF 3
