REMARK  Name = ZINC04187540
REMARK  6 active torsions:
REMARK  status: ('A' for Active; 'I' for Inactive)
REMARK    1  A    between atoms: C_4  and  N_7
REMARK    2  A    between atoms: N_9  and  C_30
REMARK    3  A    between atoms: C_18  and  C_20
REMARK    4  A    between atoms: C_30  and  C_31
REMARK    5  A    between atoms: N_33  and  C_34
REMARK    6  A    between atoms: C_34  and  C_35
REMARK                            x       y       z     vdW  Elec       q    Type
REMARK                         _______ _______ _______ _____ _____    ______ ____
ROOT
ATOM      1  N   UNL     1       2.999   4.662   0.637  0.00  0.00    -0.300 N 
ATOM      2  C   UNL     1       3.780   4.896   1.874  0.00  0.00    +0.217 C 
ATOM      3  N   UNL     1       4.284   6.272   1.786  0.00  0.00    -0.275 N 
ATOM      4  C   UNL     1       3.580   6.953   0.858  0.00  0.00    +0.241 C 
ATOM      5  O   UNL     1       3.743   8.116   0.555  0.00  0.00    -0.273 OA
ATOM      6  C   UNL     1       2.554   6.021   0.261  0.00  0.00    +0.115 C 
ATOM      7  C   UNL     1       1.174   6.300   0.849  0.00  0.00    +0.054 C 
ATOM      8  C   UNL     1       0.748   7.728   0.492  0.00  0.00    +0.110 C 
ATOM      9  N   UNL     1       0.841   7.897  -0.965  0.00  0.00    -0.297 N 
ATOM     10  C   UNL     1       2.113   7.586  -1.633  0.00  0.00    +0.110 C 
ATOM     11  C   UNL     1       2.529   6.160  -1.259  0.00  0.00    +0.054 C 
ATOM     12  C   UNL     1      -0.219   8.330  -1.675  0.00  0.00    +0.247 C 
ATOM     13  O   UNL     1      -0.162   8.371  -2.889  0.00  0.00    -0.270 OA
ENDROOT
BRANCH  12  14
ATOM     14  C   UNL     1      -1.449   8.753  -0.980  0.00  0.00    +0.045 A 
ATOM     15  C   UNL     1      -1.386   9.662   0.066  0.00  0.00    +0.014 A 
ATOM     16  C   UNL     1      -2.540  10.065   0.725  0.00  0.00    +0.001 A 
ATOM     17  C   UNL     1      -3.763   9.582   0.365  0.00  0.00    +0.008 A 
ATOM     18  C   UNL     1      -3.874   8.660  -0.690  0.00  0.00    -0.017 A 
ATOM     19  C   UNL     1      -2.709   8.241  -1.377  0.00  0.00    -0.006 A 
ATOM     20  C   UNL     1      -2.821   7.317  -2.425  0.00  0.00    +0.009 A 
ATOM     21  C   UNL     1      -4.049   6.841  -2.776  0.00  0.00    +0.001 A 
ATOM     22  C   UNL     1      -5.197   7.255  -2.104  0.00  0.00    +0.001 A 
ATOM     23  C   UNL     1      -5.124   8.147  -1.079  0.00  0.00    +0.008 A 
ENDBRANCH  12  14
BRANCH   1  27
ATOM     24  C   UNL     1      -0.261   2.179   1.376  0.00  0.00    +0.000 A 
ATOM     25  C   UNL     1      -0.130   2.799   0.146  0.00  0.00    +0.002 A 
ATOM     26  C   UNL     1       0.949   3.625  -0.101  0.00  0.00    +0.023 A 
ATOM     27  C   UNL     1       1.907   3.828   0.884  0.00  0.00    +0.032 A 
ATOM     28  C   UNL     1       1.775   3.199   2.116  0.00  0.00    +0.023 A 
ATOM     29  C   UNL     1       0.694   2.375   2.357  0.00  0.00    +0.002 A 
ENDBRANCH   1  27
BRANCH   3  30
ATOM     30  C   UNL     1       5.384   6.821   2.583  0.00  0.00    +0.205 C 
BRANCH  30  31
ATOM     31  C   UNL     1       4.835   7.414   3.855  0.00  0.00    +0.231 C 
ATOM     32  O   UNL     1       3.642   7.381   4.074  0.00  0.00    -0.274 OA
ATOM     33  N   UNL     1       5.669   7.981   4.749  0.00  0.00    -0.307 N 
ATOM     34  H   UNL     1       6.622   8.008   4.574  0.00  0.00    +0.149 HD
BRANCH  33  35
ATOM     35  C   UNL     1       5.135   8.557   5.986  0.00  0.00    +0.178 C 
BRANCH  35  36
ATOM     36  C   UNL     1       6.266   9.123   6.806  0.00  0.00    +0.122 A 
ATOM     37  C   UNL     1       6.738  10.380   6.734  0.00  0.00    +0.046 A 
ATOM     38  C   UNL     1       7.791  10.477   7.672  0.00  0.00    +0.041 A 
ATOM     39  C   UNL     1       7.900   9.272   8.261  0.00  0.00    +0.195 A 
ATOM     40  O   UNL     1       6.970   8.458   7.736  0.00  0.00    -0.466 OA
ENDBRANCH  35  36
ENDBRANCH  33  35
ENDBRANCH  30  31
ENDBRANCH   3  30
TORSDOF 6
