REMARK  Name = ZINC32863043
REMARK  8 active torsions:
REMARK  status: ('A' for Active; 'I' for Inactive)
REMARK    1  A    between atoms: C_1  and  C_2
REMARK    2  A    between atoms: C_6  and  N_8
REMARK    3  A    between atoms: C_9  and  S_13
REMARK    4  A    between atoms: S_13  and  C_14
REMARK    5  A    between atoms: C_14  and  C_15
REMARK    6  A    between atoms: C_15  and  N_16
REMARK    7  A    between atoms: N_23  and  C_28
REMARK    8  A    between atoms: N_26  and  C_27
REMARK                            x       y       z     vdW  Elec       q    Type
REMARK                         _______ _______ _______ _____ _____    ______ ____
ROOT
ATOM      1  C   UNL     1      -3.027   7.185  -1.991  0.00  0.00    +0.099 C 
ENDROOT
BRANCH   1   2
ATOM      2  S   UNL     1      -2.353   5.565  -1.548  0.00  0.00    -0.082 S 
BRANCH   2   4
ATOM      3  N   UNL     1      -0.069   5.244   0.032  0.00  0.00    -0.187 N 
ATOM      4  C   UNL     1      -0.969   6.064  -0.579  0.00  0.00    +0.214 A 
ATOM      5  N   UNL     1      -0.609   7.300  -0.306  0.00  0.00    -0.101 NA
ATOM      6  N   UNL     1       0.450   7.311   0.420  0.00  0.00    -0.022 NA
ATOM      7  N   UNL     1       0.840   6.108   0.669  0.00  0.00    -0.038 NA
BRANCH   3  13
ATOM      8  C   UNL     1       2.490   1.044  -0.016  0.00  0.00    +0.044 C 
ATOM      9  C   UNL     1       1.176   1.782   0.000  0.00  0.00    -0.048 A 
ATOM     10  C   UNL     1      -0.013   1.076   0.008  0.00  0.00    +0.003 A 
ATOM     11  C   UNL     1      -1.220   1.749   0.017  0.00  0.00    +0.002 A 
ATOM     12  C   UNL     1      -1.242   3.131   0.031  0.00  0.00    +0.028 A 
ATOM     13  C   UNL     1      -0.050   3.842   0.024  0.00  0.00    +0.070 A 
ATOM     14  C   UNL     1       1.161   3.163   0.008  0.00  0.00    +0.031 A 
ENDBRANCH   3  13
ENDBRANCH   2   4
ENDBRANCH   1   2
BRANCH   1  15
ATOM     15  C   UNL     1      -4.274   6.999  -2.859  0.00  0.00    +0.134 C 
BRANCH  15  16
ATOM     16  N   UNL     1      -4.819   8.311  -3.217  0.00  0.00    -0.324 N 
ATOM     17  C   UNL     1      -5.802   8.973  -2.576  0.00  0.00    +0.202 A 
ATOM     18  N   UNL     1      -6.030  10.114  -3.174  0.00  0.00    -0.218 NA
ATOM     19  C   UNL     1      -5.213  10.245  -4.223  0.00  0.00    +0.168 A 
ATOM     20  C   UNL     1      -4.420   9.106  -4.273  0.00  0.00    +0.151 A 
ATOM     21  C   UNL     1      -3.462   8.979  -5.302  0.00  0.00    +0.282 A 
ATOM     22  O   UNL     1      -2.759   7.987  -5.370  0.00  0.00    -0.265 OA
ATOM     23  N   UNL     1      -3.331   9.973  -6.206  0.00  0.00    -0.262 N 
ATOM     24  C   UNL     1      -4.101  11.072  -6.142  0.00  0.00    +0.333 A 
ATOM     25  O   UNL     1      -3.955  11.947  -6.974  0.00  0.00    -0.246 OA
ATOM     26  N   UNL     1      -5.030  11.230  -5.181  0.00  0.00    -0.280 N 
ATOM     27  C   UNL     1      -5.849  12.444  -5.147  0.00  0.00    +0.155 C 
ATOM     28  C   UNL     1      -2.334   9.851  -7.272  0.00  0.00    +0.157 C 
ENDBRANCH  15  16
ENDBRANCH   1  15
TORSDOF 5
