REMARK  Name = ZINC10050241
REMARK  11 active torsions:
REMARK  status: ('A' for Active; 'I' for Inactive)
REMARK    1  A    between atoms: C_1  and  C_2
REMARK    2  A    between atoms: C_5  and  N_8
REMARK    3  A    between atoms: C_9  and  C_36
REMARK    4  A    between atoms: C_10  and  C_35
REMARK    5  A    between atoms: N_18  and  C_23
REMARK    6  A    between atoms: N_21  and  C_22
REMARK    7  A    between atoms: C_23  and  C_24
REMARK    8  A    between atoms: C_24  and  C_25
REMARK    9  A    between atoms: C_25  and  N_71
REMARK   10  A    between atoms: C_27  and  C_34
REMARK   11  A    between atoms: C_30  and  C_33
REMARK                            x       y       z     vdW  Elec       q    Type
REMARK                         _______ _______ _______ _____ _____    ______ ____
ROOT
ATOM      1  N   UNL     1       6.223   3.850  -2.535  0.00  0.00    -0.282 N 
ATOM      2  C   UNL     1       5.620   3.638  -3.762  0.00  0.00    +0.043 A 
ATOM      3  C   UNL     1       4.390   3.183  -3.546  0.00  0.00    +0.044 A 
ATOM      4  N   UNL     1       4.189   3.097  -2.180  0.00  0.00    -0.274 N 
ATOM      5  C   UNL     1       5.320   3.509  -1.560  0.00  0.00    +0.223 A 
ATOM      6  N   UNL     1       5.152   3.436  -0.248  0.00  0.00    -0.193 NA
ATOM      7  C   UNL     1       3.931   2.984   0.028  0.00  0.00    +0.170 A 
ATOM      8  C   UNL     1       3.285   2.755  -1.186  0.00  0.00    +0.157 A 
ATOM      9  C   UNL     1       1.967   2.269  -1.179  0.00  0.00    +0.283 A 
ATOM     10  O   UNL     1       1.382   2.062  -2.228  0.00  0.00    -0.265 OA
ATOM     11  N   UNL     1       1.356   2.033   0.000  0.00  0.00    -0.259 N 
ATOM     12  C   UNL     1       1.985   2.261   1.165  0.00  0.00    +0.333 A 
ATOM     13  O   UNL     1       1.400   2.041   2.208  0.00  0.00    -0.246 OA
ATOM     14  N   UNL     1       3.249   2.722   1.207  0.00  0.00    -0.279 N 
ATOM     15  C   UNL     1       3.903   2.953   2.498  0.00  0.00    +0.155 C 
ATOM     16  C   UNL     1       3.384   2.821  -4.609  0.00  0.00    +0.066 C 
ATOM     17  C   UNL     1       6.249   3.882  -5.110  0.00  0.00    +0.066 C 
ENDROOT
BRANCH   1  22
ATOM     18  C   UNL     1      11.490   5.783  -1.688  0.00  0.00    +0.044 C 
ATOM     19  C   UNL     1      10.091   5.270  -1.913  0.00  0.00    -0.050 A 
ATOM     20  C   UNL     1       9.757   3.986  -1.524  0.00  0.00    +0.005 A 
ATOM     21  C   UNL     1       8.475   3.512  -1.729  0.00  0.00    +0.026 A 
ATOM     22  C   UNL     1       7.523   4.327  -2.326  0.00  0.00    +0.050 A 
ATOM     23  C   UNL     1       7.864   5.614  -2.721  0.00  0.00    +0.026 A 
ATOM     24  C   UNL     1       9.145   6.084  -2.509  0.00  0.00    +0.005 A 
ENDBRANCH   1  22
BRANCH  11  25
ATOM     25  C   UNL     1      -0.019   1.526   0.010  0.00  0.00    +0.128 C 
BRANCH  25  26
ATOM     26  C   UNL     1       0.002  -0.004   0.002  0.00  0.00    +0.003 C 
BRANCH  26  27
ATOM     27  C   UNL     1      -1.433  -0.534   0.013  0.00  0.00    -0.077 C 
BRANCH  27  35
ATOM     28  C   UNL     1      -0.856  -2.514  -1.254  0.00  0.00    -0.076 C 
ATOM     29  C   UNL     1      -0.716  -4.036  -1.169  0.00  0.00    -0.031 C 
ATOM     30  C   UNL     1      -2.091  -4.657  -0.909  0.00  0.00    +0.003 C 
ATOM     31  C   UNL     1      -2.670  -4.071   0.382  0.00  0.00    -0.031 C 
ATOM     32  C   UNL     1      -2.754  -2.548   0.253  0.00  0.00    -0.076 C 
ATOM     33  C   UNL     1      -4.070  -4.641   0.618  0.00  0.00    +0.005 C 
ATOM     34  C   UNL     1       0.234  -4.399  -0.026  0.00  0.00    +0.005 C 
ATOM     35  N   UNL     1      -1.395  -2.011   0.027  0.00  0.00    +0.380 N 
ATOM     36  H   UNL     1      -0.783  -2.321   0.791  0.00  0.00    -0.082 HD
ENDBRANCH  27  35
ENDBRANCH  26  27
ENDBRANCH  25  26
ENDBRANCH  11  25
TORSDOF 5
