REMARK  Name = ZINC21256901
REMARK  9 active torsions:
REMARK  status: ('A' for Active; 'I' for Inactive)
REMARK    1  A    between atoms: C_1  and  O_2
REMARK    2  A    between atoms: O_2  and  C_3
REMARK    3  A    between atoms: C_5  and  C_13
REMARK    4  A    between atoms: C_7  and  O_11
REMARK    5  A    between atoms: C_8  and  O_9
REMARK    6  A    between atoms: O_9  and  C_10
REMARK    7  A    between atoms: O_11  and  C_12
REMARK    8  A    between atoms: C_18  and  C_28
REMARK    9  A    between atoms: C_33  and  O_34
REMARK                            x       y       z     vdW  Elec       q    Type
REMARK                         _______ _______ _______ _____ _____    ______ ____
ROOT
ATOM      1  C   UNL     1      -0.896   1.726  -1.321  0.00  0.00    +0.032 C 
ATOM      2  C   UNL     1      -0.952   3.245  -1.168  0.00  0.00    +0.059 C 
ATOM      3  C   UNL     1      -1.639   3.611   0.137  0.00  0.00    +0.017 C 
ATOM      4  C   UNL     1      -1.530   2.811   1.212  0.00  0.00    +0.037 C 
ATOM      5  C   UNL     1      -2.157   3.054   2.564  0.00  0.00    +0.139 C 
ATOM      6  N   UNL     1      -2.708   4.381   2.741  0.00  0.00    -0.331 N 
ATOM      7  C   UNL     1      -3.788   4.818   1.978  0.00  0.00    +0.049 A 
ATOM      8  C   UNL     1      -5.015   5.106   2.555  0.00  0.00    +0.025 A 
ATOM      9  C   UNL     1      -6.072   5.493   1.750  0.00  0.00    +0.002 A 
ATOM     10  C   UNL     1      -5.910   5.588   0.380  0.00  0.00    +0.002 A 
ATOM     11  C   UNL     1      -4.681   5.317  -0.199  0.00  0.00    +0.025 A 
ATOM     12  C   UNL     1      -3.617   4.953   0.608  0.00  0.00    +0.052 A 
ATOM     13  N   UNL     1      -2.331   4.778   0.108  0.00  0.00    -0.316 N 
ATOM     14  C   UNL     1      -0.776   1.613   1.138  0.00  0.00    +0.163 C 
ATOM     15  O   UNL     1      -0.669   0.922   2.132  0.00  0.00    -0.292 OA
ATOM     16  C   UNL     1      -0.111   1.166  -0.129  0.00  0.00    +0.088 C 
ATOM     17  H   UNL     1      -2.273   5.061   3.488  0.00  0.00    +0.147 HD
ATOM     18  H   UNL     1      -1.877   5.676  -0.335  0.00  0.00    +0.152 HD
ENDROOT
BRANCH   1  21
ATOM     19  C   UNL     1      -0.212   0.276  -4.744  0.00  0.00    +0.165 A 
ATOM     20  C   UNL     1      -0.852   0.608  -3.559  0.00  0.00    +0.053 A 
ATOM     21  C   UNL     1      -0.197   1.368  -2.607  0.00  0.00    -0.036 A 
ATOM     22  C   UNL     1       1.094   1.804  -2.835  0.00  0.00    +0.053 A 
ATOM     23  C   UNL     1       1.743   1.472  -4.014  0.00  0.00    +0.165 A 
ATOM     24  C   UNL     1       1.088   0.708  -4.974  0.00  0.00    +0.204 A 
BRANCH  19  26
ATOM     25  C   UNL     1      -2.192  -0.881  -5.375  0.00  0.00    +0.277 C 
ATOM     26  O   UNL     1      -0.857  -0.471  -5.679  0.00  0.00    -0.491 OA
ENDBRANCH  19  26
BRANCH  24  27
ATOM     27  O   UNL     1       1.719   0.384  -6.135  0.00  0.00    -0.488 OA
ATOM     28  C   UNL     1       1.572   1.292  -7.229  0.00  0.00    +0.277 C 
ENDBRANCH  24  27
BRANCH  23  29
ATOM     29  O   UNL     1       3.016   1.897  -4.235  0.00  0.00    -0.491 OA
ATOM     30  C   UNL     1       3.626   2.677  -3.205  0.00  0.00    +0.277 C 
ENDBRANCH  23  29
ENDBRANCH   1  21
BRANCH   5  31
ATOM     31  C   UNL     1      -3.261   2.048   2.765  0.00  0.00    +0.019 A 
ATOM     32  C   UNL     1      -3.777   1.362   1.683  0.00  0.00    +0.009 A 
ATOM     33  C   UNL     1      -4.789   0.438   1.868  0.00  0.00    +0.001 A 
ATOM     34  C   UNL     1      -5.287   0.199   3.136  0.00  0.00    +0.004 A 
ATOM     35  C   UNL     1      -4.774   0.882   4.221  0.00  0.00    +0.046 A 
ATOM     36  C   UNL     1      -3.755   1.806   4.039  0.00  0.00    +0.122 A 
BRANCH  36  37
ATOM     37  O   UNL     1      -3.244   2.475   5.106  0.00  0.00    -0.506 OA
ATOM     38  H   UNL     1      -3.637   2.282   6.115  0.00  0.00    +0.292 HD
ENDBRANCH  36  37
ENDBRANCH   5  31
TORSDOF 6
