REMARK  Name = ZINC20356683
REMARK  5 active torsions:
REMARK  status: ('A' for Active; 'I' for Inactive)
REMARK    1  A    between atoms: C_1  and  C_2
REMARK    2  A    between atoms: C_5  and  N_9
REMARK    3  A    between atoms: C_10  and  C_33
REMARK    4  A    between atoms: C_12  and  C_15
REMARK    5  A    between atoms: C_13  and  C_14
REMARK                            x       y       z     vdW  Elec       q    Type
REMARK                         _______ _______ _______ _____ _____    ______ ____
ROOT
ATOM      1  C   UNL     1       1.578  -7.454   0.532  0.00  0.00    +0.026 C 
ATOM      2  C   UNL     1       1.001  -8.702   0.423  0.00  0.00    +0.081 C 
ATOM      3  C   UNL     1      -0.356  -8.891  -0.162  0.00  0.00    +0.153 C 
ATOM      4  N   UNL     1      -0.834  -8.143  -1.123  0.00  0.00    -0.283 NA
ATOM      5  N   UNL     1      -1.074  -9.955   0.421  0.00  0.00    -0.150 N 
ATOM      6  C   UNL     1      -0.349 -10.951   1.035  0.00  0.00    +0.182 C 
ATOM      7  N   UNL     1       0.945 -10.990   1.233  0.00  0.00    -0.152 NA
ATOM      8  C   UNL     1       1.700  -9.928   0.877  0.00  0.00    +0.273 C 
ATOM      9  O   UNL     1       2.918  -9.974   0.930  0.00  0.00    -0.268 OA
ATOM     10  S   UNL     1      -1.612 -12.111   1.486  0.00  0.00    -0.018 S 
ATOM     11  C   UNL     1      -3.017 -11.159   0.925  0.00  0.00    +0.182 C 
ATOM     12  N   UNL     1      -2.446 -10.093   0.422  0.00  0.00    -0.149 NA
ATOM     13  N   UNL     1      -4.365 -11.470   1.003  0.00  0.00    -0.304 N 
ATOM     14  C   UNL     1      -5.385 -10.551   0.474  0.00  0.00    +0.135 C 
ATOM     15  C   UNL     1      -6.325 -11.346  -0.440  0.00  0.00    +0.179 C 
ATOM     16  O   UNL     1      -6.807 -12.493   0.264  0.00  0.00    -0.377 OA
ATOM     17  C   UNL     1      -5.785 -13.417   0.646  0.00  0.00    +0.179 C 
ATOM     18  C   UNL     1      -4.818 -12.731   1.611  0.00  0.00    +0.135 C 
ATOM     19  H   UNL     1      -1.736  -8.289  -1.447  0.00  0.00    +0.188 HD
ENDROOT
BRANCH   1  23
ATOM     20  N   UNL     1       0.208  -4.205  -0.147  0.00  0.00    -0.317 N 
ATOM     21  C   UNL     1      -0.955  -4.904   0.024  0.00  0.00    +0.022 A 
ATOM     22  C   UNL     1      -0.664  -6.187   0.295  0.00  0.00    +0.031 A 
ATOM     23  C   UNL     1       0.803  -6.290   0.293  0.00  0.00    -0.003 A 
ATOM     24  C   UNL     1       1.272  -5.019   0.005  0.00  0.00    +0.028 A 
ATOM     25  C   UNL     1       2.719  -4.616  -0.115  0.00  0.00    +0.064 C 
ATOM     26  C   UNL     1      -2.344  -4.327  -0.077  0.00  0.00    +0.064 C 
BRANCH  20  31
ATOM     27  C   UNL     1       0.509   1.334  -1.350  0.00  0.00    +0.045 C 
ATOM     28  C   UNL     1       0.429  -0.137  -1.030  0.00  0.00    -0.032 A 
ATOM     29  C   UNL     1      -0.137  -1.011  -1.940  0.00  0.00    +0.007 A 
ATOM     30  C   UNL     1      -0.211  -2.360  -1.650  0.00  0.00    +0.026 A 
ATOM     31  C   UNL     1       0.282  -2.838  -0.444  0.00  0.00    +0.048 A 
ATOM     32  C   UNL     1       0.850  -1.958   0.469  0.00  0.00    +0.046 A 
ATOM     33  C   UNL     1       0.926  -0.611   0.171  0.00  0.00    +0.046 A 
ATOM     34 CL   UNL     1       1.642   0.489   1.308  0.00  0.00    -0.083 Cl
ENDBRANCH  20  31
ENDBRANCH   1  23
TORSDOF 2
