REMARK  Name = ZINC40797277
REMARK  9 active torsions:
REMARK  status: ('A' for Active; 'I' for Inactive)
REMARK    1  A    between atoms: C_1  and  C_2
REMARK    2  A    between atoms: C_2  and  C_3
REMARK    3  A    between atoms: C_3  and  N_4
REMARK    4  A    between atoms: C_5  and  C_7
REMARK    5  A    between atoms: C_11  and  N_12
REMARK    6  A    between atoms: C_13  and  C_15
REMARK    7  A    between atoms: C_15  and  C_28
REMARK    8  A    between atoms: N_18  and  C_26
REMARK    9  A    between atoms: C_26  and  C_27
REMARK                            x       y       z     vdW  Elec       q    Type
REMARK                         _______ _______ _______ _____ _____    ______ ____
ROOT
ATOM      1  N   UNL     1      -2.573  -4.374  -2.478  0.00  0.00    -0.276 N 
ATOM      2  C   UNL     1      -2.572  -5.222  -3.525  0.00  0.00    +0.270 C 
ATOM      3  O   UNL     1      -2.554  -6.420  -3.334  0.00  0.00    -0.271 OA
ATOM      4  H   UNL     1      -2.587  -3.416  -2.630  0.00  0.00    +0.155 HD
ENDROOT
BRANCH   2   5
ATOM      5  C   UNL     1      -2.593  -4.683  -4.932  0.00  0.00    +0.258 C 
ATOM      6  C   UNL     1      -3.185  -5.716  -5.856  0.00  0.00    +0.273 C 
ATOM      7  O   UNL     1      -2.462  -6.499  -6.437  0.00  0.00    -0.270 OA
ATOM      8  N   UNL     1      -4.521  -5.768  -6.035  0.00  0.00    -0.265 N 
ATOM      9  C   UNL     1      -5.327  -4.778  -5.456  0.00  0.00    +0.078 A 
ATOM     10  C   UNL     1      -6.705  -4.921  -5.424  0.00  0.00    +0.027 A 
ATOM     11  C   UNL     1      -7.485  -3.942  -4.837  0.00  0.00    +0.002 A 
ATOM     12  C   UNL     1      -6.894  -2.822  -4.282  0.00  0.00    +0.004 A 
ATOM     13  C   UNL     1      -5.520  -2.671  -4.315  0.00  0.00    +0.047 A 
ATOM     14  C   UNL     1      -4.733  -3.644  -4.906  0.00  0.00    +0.144 A 
ATOM     15  O   UNL     1      -3.383  -3.492  -4.973  0.00  0.00    -0.465 OA
ATOM     16  C   UNL     1      -1.165  -4.362  -5.375  0.00  0.00    +0.076 C 
BRANCH   8  17
ATOM     17  C   UNL     1      -5.123  -6.845  -6.825  0.00  0.00    +0.110 C 
ATOM     18  C   UNL     1      -5.460  -8.023  -5.908  0.00  0.00    +0.025 C 
ENDBRANCH   8  17
ENDBRANCH   2   5
BRANCH   1  23
ATOM     19  C   UNL     1      -2.551  -4.154   0.004  0.00  0.00    +0.069 A 
ATOM     20  C   UNL     1      -2.535  -4.918   1.240  0.00  0.00    -0.023 A 
ATOM     21  C   UNL     1      -2.518  -6.256   1.062  0.00  0.00    -0.004 A 
ATOM     22  S   UNL     1      -2.524  -6.476  -0.693  0.00  0.00    -0.077 S 
ATOM     23  C   UNL     1      -2.554  -4.870  -1.183  0.00  0.00    +0.085 A 
ATOM     24  C   UNL     1      -2.497  -7.305   2.130  0.00  0.00    +0.043 C 
ATOM     25  C   UNL     1      -2.117  -6.634   3.458  0.00  0.00    +0.005 C 
ATOM     26  C   UNL     1      -2.970  -5.374   3.638  0.00  0.00    +0.005 C 
ATOM     27  C   UNL     1      -2.537  -4.305   2.632  0.00  0.00    +0.037 C 
BRANCH  19  29
ATOM     28  N   UNL     1      -1.413  -1.998   0.005  0.00  0.00    -0.311 N 
ATOM     29  C   UNL     1      -2.571  -2.688   0.012  0.00  0.00    +0.247 C 
ATOM     30  O   UNL     1      -3.634  -2.094   0.025  0.00  0.00    -0.270 OA
ATOM     31  H   UNL     1      -0.567  -2.472  -0.006  0.00  0.00    +0.149 HD
BRANCH  28  32
ATOM     32  C   UNL     1      -1.433  -0.534   0.013  0.00  0.00    +0.104 C 
BRANCH  32  34
ATOM     33  C   UNL     1      -0.019   1.526   0.010  0.00  0.00    +0.005 C 
ATOM     34  C   UNL     1       0.002  -0.004   0.002  0.00  0.00    +0.015 C 
ENDBRANCH  32  34
ENDBRANCH  28  32
ENDBRANCH  19  29
ENDBRANCH   1  23
TORSDOF 6
