REMARK  Name = ZINC06190828
REMARK  11 active torsions:
REMARK  status: ('A' for Active; 'I' for Inactive)
REMARK    1  A    between atoms: C_1  and  C_2
REMARK    2  A    between atoms: C_2  and  C_3
REMARK    3  A    between atoms: C_2  and  C_4
REMARK    4  A    between atoms: C_7  and  N_10
REMARK    5  A    between atoms: N_10  and  C_11
REMARK    6  A    between atoms: C_11  and  C_13
REMARK    7  A    between atoms: C_11  and  C_18
REMARK    8  A    between atoms: N_20  and  C_21
REMARK    9  A    between atoms: C_26  and  C_28
REMARK   10  A    between atoms: C_29  and  N_36
REMARK   11  A    between atoms: C_30  and  C_33
REMARK                            x       y       z     vdW  Elec       q    Type
REMARK                         _______ _______ _______ _____ _____    ______ ____
ROOT
ATOM      1  N   UNL     1       2.544   4.564   0.168  0.00  0.00    -0.250 N 
ATOM      2  C   UNL     1       2.977   4.682   1.439  0.00  0.00    +0.262 C 
ATOM      3  O   UNL     1       2.174   4.734   2.353  0.00  0.00    -0.269 OA
ENDROOT
BRANCH   1   7
ATOM      4  C   UNL     1       5.285   4.497  -2.968  0.00  0.00    -0.045 A 
ATOM      5  C   UNL     1       4.703   3.320  -2.534  0.00  0.00    +0.006 A 
ATOM      6  C   UNL     1       3.794   3.339  -1.495  0.00  0.00    +0.024 A 
ATOM      7  C   UNL     1       3.464   4.542  -0.884  0.00  0.00    +0.038 A 
ATOM      8  C   UNL     1       4.046   5.723  -1.325  0.00  0.00    +0.024 A 
ATOM      9  C   UNL     1       4.958   5.697  -2.362  0.00  0.00    +0.006 A 
BRANCH   4  11
ATOM     10  C   UNL     1       5.758   5.339  -5.252  0.00  0.00    +0.012 C 
ATOM     11  C   UNL     1       6.277   4.473  -4.102  0.00  0.00    +0.013 C 
ATOM     12  C   UNL     1       7.620   5.021  -3.616  0.00  0.00    +0.012 C 
ENDBRANCH   4  11
ENDBRANCH   1   7
BRANCH   2  13
ATOM     13  C   UNL     1       4.412   4.747   1.721  0.00  0.00    +0.116 A 
ATOM     14  C   UNL     1       5.066   4.959   2.936  0.00  0.00    +0.076 A 
ATOM     15  C   UNL     1       6.455   4.951   2.803  0.00  0.00    +0.155 A 
ATOM     16  N   UNL     1       6.986   4.765   1.615  0.00  0.00    -0.203 NA
ATOM     17  S   UNL     1       5.790   4.585   0.605  0.00  0.00    +0.019 S 
BRANCH  15  18
ATOM     18  C   UNL     1       7.317   5.155   3.981  0.00  0.00    +0.262 C 
ATOM     19  O   UNL     1       6.819   5.326   5.077  0.00  0.00    -0.269 OA
ATOM     20  N   UNL     1       8.658   5.151   3.843  0.00  0.00    -0.324 N 
ATOM     21  H   UNL     1       9.056   5.014   2.969  0.00  0.00    +0.145 HD
ATOM     22  H   UNL     1       9.226   5.285   4.619  0.00  0.00    +0.145 HD
ENDBRANCH  15  18
BRANCH  14  23
ATOM     23  N   UNL     1       4.408   5.153   4.143  0.00  0.00    -0.355 N 
ATOM     24  H   UNL     1       3.439   5.146   4.174  0.00  0.00    +0.142 HD
ATOM     25  H   UNL     1       4.918   5.296   4.956  0.00  0.00    +0.142 HD
ENDBRANCH  14  23
ENDBRANCH   2  13
BRANCH   1  26
ATOM     26  C   UNL     1       1.109   4.460  -0.111  0.00  0.00    +0.204 C 
BRANCH  26  27
ATOM     27  C   UNL     1       0.762   5.333  -1.290  0.00  0.00    +0.019 A 
ATOM     28  C   UNL     1      -0.210   6.270  -1.401  0.00  0.00    +0.013 A 
ATOM     29  C   UNL     1      -0.344   6.959  -2.591  0.00  0.00    +0.008 A 
ATOM     30  C   UNL     1       0.494   6.670  -3.616  0.00  0.00    +0.045 A 
ATOM     31  S   UNL     1       1.520   5.394  -2.905  0.00  0.00    -0.099 S 
ENDBRANCH  26  27
BRANCH  26  32
ATOM     32  C   UNL     1       0.761   3.028  -0.425  0.00  0.00    +0.239 C 
ATOM     33  O   UNL     1       1.599   2.160  -0.301  0.00  0.00    -0.273 OA
ATOM     34  N   UNL     1      -0.480   2.713  -0.845  0.00  0.00    -0.311 N 
ATOM     35  H   UNL     1      -1.148   3.409  -0.948  0.00  0.00    +0.149 HD
BRANCH  34  36
ATOM     36  C   UNL     1      -0.818   1.321  -1.151  0.00  0.00    +0.073 C 
ATOM     37  C   UNL     1      -0.476   1.005  -2.622  0.00  0.00    +0.022 C 
ATOM     38  C   UNL     1      -1.616   0.062  -3.083  0.00  0.00    +0.002 C 
ATOM     39  C   UNL     1      -2.859   0.658  -2.376  0.00  0.00    +0.002 C 
ATOM     40  C   UNL     1      -2.333   1.100  -0.995  0.00  0.00    +0.022 C 
ENDBRANCH  34  36
ENDBRANCH  26  32
ENDBRANCH   1  26
TORSDOF 9
