REMARK  Name = ZINC32921860
REMARK  10 active torsions:
REMARK  status: ('A' for Active; 'I' for Inactive)
REMARK    1  A    between atoms: C_1  and  C_2
REMARK    2  A    between atoms: C_2  and  C_3
REMARK    3  A    between atoms: C_2  and  C_4
REMARK    4  A    between atoms: C_4  and  C_5
REMARK    5  A    between atoms: C_5  and  C_7
REMARK    6  A    between atoms: C_5  and  N_11
REMARK    7  A    between atoms: N_9  and  C_10
REMARK    8  A    between atoms: C_12  and  C_14
REMARK    9  A    between atoms: C_16  and  C_26
REMARK   10  A    between atoms: N_17  and  C_19
REMARK                            x       y       z     vdW  Elec       q    Type
REMARK                         _______ _______ _______ _____ _____    ______ ____
ROOT
ATOM      1  C   UNL     1      -1.976   4.954   2.144  0.00  0.00    +0.148 A 
ATOM      2  C   UNL     1      -3.157   5.524   2.666  0.00  0.00    +0.066 A 
ATOM      3  C   UNL     1      -3.042   6.870   2.442  0.00  0.00    +0.110 A 
ATOM      4  N   UNL     1      -1.844   7.064   1.810  0.00  0.00    -0.228 N 
ATOM      5  N   UNL     1      -1.248   5.938   1.650  0.00  0.00    -0.161 NA
ENDROOT
BRANCH   4   6
ATOM      6  C   UNL     1      -1.344   8.305   1.398  0.00  0.00    +0.068 A 
ATOM      7  C   UNL     1      -1.420   9.402   2.246  0.00  0.00    +0.028 A 
ATOM      8  C   UNL     1      -0.925  10.625   1.838  0.00  0.00    +0.003 A 
ATOM      9  C   UNL     1      -0.354  10.758   0.585  0.00  0.00    +0.020 A 
ATOM     10  C   UNL     1      -0.276   9.667  -0.262  0.00  0.00    +0.043 A 
ATOM     11  C   UNL     1      -0.765   8.439   0.143  0.00  0.00    +0.047 A 
ATOM     12 CL   UNL     1       0.441   9.839  -1.834  0.00  0.00    -0.083 Cl
ENDBRANCH   4   6
BRANCH   3  13
ATOM     13  C   UNL     1      -4.021   7.909   2.808  0.00  0.00    +0.153 A 
ATOM     14  C   UNL     1      -5.063   7.756   3.671  0.00  0.00    +0.051 A 
ATOM     15  C   UNL     1      -5.732   8.995   3.722  0.00  0.00    +0.042 A 
ATOM     16  C   UNL     1      -5.074   9.834   2.897  0.00  0.00    +0.196 A 
ATOM     17  O   UNL     1      -4.038   9.176   2.351  0.00  0.00    -0.461 OA
ENDBRANCH   3  13
BRANCH   1  19
ATOM     18  N   UNL     1      -0.456   3.113   1.605  0.00  0.00    -0.299 N 
ATOM     19  C   UNL     1      -1.622   3.520   2.146  0.00  0.00    +0.265 C 
ATOM     20  O   UNL     1      -2.382   2.707   2.634  0.00  0.00    -0.268 OA
ATOM     21  H   UNL     1       0.232   3.849   1.163  0.00  0.00    +0.150 HD
BRANCH  18  22
ATOM     22  C   UNL     1      -0.105   1.691   1.607  0.00  0.00    +0.159 C 
BRANCH  22  23
ATOM     23  C   UNL     1       0.546   1.335   2.919  0.00  0.00    +0.233 C 
ATOM     24  O   UNL     1       0.701   2.186   3.769  0.00  0.00    -0.274 OA
ATOM     25  N   UNL     1       0.955   0.072   3.148  0.00  0.00    -0.317 N 
ATOM     26  C   UNL     1       1.587  -0.274   4.423  0.00  0.00    +0.128 C 
ATOM     27  H   UNL     1       0.814  -0.700   2.377  0.00  0.00    +0.148 HD
ENDBRANCH  22  23
BRANCH  22  28
ATOM     28  C   UNL     1       0.868   1.405   0.462  0.00  0.00    +0.034 C 
BRANCH  28  30
ATOM     29  C   UNL     1       1.175   1.488  -2.017  0.00  0.00    +0.007 C 
ATOM     30  C   UNL     1       0.169   1.656  -0.876  0.00  0.00    -0.015 C 
ATOM     31  C   UNL     1      -0.973   0.654  -1.051  0.00  0.00    +0.007 C 
ENDBRANCH  28  30
ENDBRANCH  22  28
ENDBRANCH  18  22
ENDBRANCH   1  19
TORSDOF 7
