REMARK  Name = ZINC49389601
REMARK  4 active torsions:
REMARK  status: ('A' for Active; 'I' for Inactive)
REMARK    1  A    between atoms: C_6  and  N_7
REMARK    2  A    between atoms: N_10  and  C_13
REMARK    3  A    between atoms: C_13  and  C_14
REMARK    4  A    between atoms: N_16  and  C_17
REMARK                            x       y       z     vdW  Elec       q    Type
REMARK                         _______ _______ _______ _____ _____    ______ ____
ROOT
ATOM      1  N   UNL     1      -1.202  -0.722   0.009  0.00  0.00    -0.254 N 
ATOM      2  C   UNL     1      -2.544  -0.132   0.122  0.00  0.00    +0.134 C 
ATOM      3  C   UNL     1      -3.487  -1.350   0.077  0.00  0.00    +0.129 C 
ATOM      4  N   UNL     1      -2.576  -2.497  -0.057  0.00  0.00    -0.275 N 
ATOM      5  C   UNL     1      -1.312  -2.053  -0.093  0.00  0.00    +0.310 C 
ATOM      6  O   UNL     1      -0.353  -2.791  -0.205  0.00  0.00    -0.252 OA
ENDROOT
BRANCH   1  12
ATOM      7  C   UNL     1       1.214  -0.681   0.003  0.00  0.00    +0.027 A 
ATOM      8  C   UNL     1       2.401   0.026  -0.003  0.00  0.00    +0.051 A 
ATOM      9  C   UNL     1       2.386   1.413  -0.010  0.00  0.00    +0.162 A 
ATOM     10  C   UNL     1       1.174   2.093  -0.013  0.00  0.00    +0.164 A 
ATOM     11  C   UNL     1      -0.017   1.384  -0.006  0.00  0.00    +0.073 A 
ATOM     12  C   UNL     1       0.002  -0.004   0.002  0.00  0.00    +0.041 A 
ATOM     13  O   UNL     1       1.139   3.454  -0.028  0.00  0.00    -0.485 OA
ATOM     14  C   UNL     1       2.345   4.133   0.341  0.00  0.00    +0.270 C 
ATOM     15  C   UNL     1       3.515   3.470  -0.398  0.00  0.00    +0.270 C 
ATOM     16  O   UNL     1       3.566   2.092  -0.012  0.00  0.00    -0.485 OA
ENDBRANCH   1  12
BRANCH   4  17
ATOM     17  C   UNL     1      -2.985  -3.901  -0.143  0.00  0.00    +0.205 C 
BRANCH  17  18
ATOM     18  C   UNL     1      -3.197  -4.274  -1.587  0.00  0.00    +0.237 C 
ATOM     19  O   UNL     1      -3.024  -3.449  -2.459  0.00  0.00    -0.274 OA
ATOM     20  N   UNL     1      -3.580  -5.526  -1.911  0.00  0.00    -0.253 N 
ATOM     21  H   UNL     1      -3.718  -6.186  -1.214  0.00  0.00    +0.158 HD
BRANCH  20  22
ATOM     22  C   UNL     1      -3.775  -5.869  -3.240  0.00  0.00    +0.227 A 
ATOM     23  C   UNL     1      -4.161  -7.078  -3.702  0.00  0.00    +0.037 A 
ATOM     24  C   UNL     1      -4.240  -7.006  -5.107  0.00  0.00    +0.089 A 
ATOM     25  N   UNL     1      -3.916  -5.803  -5.471  0.00  0.00    -0.081 NA
ATOM     26  O   UNL     1      -3.620  -5.056  -4.302  0.00  0.00    -0.339 OA
ATOM     27  C   UNL     1      -4.635  -8.173  -5.979  0.00  0.00    +0.059 C 
ATOM     28  C   UNL     1      -4.511  -9.456  -5.148  0.00  0.00    +0.007 C 
ATOM     29  C   UNL     1      -5.252  -9.285  -3.820  0.00  0.00    +0.005 C 
ATOM     30  C   UNL     1      -4.472  -8.325  -2.912  0.00  0.00    +0.042 C 
ENDBRANCH  20  22
ENDBRANCH  17  18
ENDBRANCH   4  17
TORSDOF 4
