REMARK  Name = ZINC12547289
REMARK  7 active torsions:
REMARK  status: ('A' for Active; 'I' for Inactive)
REMARK    1  A    between atoms: C_3  and  N_8
REMARK    2  A    between atoms: C_12  and  S_13
REMARK    3  A    between atoms: S_13  and  C_14
REMARK    4  A    between atoms: C_14  and  C_15
REMARK    5  A    between atoms: N_23  and  C_24
REMARK    6  A    between atoms: C_24  and  C_25
REMARK    7  A    between atoms: C_25  and  O_26
REMARK                            x       y       z     vdW  Elec       q    Type
REMARK                         _______ _______ _______ _____ _____    ______ ____
ROOT
ATOM      1  N   UNL     1      -1.326   1.946  -0.074  0.00  0.00    -0.258 N 
ATOM      2  C   UNL     1      -1.674   2.955  -0.930  0.00  0.00    +0.225 A 
ATOM      3  N   UNL     1      -2.779   3.500  -0.484  0.00  0.00    -0.112 NA
ATOM      4  N   UNL     1      -3.149   2.834   0.692  0.00  0.00    -0.120 NA
ATOM      5  C   UNL     1      -2.261   1.899   0.925  0.00  0.00    +0.198 A 
ATOM      6  N   UNL     1      -0.980   3.333  -2.072  0.00  0.00    -0.295 N 
ATOM      7  C   UNL     1      -0.552   4.737  -1.988  0.00  0.00    +0.136 C 
ATOM      8  C   UNL     1       0.259   5.094  -3.237  0.00  0.00    +0.179 C 
ATOM      9  O   UNL     1      -0.532   4.838  -4.401  0.00  0.00    -0.377 OA
ATOM     10  C   UNL     1      -0.966   3.480  -4.515  0.00  0.00    +0.179 C 
ATOM     11  C   UNL     1      -1.789   3.107  -3.279  0.00  0.00    +0.136 C 
ENDROOT
BRANCH   1  14
ATOM     12  C   UNL     1       0.733  -1.063  -0.573  0.00  0.00    +0.005 A 
ATOM     13  C   UNL     1      -0.372  -0.243  -0.448  0.00  0.00    +0.026 A 
ATOM     14  C   UNL     1      -0.205   1.111  -0.195  0.00  0.00    +0.054 A 
ATOM     15  C   UNL     1       1.072   1.639  -0.068  0.00  0.00    +0.064 A 
ATOM     16  C   UNL     1       2.175   0.814  -0.195  0.00  0.00    +0.125 A 
ATOM     17  C   UNL     1       2.005  -0.537  -0.447  0.00  0.00    +0.038 A 
ATOM     18  F   UNL     1       3.419   1.327  -0.071  0.00  0.00    -0.205 F 
ENDBRANCH   1  14
BRANCH   5  19
ATOM     19  S   UNL     1      -2.268   0.779   2.285  0.00  0.00    -0.078 S 
BRANCH  19  20
ATOM     20  C   UNL     1      -3.751   1.239   3.224  0.00  0.00    +0.151 C 
BRANCH  20  21
ATOM     21  C   UNL     1      -3.879   0.346   4.431  0.00  0.00    +0.121 A 
ATOM     22  N   UNL     1      -3.366   0.595   5.600  0.00  0.00    -0.231 NA
ATOM     23  C   UNL     1      -3.671  -0.413   6.457  0.00  0.00    +0.089 A 
ATOM     24  C   UNL     1      -3.383  -0.654   7.803  0.00  0.00    +0.031 A 
ATOM     25  C   UNL     1      -3.843  -1.790   8.406  0.00  0.00    +0.022 A 
ATOM     26  C   UNL     1      -4.596  -2.714   7.693  0.00  0.00    +0.043 A 
ATOM     27  C   UNL     1      -4.893  -2.497   6.363  0.00  0.00    +0.048 A 
ATOM     28  C   UNL     1      -4.433  -1.347   5.736  0.00  0.00    +0.070 A 
ATOM     29  N   UNL     1      -4.552  -0.836   4.458  0.00  0.00    -0.325 N 
ATOM     30 CL   UNL     1      -5.170  -4.151   8.481  0.00  0.00    -0.083 Cl
BRANCH  29  31
ATOM     31  C   UNL     1      -5.268  -1.454   3.339  0.00  0.00    +0.151 C 
BRANCH  31  32
ATOM     32  C   UNL     1      -4.313  -2.365   2.564  0.00  0.00    +0.177 C 
BRANCH  32  33
ATOM     33  O   UNL     1      -5.011  -2.967   1.472  0.00  0.00    -0.393 OA
ATOM     34  H   UNL     1      -4.466  -3.559   0.936  0.00  0.00    +0.209 HD
ENDBRANCH  32  33
ENDBRANCH  31  32
ENDBRANCH  29  31
ENDBRANCH  20  21
ENDBRANCH  19  20
ENDBRANCH   5  19
TORSDOF 7
