REMARK  Name = ZINC39227212
REMARK  9 active torsions:
REMARK  status: ('A' for Active; 'I' for Inactive)
REMARK    1  A    between atoms: C_1  and  O_2
REMARK    2  A    between atoms: O_2  and  C_3
REMARK    3  A    between atoms: C_6  and  C_9
REMARK    4  A    between atoms: C_11  and  C_14
REMARK    5  A    between atoms: C_14  and  N_15
REMARK    6  A    between atoms: C_26  and  O_35
REMARK    7  A    between atoms: C_29  and  O_30
REMARK    8  A    between atoms: O_30  and  C_31
REMARK    9  A    between atoms: O_35  and  C_36
REMARK                            x       y       z     vdW  Elec       q    Type
REMARK                         _______ _______ _______ _____ _____    ______ ____
ROOT
ATOM      1  N   UNL     1       2.457  -5.873  -7.086  0.00  0.00    +0.386 N 
ATOM      2  C   UNL     1       1.241  -6.044  -6.282  0.00  0.00    -0.074 C 
ATOM      3  C   UNL     1       0.072  -6.428  -7.192  0.00  0.00    +0.030 C 
ATOM      4  C   UNL     1       0.402  -7.737  -7.912  0.00  0.00    +0.114 C 
ATOM      5  C   UNL     1       1.712  -7.572  -8.686  0.00  0.00    +0.030 C 
ATOM      6  C   UNL     1       2.819  -7.147  -7.719  0.00  0.00    -0.074 C 
ATOM      7  C   UNL     1      -0.728  -8.076  -8.895  0.00  0.00    +0.127 C 
ATOM      8  C   UNL     1      -0.357  -9.386  -9.568  0.00  0.00    +0.174 C 
ATOM      9  O   UNL     1      -0.555  -9.574 -10.750  0.00  0.00    -0.292 OA
ATOM     10  C   UNL     1       0.254 -10.413  -8.714  0.00  0.00    +0.105 A 
ATOM     11  C   UNL     1       0.687 -10.061  -7.418  0.00  0.00    +0.180 A 
ATOM     12  C   UNL     1       1.268 -11.016  -6.604  0.00  0.00    +0.206 A 
ATOM     13  C   UNL     1       1.430 -12.325  -7.059  0.00  0.00    +0.183 A 
ATOM     14  C   UNL     1       0.999 -12.677  -8.349  0.00  0.00    +0.066 A 
ATOM     15  C   UNL     1       0.409 -11.723  -9.181  0.00  0.00    +0.145 A 
ATOM     16  C   UNL     1       1.318 -14.103  -8.496  0.00  0.00    +0.053 A 
ATOM     17  C   UNL     1       1.886 -14.479  -7.342  0.00  0.00    +0.196 A 
ATOM     18  O   UNL     1       1.950 -13.435  -6.496  0.00  0.00    -0.459 OA
ATOM     19  O   UNL     1       0.535  -8.792  -6.961  0.00  0.00    -0.481 OA
ATOM     20  H   UNL     1       2.290  -5.179  -7.800  0.00  0.00    -0.081 HD
ENDROOT
BRANCH  15  21
ATOM     21  O   UNL     1      -0.009 -12.062 -10.425  0.00  0.00    -0.494 OA
ATOM     22  C   UNL     1       0.937 -11.923 -11.488  0.00  0.00    +0.277 C 
ENDBRANCH  15  21
BRANCH  12  23
ATOM     23  O   UNL     1       1.685 -10.677  -5.353  0.00  0.00    -0.488 OA
ATOM     24  C   UNL     1       0.737 -10.818  -4.293  0.00  0.00    +0.277 C 
ENDBRANCH  12  23
BRANCH   1  25
ATOM     25  C   UNL     1       3.557  -5.428  -6.220  0.00  0.00    +0.022 C 
BRANCH  25  28
ATOM     26  C   UNL     1       2.496  -2.494  -4.365  0.00  0.00    +0.202 A 
ATOM     27  N   UNL     1       2.605  -3.822  -4.554  0.00  0.00    -0.193 NA
ATOM     28  C   UNL     1       3.239  -4.063  -5.666  0.00  0.00    +0.211 A 
ATOM     29  O   UNL     1       3.562  -2.894  -6.234  0.00  0.00    -0.340 OA
ATOM     30  N   UNL     1       3.064  -1.879  -5.374  0.00  0.00    -0.056 NA
BRANCH  26  34
ATOM     31  C   UNL     1       0.606  -0.607  -1.055  0.00  0.00    +0.120 A 
ATOM     32  C   UNL     1       1.172   0.164  -2.061  0.00  0.00    +0.046 A 
ATOM     33  C   UNL     1       1.786  -0.445  -3.135  0.00  0.00    +0.015 A 
ATOM     34  C   UNL     1       1.837  -1.836  -3.211  0.00  0.00    +0.023 A 
ATOM     35  C   UNL     1       1.267  -2.607  -2.199  0.00  0.00    +0.015 A 
ATOM     36  C   UNL     1       0.659  -1.993  -1.125  0.00  0.00    +0.046 A 
BRANCH  31  38
ATOM     37  C   UNL     1      -0.017   1.425   0.010  0.00  0.00    +0.277 C 
ATOM     38  O   UNL     1       0.002  -0.004   0.002  0.00  0.00    -0.495 OA
ENDBRANCH  31  38
ENDBRANCH  26  34
ENDBRANCH  25  28
ENDBRANCH   1  25
TORSDOF 6
