REMARK  Name = ZINC05372311
REMARK  8 active torsions:
REMARK  status: ('A' for Active; 'I' for Inactive)
REMARK    1  A    between atoms: C_1  and  C_2
REMARK    2  A    between atoms: C_2  and  C_3
REMARK    3  A    between atoms: C_3  and  O_29
REMARK    4  A    between atoms: C_7  and  O_24
REMARK    5  A    between atoms: C_10  and  O_11
REMARK    6  A    between atoms: C_18  and  O_22
REMARK    7  A    between atoms: O_22  and  C_23
REMARK    8  A    between atoms: C_25  and  O_28
REMARK                            x       y       z     vdW  Elec       q    Type
REMARK                         _______ _______ _______ _____ _____    ______ ____
ROOT
ATOM      1  C   UNL     1       0.002  -0.004   0.002  0.00  0.00    +0.073 C 
ATOM      2  C   UNL     1       0.496  -0.470  -1.366  0.00  0.00    +0.074 C 
ATOM      3  C   UNL     1       1.784   0.223  -1.730  0.00  0.00    +0.007 A 
ATOM      4  C   UNL     1       2.206   1.373  -1.110  0.00  0.00    +0.030 A 
ATOM      5  C   UNL     1       3.409   1.978  -1.496  0.00  0.00    +0.134 A 
ATOM      6  C   UNL     1       4.191   1.421  -2.505  0.00  0.00    +0.078 A 
ATOM      7  C   UNL     1       3.760   0.237  -3.139  0.00  0.00    +0.078 A 
ATOM      8  C   UNL     1       2.560  -0.351  -2.745  0.00  0.00    +0.132 A 
ATOM      9  C   UNL     1       4.575  -0.366  -4.207  0.00  0.00    +0.198 C 
ATOM     10  O   UNL     1       4.205  -1.387  -4.753  0.00  0.00    -0.286 OA
ATOM     11  C   UNL     1       5.844   0.273  -4.614  0.00  0.00    +0.037 A 
ATOM     12  C   UNL     1       6.620  -0.289  -5.623  0.00  0.00    +0.012 A 
ATOM     13  C   UNL     1       7.809   0.313  -6.001  0.00  0.00    +0.004 A 
ATOM     14  C   UNL     1       8.235   1.471  -5.384  0.00  0.00    +0.046 A 
ATOM     15  C   UNL     1       7.475   2.050  -4.372  0.00  0.00    +0.132 A 
ATOM     16  C   UNL     1       6.272   1.454  -3.981  0.00  0.00    +0.075 A 
ATOM     17  C   UNL     1       5.456   2.057  -2.911  0.00  0.00    +0.202 C 
ATOM     18  O   UNL     1       5.827   3.078  -2.364  0.00  0.00    -0.286 OA
ATOM     19  C   UNL     1       1.424   2.029  -0.001  0.00  0.00    +0.151 C 
ATOM     20  C   UNL     1      -0.019   1.529   0.010  0.00  0.00    +0.071 C 
ENDROOT
BRANCH   1  22
ATOM     21  C   UNL     1      -1.383  -2.070   0.241  0.00  0.00    +0.007 C 
ATOM     22  C   UNL     1      -1.409  -0.540   0.250  0.00  0.00    +0.032 C 
ENDBRANCH   1  22
BRANCH   8  23
ATOM     23  O   UNL     1       2.139  -1.490  -3.351  0.00  0.00    -0.506 OA
ATOM     24  H   UNL     1       1.584  -1.339  -4.128  0.00  0.00    +0.292 HD
ENDBRANCH   8  23
BRANCH  15  25
ATOM     25  O   UNL     1       7.898   3.188  -3.769  0.00  0.00    -0.494 OA
ATOM     26  C   UNL     1       9.136   3.741  -4.221  0.00  0.00    +0.277 C 
ENDBRANCH  15  25
BRANCH   5  27
ATOM     27  O   UNL     1       3.817   3.116  -0.881  0.00  0.00    -0.506 OA
ATOM     28  H   UNL     1       4.369   2.966  -0.102  0.00  0.00    +0.292 HD
ENDBRANCH   5  27
BRANCH  19  29
ATOM     29  O   UNL     1       2.038   1.723   1.253  0.00  0.00    -0.387 OA
ATOM     30  H   UNL     1       2.959   2.011   1.321  0.00  0.00    +0.210 HD
ENDBRANCH  19  29
BRANCH   1  31
ATOM     31  O   UNL     1       0.884  -0.479   1.021  0.00  0.00    -0.388 OA
ATOM     32  H   UNL     1       0.944  -1.443   1.071  0.00  0.00    +0.210 HD
ENDBRANCH   1  31
TORSDOF 6
