REMARK  Name = ZINC67273655
REMARK  10 active torsions:
REMARK  status: ('A' for Active; 'I' for Inactive)
REMARK    1  A    between atoms: C_1  and  N_2
REMARK    2  A    between atoms: N_2  and  C_3
REMARK    3  A    between atoms: N_2  and  C_26
REMARK    4  A    between atoms: C_3  and  C_4
REMARK    5  A    between atoms: C_4  and  N_5
REMARK    6  A    between atoms: C_6  and  C_8
REMARK    7  A    between atoms: C_14  and  C_16
REMARK    8  A    between atoms: C_26  and  C_27
REMARK    9  A    between atoms: C_27  and  O_28
REMARK   10  A    between atoms: O_28  and  C_29
REMARK                            x       y       z     vdW  Elec       q    Type
REMARK                         _______ _______ _______ _____ _____    ______ ____
ROOT
ATOM      1  C   UNL     1       0.739  -0.787  -6.098  0.00  0.00    +0.173 C 
ATOM      2  C   UNL     1       2.159  -0.172  -6.130  0.00  0.00    +0.102 C 
ATOM      3  S   UNL     1       2.334   0.134  -7.945  0.00  0.00    -0.139 S 
ATOM      4  C   UNL     1       0.537   0.396  -8.285  0.00  0.00    +0.178 C 
ATOM      5  N   UNL     1      -0.077  -0.469  -7.258  0.00  0.00    -0.276 N 
ATOM      6  C   UNL     1      -1.333  -0.939  -7.393  0.00  0.00    +0.250 C 
ATOM      7  O   UNL     1      -1.776  -1.731  -6.582  0.00  0.00    -0.270 OA
ENDROOT
BRANCH   6   8
ATOM      8  C   UNL     1      -2.166  -0.497  -8.519  0.00  0.00    +0.062 A 
ATOM      9  C   UNL     1      -2.047   0.670  -9.214  0.00  0.00    +0.096 A 
ATOM     10  N   UNL     1      -2.993   0.726 -10.182  0.00  0.00    -0.360 N 
ATOM     11  H   UNL     1      -3.105   1.461 -10.804  0.00  0.00    +0.165 HD
ATOM     12  C   UNL     1      -3.773  -0.412 -10.159  0.00  0.00    +0.047 A 
ATOM     13  C   UNL     1      -3.292  -1.232  -9.126  0.00  0.00    +0.012 A 
ATOM     14  C   UNL     1      -3.892  -2.462  -8.873  0.00  0.00    +0.011 A 
ATOM     15  C   UNL     1      -4.959  -2.872  -9.644  0.00  0.00    +0.001 A 
ATOM     16  C   UNL     1      -5.433  -2.065 -10.667  0.00  0.00    +0.002 A 
ATOM     17  C   UNL     1      -4.854  -0.840 -10.922  0.00  0.00    +0.026 A 
ENDBRANCH   6   8
BRANCH   1  19
ATOM     18  N   UNL     1       0.557  -0.521  -3.646  0.00  0.00    -0.316 N 
ATOM     19  C   UNL     1       0.030  -0.291  -4.865  0.00  0.00    +0.234 C 
ATOM     20  O   UNL     1      -1.015   0.317  -4.968  0.00  0.00    -0.274 OA
ATOM     21  H   UNL     1       1.393  -1.007  -3.563  0.00  0.00    +0.149 HD
BRANCH  18  22
ATOM     22  C   UNL     1      -0.132  -0.039  -2.446  0.00  0.00    +0.086 C 
BRANCH  22  23
ATOM     23  C   UNL     1       0.672  -0.430  -1.205  0.00  0.00    -0.060 C 
BRANCH  23  25
ATOM     24  C   UNL     1      -0.037   1.523  -0.006  0.00  0.00    -0.096 C 
ATOM     25  N   UNL     1      -0.019   0.054  -0.002  0.00  0.00    +0.380 N 
ATOM     26  H   UNL     1      -0.966  -0.294   0.005  0.00  0.00    -0.082 HD
BRANCH  25  27
ATOM     27  C   UNL     1       0.688  -0.424   1.194  0.00  0.00    -0.051 C 
BRANCH  27  28
ATOM     28  C   UNL     1      -0.099  -0.026   2.445  0.00  0.00    +0.141 C 
BRANCH  28  29
ATOM     29  O   UNL     1      -1.357  -0.705   2.452  0.00  0.00    -0.385 OA
ATOM     30  C   UNL     1      -2.174  -0.401   3.584  0.00  0.00    +0.193 C 
ENDBRANCH  28  29
ENDBRANCH  27  28
ENDBRANCH  25  27
ENDBRANCH  23  25
ENDBRANCH  22  23
ENDBRANCH  18  22
ENDBRANCH   1  19
TORSDOF 8
