REMARK  Name = ZINC31944025
REMARK  1 active torsions:
REMARK  status: ('A' for Active; 'I' for Inactive)
REMARK    1  A    between atoms: C_3  and  C_8
REMARK                            x       y       z     vdW  Elec       q    Type
REMARK                         _______ _______ _______ _____ _____    ______ ____
ROOT
ATOM      1  C   UNL     1      -0.432  -2.140  -0.005  0.00  0.00    +0.139 A 
ATOM      2  N   UNL     1       0.933  -2.030  -0.018  0.00  0.00    -0.338 N 
ATOM      3  H   UNL     1       1.557  -2.935  -0.029  0.00  0.00    +0.167 HD
ATOM      4  C   UNL     1       1.234  -0.680  -0.013  0.00  0.00    +0.070 A 
ATOM      5  C   UNL     1       2.421   0.038  -0.021  0.00  0.00    +0.077 A 
ATOM      6  C   UNL     1       2.392   1.420  -0.014  0.00  0.00    +0.168 A 
ATOM      7  C   UNL     1       1.169   2.099   0.002  0.00  0.00    +0.168 A 
ATOM      8  C   UNL     1      -0.017   1.395   0.010  0.00  0.00    +0.079 A 
ATOM      9  C   UNL     1       0.002  -0.004   0.002  0.00  0.00    +0.093 A 
ATOM     10  N   UNL     1      -0.973  -0.946   0.006  0.00  0.00    -0.228 NA
ATOM     11  O   UNL     1       1.418   3.442   0.006  0.00  0.00    -0.453 OA
ATOM     12  C   UNL     1       2.786   3.581  -0.420  0.00  0.00    +0.466 C 
ATOM     13  O   UNL     1       3.400   2.342  -0.018  0.00  0.00    -0.453 OA
ENDROOT
BRANCH   1  16
ATOM     14  C   UNL     1      -3.274  -4.597   0.009  0.00  0.00    +0.002 A 
ATOM     15  C   UNL     1      -2.578  -3.405   0.009  0.00  0.00    +0.011 A 
ATOM     16  C   UNL     1      -1.183  -3.414  -0.005  0.00  0.00    +0.018 A 
ATOM     17  C   UNL     1      -0.499  -4.630  -0.023  0.00  0.00    +0.026 A 
ATOM     18  C   UNL     1      -1.206  -5.816  -0.018  0.00  0.00    +0.019 A 
ATOM     19  C   UNL     1      -2.591  -5.799  -0.004  0.00  0.00    +0.015 A 
ATOM     20 BR   UNL     1      -0.282  -7.466  -0.035  0.00  0.00    -0.050 Br
ENDBRANCH   1  16
TORSDOF 1
