REMARK  Name = ZINC01299134
REMARK  11 active torsions:
REMARK  status: ('A' for Active; 'I' for Inactive)
REMARK    1  A    between atoms: C_1  and  C_2
REMARK    2  A    between atoms: C_3  and  C_25
REMARK    3  A    between atoms: C_15  and  C_19
REMARK    4  A    between atoms: C_16  and  N_18
REMARK    5  A    between atoms: C_19  and  O_21
REMARK    6  A    between atoms: O_21  and  C_22
REMARK    7  A    between atoms: C_22  and  C_23
REMARK    8  A    between atoms: C_22  and  C_24
REMARK    9  A    between atoms: C_25  and  O_27
REMARK   10  A    between atoms: O_27  and  C_28
REMARK   11  A    between atoms: C_28  and  C_29
REMARK                            x       y       z     vdW  Elec       q    Type
REMARK                         _______ _______ _______ _____ _____    ______ ____
ROOT
ATOM      1  C   UNL     1      -0.054   1.502   0.000  0.00  0.00    +0.087 C 
ATOM      2  C   UNL     1      -0.015  -0.005  -0.003  0.00  0.00    +0.116 C 
ATOM      3  C   UNL     1      -1.170  -0.685   0.020  0.00  0.00    +0.098 C 
ATOM      4  C   UNL     1      -1.181  -2.186   0.017  0.00  0.00    +0.145 C 
ATOM      5  C   UNL     1      -1.577  -2.715   1.373  0.00  0.00    -0.001 A 
ATOM      6  C   UNL     1      -1.021  -2.600   2.627  0.00  0.00    +0.022 A 
ATOM      7  C   UNL     1      -1.627  -3.212   3.711  0.00  0.00    +0.018 A 
ATOM      8  C   UNL     1      -2.790  -3.939   3.529  0.00  0.00    +0.017 A 
ATOM      9  C   UNL     1      -3.350  -4.056   2.274  0.00  0.00    +0.025 A 
ATOM     10  C   UNL     1      -2.746  -3.442   1.179  0.00  0.00    +0.038 A 
ATOM     11  N   UNL     1      -3.114  -3.413  -0.168  0.00  0.00    -0.284 N 
ATOM     12  C   UNL     1      -2.252  -2.700  -0.915  0.00  0.00    +0.237 C 
ATOM     13  O   UNL     1      -2.323  -2.507  -2.111  0.00  0.00    -0.274 OA
ATOM     14 BR   UNL     1      -0.866  -3.057   5.435  0.00  0.00    -0.050 Br
ATOM     15  C   UNL     1       0.162  -2.725  -0.385  0.00  0.00    +0.117 C 
ATOM     16  C   UNL     1       1.257  -1.919  -0.386  0.00  0.00    +0.195 C 
ATOM     17  O   UNL     1       1.175  -0.625  -0.034  0.00  0.00    -0.446 OA
ATOM     18  H   UNL     1      -3.899  -3.857  -0.524  0.00  0.00    +0.155 HD
ENDROOT
BRANCH  16  19
ATOM     19  N   UNL     1       2.469  -2.435  -0.760  0.00  0.00    -0.329 N 
ATOM     20  H   UNL     1       2.526  -3.345  -1.092  0.00  0.00    +0.145 HD
ATOM     21  H   UNL     1       3.269  -1.891  -0.692  0.00  0.00    +0.145 HD
ENDBRANCH  16  19
BRANCH  15  22
ATOM     22  C   UNL     1       0.287  -4.071  -0.762  0.00  0.00    +0.342 C 
ATOM     23  O   UNL     1       0.336  -4.940   0.090  0.00  0.00    -0.245 OA
BRANCH  22  24
ATOM     24  O   UNL     1       0.354  -4.402  -2.070  0.00  0.00    -0.458 OA
BRANCH  24  25
ATOM     25  C   UNL     1       0.481  -5.791  -2.381  0.00  0.00    +0.171 C 
ATOM     26  C   UNL     1      -0.180  -6.073  -3.732  0.00  0.00    +0.052 C 
ATOM     27  C   UNL     1       1.963  -6.164  -2.450  0.00  0.00    +0.052 C 
ENDBRANCH  24  25
ENDBRANCH  22  24
ENDBRANCH  15  22
BRANCH   3  28
ATOM     28  C   UNL     1      -2.397   0.023   0.048  0.00  0.00    +0.340 C 
ATOM     29  O   UNL     1      -2.397   1.239   0.051  0.00  0.00    -0.245 OA
BRANCH  28  30
ATOM     30  O   UNL     1      -3.564  -0.653   0.071  0.00  0.00    -0.457 OA
BRANCH  30  31
ATOM     31  C   UNL     1      -4.763   0.125   0.099  0.00  0.00    +0.268 C 
BRANCH  31  32
ATOM     32  C   UNL     1      -5.957  -0.794   0.122  0.00  0.00    -0.010 A 
ATOM     33  C   UNL     1      -6.527  -1.217  -1.064  0.00  0.00    +0.007 A 
ATOM     34  C   UNL     1      -7.623  -2.059  -1.043  0.00  0.00    +0.000 A 
ATOM     35  C   UNL     1      -8.148  -2.479   0.165  0.00  0.00    +0.000 A 
ATOM     36  C   UNL     1      -7.578  -2.057   1.351  0.00  0.00    +0.000 A 
ATOM     37  C   UNL     1      -6.480  -1.218   1.329  0.00  0.00    +0.007 A 
ENDBRANCH  31  32
ENDBRANCH  30  31
ENDBRANCH  28  30
ENDBRANCH   3  28
TORSDOF 8
