REMARK  Name = ZINC40004241
REMARK  7 active torsions:
REMARK  status: ('A' for Active; 'I' for Inactive)
REMARK    1  A    between atoms: C_1  and  C_2
REMARK    2  A    between atoms: C_2  and  C_4
REMARK    3  A    between atoms: C_7  and  C_10
REMARK    4  A    between atoms: C_13  and  C_15
REMARK    5  A    between atoms: N_19  and  N_23
REMARK    6  A    between atoms: C_24  and  C_26
REMARK    7  A    between atoms: C_31  and  O_32
REMARK                            x       y       z     vdW  Elec       q    Type
REMARK                         _______ _______ _______ _____ _____    ______ ____
ROOT
ATOM      1  C   UNL     1      -8.456  -3.203   0.051  0.00  0.00    +0.066 C 
ATOM      2  C   UNL     1      -8.988  -1.948   0.050  0.00  0.00    +0.082 C 
ATOM      3  C   UNL     1     -10.401  -1.526   0.061  0.00  0.00    +0.275 C 
ATOM      4  O   UNL     1     -11.309  -2.336   0.073  0.00  0.00    -0.267 OA
ATOM      5  N   UNL     1     -10.632  -0.224   0.056  0.00  0.00    -0.169 N 
ATOM      6  C   UNL     1      -9.622   0.671   0.042  0.00  0.00    +0.138 C 
ATOM      7  S   UNL     1      -9.716   2.380   0.035  0.00  0.00    -0.026 S 
ATOM      8  S   UNL     1      -8.165  -0.361   0.042  0.00  0.00    -0.059 S 
ENDROOT
BRANCH   1  12
ATOM      9  C   UNL     1      -4.901  -2.925   0.034  0.00  0.00    +0.136 A 
ATOM     10  C   UNL     1      -5.020  -4.297   0.039  0.00  0.00    +0.050 A 
ATOM     11  C   UNL     1      -6.386  -4.588   0.047  0.00  0.00    +0.050 A 
ATOM     12  C   UNL     1      -7.054  -3.376   0.046  0.00  0.00    +0.130 A 
ATOM     13  O   UNL     1      -6.136  -2.388   0.044  0.00  0.00    -0.455 OA
BRANCH   9  17
ATOM     14  C   UNL     1      -1.260  -0.756   0.010  0.00  0.00    +0.017 A 
ATOM     15  C   UNL     1      -2.483  -0.072   0.020  0.00  0.00    +0.012 A 
ATOM     16  C   UNL     1      -3.655  -0.771   0.027  0.00  0.00    +0.012 A 
ATOM     17  C   UNL     1      -3.635  -2.171   0.026  0.00  0.00    +0.017 A 
ATOM     18  C   UNL     1      -2.414  -2.854   0.017  0.00  0.00    +0.012 A 
ATOM     19  C   UNL     1      -1.241  -2.157   0.002  0.00  0.00    +0.012 A 
BRANCH  14  21
ATOM     20  C   UNL     1      -0.018   1.503   0.010  0.00  0.00    +0.091 C 
ATOM     21  C   UNL     1       0.002  -0.004   0.002  0.00  0.00    +0.160 C 
ATOM     22  O   UNL     1       1.061  -0.596  -0.011  0.00  0.00    -0.292 OA
ENDBRANCH  14  21
ENDBRANCH   9  17
ENDBRANCH   1  12
BRANCH   5  23
ATOM     23  N   UNL     1     -11.955   0.237   0.065  0.00  0.00    -0.222 N 
ATOM     24  C   UNL     1     -12.482   0.749   1.195  0.00  0.00    +0.264 C 
ATOM     25  O   UNL     1     -11.810   0.812   2.206  0.00  0.00    -0.269 OA
ATOM     26  H   UNL     1     -12.492   0.187  -0.741  0.00  0.00    +0.174 HD
BRANCH  24  27
ATOM     27  C   UNL     1     -13.876   1.234   1.205  0.00  0.00    +0.079 A 
ATOM     28  C   UNL     1     -14.654   1.159   0.047  0.00  0.00    +0.017 A 
ATOM     29  C   UNL     1     -15.954   1.614   0.062  0.00  0.00    +0.001 A 
ATOM     30  C   UNL     1     -16.495   2.147   1.222  0.00  0.00    +0.004 A 
ATOM     31  C   UNL     1     -15.737   2.227   2.373  0.00  0.00    +0.046 A 
ATOM     32  C   UNL     1     -14.428   1.768   2.377  0.00  0.00    +0.129 A 
BRANCH  32  33
ATOM     33  O   UNL     1     -13.684   1.841   3.509  0.00  0.00    -0.506 OA
ATOM     34  H   UNL     1     -13.189   2.667   3.602  0.00  0.00    +0.292 HD
ENDBRANCH  32  33
ENDBRANCH  24  27
ENDBRANCH   5  23
TORSDOF 6
