REMARK  Name = ZINC09209874
REMARK  5 active torsions:
REMARK  status: ('A' for Active; 'I' for Inactive)
REMARK    1  A    between atoms: C_1  and  C_2
REMARK    2  A    between atoms: N_15  and  C_27
REMARK    3  A    between atoms: C_16  and  C_18
REMARK    4  A    between atoms: C_22  and  N_24
REMARK    5  A    between atoms: C_27  and  C_28
REMARK                            x       y       z     vdW  Elec       q    Type
REMARK                         _______ _______ _______ _____ _____    ______ ____
ROOT
ATOM      1  C   UNL     1       7.230   2.718  -1.981  0.00  0.00    +0.044 C 
ATOM      2  C   UNL     1       6.021   2.777  -1.083  0.00  0.00    -0.050 A 
ATOM      3  C   UNL     1       6.078   3.495   0.104  0.00  0.00    +0.007 A 
ATOM      4  C   UNL     1       4.985   3.563   0.940  0.00  0.00    +0.047 A 
ATOM      5  C   UNL     1       3.807   2.906   0.596  0.00  0.00    +0.139 A 
ATOM      6  C   UNL     1       3.759   2.183  -0.608  0.00  0.00    +0.065 A 
ATOM      7  C   UNL     1       4.875   2.125  -1.442  0.00  0.00    +0.018 A 
ATOM      8  C   UNL     1       2.501   1.493  -0.955  0.00  0.00    +0.199 A 
ATOM      9  O   UNL     1       2.387   0.848  -1.982  0.00  0.00    -0.287 OA
ATOM     10  C   UNL     1       1.394   1.624  -0.003  0.00  0.00    +0.072 A 
ATOM     11  C   UNL     1       1.561   2.351   1.129  0.00  0.00    +0.199 A 
ATOM     12  O   UNL     1       2.731   2.962   1.401  0.00  0.00    -0.450 OA
ATOM     13  C   UNL     1       0.293   2.312   1.900  0.00  0.00    +0.283 C 
ATOM     14  O   UNL     1       0.111   2.866   2.966  0.00  0.00    -0.267 OA
ATOM     15  N   UNL     1      -0.624   1.576   1.249  0.00  0.00    -0.281 N 
ATOM     16  C   UNL     1      -0.013   1.086   0.008  0.00  0.00    +0.145 C 
ENDROOT
BRANCH  16  17
ATOM     17  C   UNL     1      -0.774   1.601  -1.186  0.00  0.00    -0.020 A 
ATOM     18  C   UNL     1      -1.265   2.893  -1.188  0.00  0.00    +0.006 A 
ATOM     19  C   UNL     1      -1.964   3.365  -2.284  0.00  0.00    +0.003 A 
ATOM     20  C   UNL     1      -2.171   2.545  -3.377  0.00  0.00    +0.033 A 
ATOM     21  C   UNL     1      -1.679   1.253  -3.376  0.00  0.00    +0.127 A 
ATOM     22  C   UNL     1      -0.977   0.783  -2.282  0.00  0.00    +0.038 A 
BRANCH  21  23
ATOM     23  N   UNL     1      -1.901   0.376  -4.546  0.00  0.00    +0.056 N 
ATOM     24  O   UNL     1      -2.517   0.792  -5.512  0.00  0.00    -0.126 OA
ATOM     25  O   UNL     1      -1.468  -0.763  -4.545  0.00  0.00    -0.126 OA
ENDBRANCH  21  23
ENDBRANCH  16  17
BRANCH  15  26
ATOM     26  C   UNL     1      -1.993   1.311   1.699  0.00  0.00    +0.140 C 
BRANCH  26  27
ATOM     27  C   UNL     1      -2.014   0.038   2.547  0.00  0.00    +0.136 C 
ATOM     28  C   UNL     1      -3.468  -0.313   2.929  0.00  0.00    +0.035 C 
ATOM     29  C   UNL     1      -3.314  -0.805   4.394  0.00  0.00    +0.031 C 
ATOM     30  C   UNL     1      -2.163   0.105   4.891  0.00  0.00    +0.160 C 
ATOM     31  O   UNL     1      -1.286   0.251   3.762  0.00  0.00    -0.375 OA
ENDBRANCH  26  27
ENDBRANCH  15  26
TORSDOF 4
