REMARK  Name = ZINC39488279
REMARK  8 active torsions:
REMARK  status: ('A' for Active; 'I' for Inactive)
REMARK    1  A    between atoms: C_1  and  C_2
REMARK    2  A    between atoms: C_2  and  C_31
REMARK    3  A    between atoms: N_7  and  C_8
REMARK    4  A    between atoms: C_8  and  C_9
REMARK    5  A    between atoms: C_9  and  C_24
REMARK    6  A    between atoms: N_12  and  S_15
REMARK    7  A    between atoms: S_15  and  C_18
REMARK    8  A    between atoms: C_36  and  O_37
REMARK                            x       y       z     vdW  Elec       q    Type
REMARK                         _______ _______ _______ _____ _____    ______ ____
ROOT
ATOM      1  C   UNL     1       2.150   0.812   2.475  0.00  0.00    -0.008 C 
ATOM      2  C   UNL     1       1.590   0.354   3.824  0.00  0.00    +0.026 C 
ATOM      3  C   UNL     1       0.175  -0.199   3.625  0.00  0.00    +0.110 C 
ATOM      4  N   UNL     1      -0.639   0.819   2.947  0.00  0.00    -0.177 NA
ATOM      5  C   UNL     1      -0.148   1.393   1.687  0.00  0.00    +0.110 C 
ATOM      6  C   UNL     1       1.270   1.928   1.908  0.00  0.00    +0.026 C 
ENDROOT
BRANCH   1   7
ATOM      7  C   UNL     1       3.575   1.333   2.665  0.00  0.00    -0.003 C 
ATOM      8  C   UNL     1       4.387   0.316   3.469  0.00  0.00    +0.004 C 
ATOM      9  C   UNL     1       5.813   0.837   3.659  0.00  0.00    +0.000 C 
ATOM     10  C   UNL     1       5.773   2.168   4.413  0.00  0.00    +0.000 C 
ATOM     11  C   UNL     1       4.961   3.185   3.609  0.00  0.00    +0.000 C 
ATOM     12  C   UNL     1       3.535   2.664   3.419  0.00  0.00    +0.004 C 
ENDBRANCH   1   7
BRANCH   4  13
ATOM     13  S   UNL     1      -2.083   1.310   3.592  0.00  0.00    +0.061 S 
ATOM     14  O   UNL     1      -2.857   1.819   2.514  0.00  0.00    -0.153 OA
ATOM     15  O   UNL     1      -2.538   0.251   4.423  0.00  0.00    -0.153 OA
BRANCH  13  16
ATOM     16  C   UNL     1      -1.743   2.673   4.655  0.00  0.00    +0.105 A 
ATOM     17  C   UNL     1      -1.451   2.454   5.988  0.00  0.00    +0.028 A 
ATOM     18  C   UNL     1      -1.183   3.523   6.822  0.00  0.00    +0.002 A 
ATOM     19  C   UNL     1      -1.208   4.812   6.324  0.00  0.00    +0.000 A 
ATOM     20  C   UNL     1      -1.500   5.031   4.990  0.00  0.00    +0.002 A 
ATOM     21  C   UNL     1      -1.763   3.962   4.155  0.00  0.00    +0.028 A 
ENDBRANCH  13  16
ENDBRANCH   4  13
BRANCH   1  22
ATOM     22  C   UNL     1       2.164  -0.369   1.502  0.00  0.00    +0.117 C 
BRANCH  22  29
ATOM     23  C   UNL     1       5.119   0.234   0.551  0.00  0.00    +0.039 C 
ATOM     24  C   UNL     1       3.996  -0.280  -0.352  0.00  0.00    +0.083 C 
ATOM     25  C   UNL     1       4.025   0.440  -1.714  0.00  0.00    +0.177 C 
ATOM     26  N   UNL     1       2.724   1.123  -1.779  0.00  0.00    -0.120 N 
ATOM     27  C   UNL     1       2.034   0.863  -0.661  0.00  0.00    +0.333 C 
ATOM     28  O   UNL     1       0.921   1.304  -0.451  0.00  0.00    -0.250 OA
ATOM     29  N   UNL     1       2.682   0.073   0.205  0.00  0.00    -0.272 N 
ATOM     30  F   UNL     1       2.309   1.861  -2.765  0.00  0.00    -0.105 F 
BRANCH  24  31
ATOM     31  C   UNL     1       4.109  -1.772  -0.537  0.00  0.00    +0.019 A 
ATOM     32  C   UNL     1       3.067  -2.596  -0.159  0.00  0.00    +0.009 A 
ATOM     33  C   UNL     1       3.170  -3.964  -0.328  0.00  0.00    +0.001 A 
ATOM     34  C   UNL     1       4.316  -4.511  -0.876  0.00  0.00    +0.004 A 
ATOM     35  C   UNL     1       5.360  -3.691  -1.256  0.00  0.00    +0.046 A 
ATOM     36  C   UNL     1       5.257  -2.317  -1.092  0.00  0.00    +0.122 A 
BRANCH  36  37
ATOM     37  O   UNL     1       6.281  -1.508  -1.470  0.00  0.00    -0.506 OA
ATOM     38  H   UNL     1       6.933  -1.347  -0.774  0.00  0.00    +0.292 HD
ENDBRANCH  36  37
ENDBRANCH  24  31
ENDBRANCH  22  29
ENDBRANCH   1  22
TORSDOF 7
