REMARK  Name = ZINC58179959
REMARK  8 active torsions:
REMARK  status: ('A' for Active; 'I' for Inactive)
REMARK    1  A    between atoms: C_1  and  C_2
REMARK    2  A    between atoms: C_2  and  N_3
REMARK    3  A    between atoms: C_9  and  C_16
REMARK    4  A    between atoms: N_18  and  C_19
REMARK    5  A    between atoms: C_19  and  C_20
REMARK    6  A    between atoms: N_25  and  C_27
REMARK    7  A    between atoms: C_27  and  C_28
REMARK    8  A    between atoms: C_27  and  C_29
REMARK                            x       y       z     vdW  Elec       q    Type
REMARK                         _______ _______ _______ _____ _____    ______ ____
ROOT
ATOM      1  N   UNL     1       0.711  -0.489   1.189  0.00  0.00    -0.261 N 
ATOM      2  C   UNL     1       2.045  -0.686   1.129  0.00  0.00    +0.264 A 
ATOM      3  O   UNL     1       2.663  -0.467   0.105  0.00  0.00    -0.267 OA
ATOM      4  C   UNL     1       2.736  -1.175   2.339  0.00  0.00    +0.063 A 
ATOM      5  C   UNL     1       4.110  -1.402   2.353  0.00  0.00    +0.016 A 
ATOM      6  C   UNL     1       4.715  -1.858   3.504  0.00  0.00    +0.014 A 
ATOM      7  C   UNL     1       3.956  -2.094   4.653  0.00  0.00    +0.039 A 
ATOM      8  C   UNL     1       2.581  -1.870   4.646  0.00  0.00    +0.039 A 
ATOM      9  C   UNL     1       1.967  -1.411   3.492  0.00  0.00    +0.056 A 
ATOM     10  N   UNL     1       0.600  -1.175   3.443  0.00  0.00    -0.307 N 
ATOM     11  H   UNL     1       0.057  -1.333   4.231  0.00  0.00    +0.170 HD
ATOM     12  C   UNL     1       0.022  -0.724   2.317  0.00  0.00    +0.330 A 
ATOM     13  O   UNL     1      -1.178  -0.526   2.318  0.00  0.00    -0.246 OA
ENDROOT
BRANCH   7  14
ATOM     14  C   UNL     1       4.616  -2.586   5.884  0.00  0.00    +0.244 C 
ATOM     15  O   UNL     1       3.958  -2.792   6.885  0.00  0.00    -0.270 OA
ATOM     16  N   UNL     1       5.946  -2.804   5.894  0.00  0.00    -0.311 N 
ATOM     17  H   UNL     1       6.470  -2.639   5.095  0.00  0.00    +0.149 HD
BRANCH  16  18
ATOM     18  C   UNL     1       6.599  -3.290   7.112  0.00  0.00    +0.106 C 
BRANCH  18  19
ATOM     19  C   UNL     1       8.099  -3.452   6.857  0.00  0.00    -0.011 C 
ATOM     20  C   UNL     1       8.323  -4.551   5.813  0.00  0.00    +0.001 C 
ATOM     21  C   UNL     1       9.829  -4.759   5.622  0.00  0.00    -0.018 C 
ATOM     22  C   UNL     1      10.466  -5.101   6.971  0.00  0.00    -0.078 C 
ATOM     23  N   UNL     1      10.239  -4.002   7.916  0.00  0.00    +0.381 N 
ATOM     24  C   UNL     1       8.800  -3.842   8.160  0.00  0.00    -0.074 C 
ATOM     25  H   UNL     1      10.610  -3.146   7.531  0.00  0.00    -0.081 HD
BRANCH  23  26
ATOM     26  C   UNL     1      10.918  -4.300   9.184  0.00  0.00    -0.075 C 
ATOM     27  C   UNL     1      12.419  -4.457   8.934  0.00  0.00    -0.014 C 
ATOM     28  C   UNL     1      10.682  -3.155  10.171  0.00  0.00    -0.014 C 
ENDBRANCH  23  26
ENDBRANCH  18  19
ENDBRANCH  16  18
ENDBRANCH   7  14
BRANCH   1  30
ATOM     29  C   UNL     1      -0.019   1.526   0.010  0.00  0.00    +0.027 C 
ATOM     30  C   UNL     1       0.002  -0.004   0.002  0.00  0.00    +0.126 C 
ENDBRANCH   1  30
TORSDOF 5
