REMARK  Name = ZINC21738832
REMARK  8 active torsions:
REMARK  status: ('A' for Active; 'I' for Inactive)
REMARK    1  A    between atoms: C_1  and  O_2
REMARK    2  A    between atoms: O_2  and  C_3
REMARK    3  A    between atoms: C_6  and  C_9
REMARK    4  A    between atoms: C_9  and  N_10
REMARK    5  A    between atoms: C_11  and  S_15
REMARK    6  A    between atoms: S_15  and  C_16
REMARK    7  A    between atoms: C_16  and  C_17
REMARK    8  A    between atoms: C_23  and  C_28
REMARK                            x       y       z     vdW  Elec       q    Type
REMARK                         _______ _______ _______ _____ _____    ______ ____
ROOT
ATOM      1  C   UNL     1       6.599   1.690  -5.725  0.00  0.00    +0.121 A 
ATOM      2  N   UNL     1       7.793   2.324  -5.852  0.00  0.00    -0.310 N 
ATOM      3  H   UNL     1       8.599   1.887  -5.538  0.00  0.00    +0.170 HD
ATOM      4  C   UNL     1       7.878   3.548  -6.405  0.00  0.00    +0.260 A 
ATOM      5  O   UNL     1       8.958   4.105  -6.512  0.00  0.00    -0.267 OA
ATOM      6  C   UNL     1       6.683   4.186  -6.867  0.00  0.00    +0.080 A 
ATOM      7  C   UNL     1       6.517   5.492  -7.494  0.00  0.00    +0.005 A 
ATOM      8  C   UNL     1       5.272   5.889  -7.852  0.00  0.00    +0.056 A 
ATOM      9  S   UNL     1       4.244   4.518  -7.361  0.00  0.00    -0.076 S 
ATOM     10  C   UNL     1       5.497   3.454  -6.694  0.00  0.00    +0.116 A 
ATOM     11  N   UNL     1       5.492   2.244  -6.141  0.00  0.00    -0.226 NA
ENDROOT
BRANCH   7  12
ATOM     12  C   UNL     1       7.688   6.368  -7.735  0.00  0.00    +0.002 A 
ATOM     13  C   UNL     1       7.800   7.586  -7.066  0.00  0.00    +0.010 A 
ATOM     14  C   UNL     1       8.893   8.398  -7.293  0.00  0.00    +0.001 A 
ATOM     15  C   UNL     1       9.876   8.005  -8.184  0.00  0.00    +0.001 A 
ATOM     16  C   UNL     1       9.771   6.798  -8.851  0.00  0.00    +0.020 A 
ATOM     17  C   UNL     1       8.685   5.975  -8.627  0.00  0.00    +0.049 A 
ATOM     18 CL   UNL     1       8.558   4.457  -9.460  0.00  0.00    -0.083 Cl
ENDBRANCH   7  12
BRANCH   1  19
ATOM     19  C   UNL     1       6.552   0.319  -5.099  0.00  0.00    +0.151 C 
BRANCH  19  20
ATOM     20  S   UNL     1       4.838  -0.275  -5.073  0.00  0.00    -0.077 S 
BRANCH  20  22
ATOM     21  N   UNL     1       3.923  -2.713  -4.080  0.00  0.00    -0.216 N 
ATOM     22  C   UNL     1       4.949  -1.865  -4.323  0.00  0.00    +0.210 A 
ATOM     23  N   UNL     1       6.046  -2.452  -3.894  0.00  0.00    -0.101 NA
ATOM     24  N   UNL     1       5.775  -3.606  -3.401  0.00  0.00    -0.022 NA
ATOM     25  N   UNL     1       4.508  -3.837  -3.470  0.00  0.00    -0.043 NA
BRANCH  21  26
ATOM     26  C   UNL     1       2.505  -2.503  -4.381  0.00  0.00    +0.183 C 
BRANCH  26  30
ATOM     27  C   UNL     1       0.606  -0.607  -1.056  0.00  0.00    +0.120 A 
ATOM     28  C   UNL     1       1.173   0.161  -2.062  0.00  0.00    +0.046 A 
ATOM     29  C   UNL     1       1.786  -0.455  -3.136  0.00  0.00    +0.009 A 
ATOM     30  C   UNL     1       1.835  -1.835  -3.209  0.00  0.00    -0.026 A 
ATOM     31  C   UNL     1       1.270  -2.602  -2.207  0.00  0.00    +0.009 A 
ATOM     32  C   UNL     1       0.661  -1.992  -1.128  0.00  0.00    +0.046 A 
BRANCH  27  34
ATOM     33  C   UNL     1      -0.017   1.425   0.010  0.00  0.00    +0.277 C 
ATOM     34  O   UNL     1       0.002  -0.004   0.002  0.00  0.00    -0.495 OA
ENDBRANCH  27  34
ENDBRANCH  26  30
ENDBRANCH  21  26
ENDBRANCH  20  22
ENDBRANCH  19  20
ENDBRANCH   1  19
TORSDOF 7
