REMARK  Name = ZINC09144948
REMARK  5 active torsions:
REMARK  status: ('A' for Active; 'I' for Inactive)
REMARK    1  A    between atoms: C_1  and  N_2
REMARK    2  A    between atoms: N_7  and  C_10
REMARK    3  A    between atoms: N_11  and  C_25
REMARK    4  A    between atoms: N_17  and  C_20
REMARK    5  A    between atoms: C_25  and  C_26
REMARK                            x       y       z     vdW  Elec       q    Type
REMARK                         _______ _______ _______ _____ _____    ______ ____
ROOT
ATOM      1  C   UNL     1       0.956   6.042  -0.154  0.00  0.00    +0.155 C 
ATOM      2  N   UNL     1       1.448   4.666  -0.255  0.00  0.00    -0.280 N 
ATOM      3  C   UNL     1       0.573   3.604  -0.094  0.00  0.00    +0.170 A 
ATOM      4  C   UNL     1       1.066   2.307  -0.195  0.00  0.00    +0.153 A 
ATOM      5  C   UNL     1       2.434   2.112  -0.456  0.00  0.00    +0.282 A 
ATOM      6  O   UNL     1       2.888   0.985  -0.548  0.00  0.00    -0.265 OA
ATOM      7  N   UNL     1       3.238   3.185  -0.603  0.00  0.00    -0.262 N 
ATOM      8  C   UNL     1       2.751   4.434  -0.503  0.00  0.00    +0.333 A 
ATOM      9  O   UNL     1       3.505   5.377  -0.642  0.00  0.00    -0.246 OA
ATOM     10  C   UNL     1       4.664   2.986  -0.875  0.00  0.00    +0.157 C 
ATOM     11  N   UNL     1      -0.016   1.461   0.007  0.00  0.00    -0.302 N 
ATOM     12  C   UNL     1      -1.101   2.254   0.212  0.00  0.00    +0.201 A 
ATOM     13  N   UNL     1      -0.735   3.519   0.155  0.00  0.00    -0.196 NA
ATOM     14  N   UNL     1      -2.381   1.806   0.446  0.00  0.00    -0.298 N 
ATOM     15  C   UNL     1      -3.260   2.108  -0.692  0.00  0.00    +0.127 C 
ATOM     16  C   UNL     1      -4.651   1.525  -0.427  0.00  0.00    +0.125 C 
ATOM     17  N   UNL     1      -5.189   2.094   0.816  0.00  0.00    -0.314 N 
ATOM     18  C   UNL     1      -4.309   1.792   1.954  0.00  0.00    +0.125 C 
ATOM     19  C   UNL     1      -2.919   2.375   1.689  0.00  0.00    +0.127 C 
ENDROOT
BRANCH  17  20
ATOM     20  C   UNL     1      -6.481   1.641   1.053  0.00  0.00    +0.099 A 
ATOM     21  C   UNL     1      -7.466   1.833   0.089  0.00  0.00    +0.042 A 
ATOM     22  C   UNL     1      -8.748   1.378   0.337  0.00  0.00    +0.005 A 
ATOM     23  C   UNL     1      -9.004   0.743   1.546  0.00  0.00    +0.018 A 
ATOM     24  C   UNL     1      -7.979   0.586   2.457  0.00  0.00    +0.084 A 
ATOM     25  N   UNL     1      -6.706   1.016   2.244  0.00  0.00    -0.350 N 
ATOM     26  H   UNL     1      -5.961   0.877   2.937  0.00  0.00    +0.166 HD
ENDBRANCH  17  20
BRANCH  11  27
ATOM     27  C   UNL     1       0.006  -0.004  -0.005  0.00  0.00    +0.160 C 
BRANCH  27  28
ATOM     28  C   UNL     1       0.151  -0.516   1.405  0.00  0.00    -0.028 A 
ATOM     29  C   UNL     1       1.410  -0.737   1.933  0.00  0.00    +0.007 A 
ATOM     30  C   UNL     1       1.544  -1.201   3.228  0.00  0.00    +0.020 A 
ATOM     31  C   UNL     1       0.418  -1.455   3.992  0.00  0.00    +0.041 A 
ATOM     32  C   UNL     1      -0.841  -1.239   3.460  0.00  0.00    +0.020 A 
ATOM     33  C   UNL     1      -0.974  -0.769   2.167  0.00  0.00    +0.007 A 
ATOM     34 CL   UNL     1       0.586  -2.044   5.616  0.00  0.00    -0.084 Cl
ENDBRANCH  27  28
ENDBRANCH  11  27
TORSDOF 3
