REMARK  Name = ZINC09478008
REMARK  10 active torsions:
REMARK  status: ('A' for Active; 'I' for Inactive)
REMARK    1  A    between atoms: C_1  and  C_2
REMARK    2  A    between atoms: C_2  and  C_3
REMARK    3  A    between atoms: C_6  and  N_9
REMARK    4  A    between atoms: C_13  and  C_14
REMARK    5  A    between atoms: N_16  and  C_23
REMARK    6  A    between atoms: C_23  and  C_24
REMARK    7  A    between atoms: C_24  and  O_25
REMARK    8  A    between atoms: O_25  and  C_26
REMARK    9  A    between atoms: C_31  and  C_32
REMARK   10  A    between atoms: C_32  and  C_33
REMARK                            x       y       z     vdW  Elec       q    Type
REMARK                         _______ _______ _______ _____ _____    ______ ____
ROOT
ATOM      1  C   UNL     1       5.984   3.138  -0.218  0.00  0.00    +0.001 A 
ATOM      2  C   UNL     1       4.920   4.002  -0.024  0.00  0.00    +0.095 A 
ATOM      3  N   UNL     1       5.354   5.274  -0.089  0.00  0.00    -0.343 N 
ATOM      4  C   UNL     1       6.713   5.315  -0.337  0.00  0.00    +0.050 A 
ATOM      5  C   UNL     1       7.171   3.992  -0.429  0.00  0.00    +0.007 A 
ATOM      6  C   UNL     1       8.515   3.733  -0.676  0.00  0.00    +0.010 A 
ATOM      7  C   UNL     1       9.396   4.783  -0.829  0.00  0.00    +0.001 A 
ATOM      8  C   UNL     1       8.945   6.091  -0.738  0.00  0.00    +0.002 A 
ATOM      9  C   UNL     1       7.616   6.361  -0.494  0.00  0.00    +0.026 A 
ENDROOT
BRANCH   1  14
ATOM     10  N   UNL     1       3.979   1.040   2.836  0.00  0.00    -0.190 N 
ATOM     11  C   UNL     1       4.663   1.760   1.923  0.00  0.00    +0.263 C 
ATOM     12  O   UNL     1       4.810   2.961   2.058  0.00  0.00    -0.269 OA
ATOM     13  C   UNL     1       5.227   1.054   0.760  0.00  0.00    +0.100 C 
ATOM     14  C   UNL     1       5.942   1.729  -0.220  0.00  0.00    +0.028 C 
ATOM     15  C   UNL     1       4.998  -0.399   0.682  0.00  0.00    +0.257 C 
ATOM     16  O   UNL     1       5.433  -1.051  -0.249  0.00  0.00    -0.270 OA
ATOM     17  N   UNL     1       4.294  -0.988   1.670  0.00  0.00    -0.235 N 
ATOM     18  C   UNL     1       3.813  -0.283   2.704  0.00  0.00    +0.320 C 
ATOM     19  O   UNL     1       3.191  -0.874   3.564  0.00  0.00    -0.251 OA
ATOM     20  H   UNL     1       4.134  -1.944   1.633  0.00  0.00    +0.159 HD
BRANCH  10  24
ATOM     21  C   UNL     1       2.357   2.974   6.153  0.00  0.00    -0.048 A 
ATOM     22  C   UNL     1       1.521   2.407   5.209  0.00  0.00    +0.005 A 
ATOM     23  C   UNL     1       2.056   1.761   4.111  0.00  0.00    +0.024 A 
ATOM     24  C   UNL     1       3.433   1.690   3.952  0.00  0.00    +0.046 A 
ATOM     25  C   UNL     1       4.269   2.265   4.899  0.00  0.00    +0.024 A 
ATOM     26  C   UNL     1       3.729   2.905   5.998  0.00  0.00    +0.005 A 
BRANCH  21  28
ATOM     27  C   UNL     1       1.551   5.152   7.023  0.00  0.00    +0.009 C 
ATOM     28  C   UNL     1       1.770   3.675   7.352  0.00  0.00    +0.032 C 
ENDBRANCH  21  28
ENDBRANCH  10  24
ENDBRANCH   1  14
BRANCH   3  29
ATOM     29  C   UNL     1       4.502   6.454   0.074  0.00  0.00    +0.163 C 
BRANCH  29  30
ATOM     30  C   UNL     1       4.047   6.948  -1.301  0.00  0.00    +0.250 C 
BRANCH  30  31
ATOM     31  O   UNL     1       3.215   8.099  -1.142  0.00  0.00    -0.490 OA
BRANCH  31  32
ATOM     32  C   UNL     1       2.723   8.666  -2.275  0.00  0.00    +0.124 A 
ATOM     33  C   UNL     1       3.034   8.125  -3.514  0.00  0.00    +0.046 A 
ATOM     34  C   UNL     1       2.533   8.703  -4.664  0.00  0.00    +0.004 A 
ATOM     35  C   UNL     1       1.721   9.819  -4.581  0.00  0.00    +0.001 A 
ATOM     36  C   UNL     1       1.409  10.360  -3.347  0.00  0.00    +0.007 A 
ATOM     37  C   UNL     1       1.904   9.782  -2.194  0.00  0.00    -0.002 A 
BRANCH  37  38
ATOM     38  C   UNL     1       1.559  10.369  -0.849  0.00  0.00    +0.065 C 
BRANCH  38  39
ATOM     39  C   UNL     1       2.650  11.316  -0.419  0.00  0.00    -0.030 C 
ATOM     40  C   UNL     1       2.356  12.553  -0.102  0.00  0.00    +0.004 C 
ENDBRANCH  38  39
ENDBRANCH  37  38
ENDBRANCH  31  32
ENDBRANCH  30  31
ENDBRANCH  29  30
ENDBRANCH   3  29
TORSDOF 9
