REMARK  Name = ZINC65595720
REMARK  1 active torsions:
REMARK  status: ('A' for Active; 'I' for Inactive)
REMARK    1  A    between atoms: C_1  and  C_2
REMARK                            x       y       z     vdW  Elec       q    Type
REMARK                         _______ _______ _______ _____ _____    ______ ____
ROOT
ATOM      1  C   UNL     1      -0.018   1.503   0.010  0.00  0.00    +0.088 C 
ATOM      2  C   UNL     1       0.002  -0.004   0.002  0.00  0.00    +0.130 A 
ATOM      3  N   UNL     1       0.005  -0.643  -1.154  0.00  0.00    -0.213 NA
ATOM      4  C   UNL     1       0.023  -1.963  -1.230  0.00  0.00    +0.166 A 
ATOM      5  C   UNL     1       0.038  -2.721  -0.029  0.00  0.00    +0.055 A 
ATOM      6  C   UNL     1       0.059  -4.184   0.130  0.00  0.00    -0.024 A 
ATOM      7  C   UNL     1       0.071  -4.658   1.386  0.00  0.00    -0.004 A 
ATOM      8  S   UNL     1       0.060  -3.216   2.426  0.00  0.00    -0.073 S 
ATOM      9  C   UNL     1       0.035  -1.972   1.164  0.00  0.00    +0.114 A 
ATOM     10  N   UNL     1       0.022  -0.655   1.150  0.00  0.00    -0.225 NA
ATOM     11  C   UNL     1       0.086  -6.163   1.425  0.00  0.00    +0.043 C 
ATOM     12  C   UNL     1      -0.354  -6.592   0.008  0.00  0.00    +0.010 C 
ATOM     13  C   UNL     1       0.073  -5.374  -0.834  0.00  0.00    +0.037 C 
ATOM     14  N   UNL     1       0.025  -2.600  -2.469  0.00  0.00    -0.219 N 
ATOM     15  C   UNL     1      -0.447  -2.086  -3.635  0.00  0.00    +0.118 A 
ATOM     16  C   UNL     1      -0.260  -3.017  -4.598  0.00  0.00    +0.075 A 
ATOM     17  C   UNL     1       0.344  -4.134  -4.008  0.00  0.00    +0.236 A 
ATOM     18  N   UNL     1       0.520  -3.884  -2.736  0.00  0.00    -0.140 NA
ATOM     19  N   UNL     1       0.724  -5.383  -4.706  0.00  0.00    +0.077 N 
ATOM     20  O   UNL     1       0.517  -5.500  -5.891  0.00  0.00    -0.125 OA
ATOM     21  O   UNL     1       1.242  -6.285  -4.090  0.00  0.00    -0.125 OA
ENDROOT
TORSDOF 0
