REMARK  Name = ZINC43218943
REMARK  9 active torsions:
REMARK  status: ('A' for Active; 'I' for Inactive)
REMARK    1  A    between atoms: C_1  and  C_2
REMARK    2  A    between atoms: C_2  and  C_3
REMARK    3  A    between atoms: C_6  and  N_9
REMARK    4  A    between atoms: C_14  and  C_31
REMARK    5  A    between atoms: C_17  and  C_22
REMARK    6  A    between atoms: C_17  and  C_28
REMARK    7  A    between atoms: C_34  and  N_37
REMARK    8  A    between atoms: N_37  and  C_38
REMARK    9  A    between atoms: N_37  and  C_39
REMARK                            x       y       z     vdW  Elec       q    Type
REMARK                         _______ _______ _______ _____ _____    ______ ____
ROOT
ATOM      1  N   UNL     1       2.500  -1.687  -4.909  0.00  0.00    -0.210 N 
ATOM      2  C   UNL     1       2.001  -1.995  -6.150  0.00  0.00    +0.229 C 
ATOM      3  O   UNL     1       0.919  -1.697  -6.608  0.00  0.00    -0.275 OA
ATOM      4  C   UNL     1       3.049  -2.752  -6.790  0.00  0.00    +0.078 C 
ATOM      5  C   UNL     1       3.506  -3.152  -8.132  0.00  0.00    -0.026 C 
ATOM      6  N   UNL     1       4.858  -3.743  -7.841  0.00  0.00    +0.398 N 
ATOM      7  C   UNL     1       5.339  -3.170  -6.548  0.00  0.00    +0.074 C 
ATOM      8  C   UNL     1       4.343  -2.047  -6.220  0.00  0.00    +0.090 C 
ATOM      9  C   UNL     1       3.843  -1.914  -4.808  0.00  0.00    +0.229 C 
ATOM     10  O   UNL     1       4.498  -1.994  -3.791  0.00  0.00    -0.275 OA
ATOM     11  H   UNL     1       4.782  -4.746  -7.762  0.00  0.00    -0.083 HD
ATOM     12  H   UNL     1       5.502  -3.506  -8.580  0.00  0.00    -0.083 HD
ENDROOT
BRANCH   1  16
ATOM     13  C   UNL     1       0.169  -0.203  -1.788  0.00  0.00    -0.048 A 
ATOM     14  C   UNL     1      -0.415  -0.493  -3.007  0.00  0.00    +0.005 A 
ATOM     15  C   UNL     1       0.355  -0.985  -4.043  0.00  0.00    +0.024 A 
ATOM     16  C   UNL     1       1.716  -1.188  -3.859  0.00  0.00    +0.044 A 
ATOM     17  C   UNL     1       2.299  -0.895  -2.634  0.00  0.00    +0.024 A 
ATOM     18  C   UNL     1       1.525  -0.399  -1.603  0.00  0.00    +0.005 A 
BRANCH  13  20
ATOM     19  C   UNL     1      -0.704   1.862  -0.727  0.00  0.00    +0.009 C 
ATOM     20  C   UNL     1      -0.674   0.333  -0.659  0.00  0.00    +0.032 C 
ENDBRANCH  13  20
ENDBRANCH   1  16
BRANCH   7  21
ATOM     21  C   UNL     1       5.340  -4.229  -5.476  0.00  0.00    -0.047 A 
ATOM     22  C   UNL     1       6.254  -4.163  -4.441  0.00  0.00    +0.003 A 
ATOM     23  C   UNL     1       6.256  -5.135  -3.458  0.00  0.00    +0.000 A 
ATOM     24  C   UNL     1       5.343  -6.172  -3.509  0.00  0.00    +0.000 A 
ATOM     25  C   UNL     1       4.429  -6.237  -4.543  0.00  0.00    +0.000 A 
ATOM     26  C   UNL     1       4.424  -5.263  -5.525  0.00  0.00    +0.003 A 
ENDBRANCH   7  21
BRANCH   5  27
ATOM     27  C   UNL     1       2.584  -4.183  -8.730  0.00  0.00    -0.060 A 
ATOM     28  C   UNL     1       2.804  -5.527  -8.489  0.00  0.00    +0.004 A 
ATOM     29  C   UNL     1       1.961  -6.475  -9.035  0.00  0.00    +0.023 A 
ATOM     30  C   UNL     1       0.892  -6.077  -9.828  0.00  0.00    +0.029 A 
ATOM     31  C   UNL     1       0.674  -4.726 -10.068  0.00  0.00    +0.023 A 
ATOM     32  C   UNL     1       1.518  -3.783  -9.514  0.00  0.00    +0.004 A 
BRANCH  30  33
ATOM     33  N   UNL     1       0.038  -7.032 -10.382  0.00  0.00    -0.336 N 
ATOM     34  C   UNL     1       0.196  -8.447 -10.033  0.00  0.00    +0.129 C 
ATOM     35  C   UNL     1      -1.016  -6.621 -11.313  0.00  0.00    +0.129 C 
ENDBRANCH  30  33
ENDBRANCH   5  27
BRANCH   7  36
ATOM     36  C   UNL     1       6.721  -2.593  -6.715  0.00  0.00    +0.350 C 
ATOM     37  O   UNL     1       7.286  -2.667  -7.793  0.00  0.00    -0.248 OA
ATOM     38  O   UNL     1       7.274  -2.053  -5.773  0.00  0.00    -0.248 OA
ENDBRANCH   7  36
TORSDOF 6
