REMARK  Name = ZINC20119459
REMARK  4 active torsions:
REMARK  status: ('A' for Active; 'I' for Inactive)
REMARK    1  A    between atoms: C_6  and  C_7
REMARK    2  A    between atoms: C_9  and  C_12
REMARK    3  A    between atoms: C_12  and  C_13
REMARK    4  A    between atoms: C_13  and  C_14
REMARK                            x       y       z     vdW  Elec       q    Type
REMARK                         _______ _______ _______ _____ _____    ______ ____
ROOT
ATOM      1  C   UNL     1      -1.405   2.733  -2.868  0.00  0.00    +0.202 A 
ATOM      2  N   UNL     1      -0.521   2.711  -1.844  0.00  0.00    -0.191 NA
ATOM      3  C   UNL     1      -0.742   1.585  -1.213  0.00  0.00    +0.228 A 
ATOM      4  O   UNL     1      -1.730   0.959  -1.858  0.00  0.00    -0.338 OA
ATOM      5  N   UNL     1      -2.103   1.629  -2.798  0.00  0.00    -0.056 NA
ENDROOT
BRANCH   1  11
ATOM      6  C   UNL     1      -0.738   4.936  -3.825  0.00  0.00    +0.015 A 
ATOM      7  C   UNL     1      -0.874   5.932  -4.770  0.00  0.00    +0.050 A 
ATOM      8  C   UNL     1      -1.829   5.820  -5.769  0.00  0.00    +0.166 A 
ATOM      9  C   UNL     1      -2.652   4.696  -5.825  0.00  0.00    +0.167 A 
ATOM     10  C   UNL     1      -2.515   3.692  -4.883  0.00  0.00    +0.061 A 
ATOM     11  C   UNL     1      -1.554   3.807  -3.880  0.00  0.00    +0.026 A 
ATOM     12  O   UNL     1      -3.497   4.826  -6.889  0.00  0.00    -0.453 OA
ATOM     13  C   UNL     1      -2.910   5.843  -7.723  0.00  0.00    +0.466 C 
ATOM     14  O   UNL     1      -2.160   6.653  -6.798  0.00  0.00    -0.453 OA
ENDBRANCH   1  11
BRANCH   3  15
ATOM     15  C   UNL     1      -0.013   1.086   0.008  0.00  0.00    +0.103 C 
BRANCH  15  16
ATOM     16  C   UNL     1      -0.729   1.579   1.267  0.00  0.00    +0.047 C 
BRANCH  16  17
ATOM     17  C   UNL     1       0.000   1.080   2.488  0.00  0.00    -0.010 A 
ATOM     18  C   UNL     1       1.005   1.718   3.132  0.00  0.00    +0.108 A 
ATOM     19  N   UNL     1       1.385   0.945   4.170  0.00  0.00    -0.284 N 
ATOM     20  H   UNL     1       2.196   1.276   4.835  0.00  0.00    +0.188 HD
ATOM     21  N   UNL     1       0.587  -0.207   4.164  0.00  0.00    -0.182 NA
ATOM     22  C   UNL     1      -0.246  -0.122   3.159  0.00  0.00    +0.137 A 
ENDBRANCH  16  17
ENDBRANCH  15  16
ENDBRANCH   3  15
TORSDOF 4
