REMARK  Name = ZINC20290979
REMARK  10 active torsions:
REMARK  status: ('A' for Active; 'I' for Inactive)
REMARK    1  A    between atoms: C_1  and  C_2
REMARK    2  A    between atoms: C_2  and  C_3
REMARK    3  A    between atoms: C_6  and  N_9
REMARK    4  A    between atoms: C_10  and  C_12
REMARK    5  A    between atoms: C_12  and  S_13
REMARK    6  A    between atoms: S_13  and  C_14
REMARK    7  A    between atoms: C_17  and  C_22
REMARK    8  A    between atoms: N_18  and  C_19
REMARK    9  A    between atoms: C_19  and  C_20
REMARK   10  A    between atoms: C_28  and  C_30
REMARK                            x       y       z     vdW  Elec       q    Type
REMARK                         _______ _______ _______ _____ _____    ______ ____
ROOT
ATOM      1  C   UNL     1       0.371   9.786  -2.867  0.00  0.00    +0.192 A 
ATOM      2  N   UNL     1      -0.178   8.749  -3.457  0.00  0.00    -0.122 NA
ATOM      3  N   UNL     1      -0.864   8.075  -2.605  0.00  0.00    -0.132 NA
ATOM      4  C   UNL     1      -0.795   8.636  -1.431  0.00  0.00    +0.155 A 
ATOM      5  N   UNL     1      -0.010   9.748  -1.557  0.00  0.00    -0.301 N 
ENDROOT
BRANCH   4   6
ATOM      6  C   UNL     1      -1.462   8.151  -0.169  0.00  0.00    +0.144 C 
ATOM      7  C   UNL     1      -2.981   8.414  -0.244  0.00  0.00    +0.032 C 
ATOM      8  C   UNL     1      -3.586   7.151   0.424  0.00  0.00    +0.021 C 
ATOM      9  C   UNL     1      -2.600   6.050  -0.049  0.00  0.00    +0.109 C 
ATOM     10  N   UNL     1      -1.277   6.699  -0.032  0.00  0.00    -0.287 N 
ATOM     11  C   UNL     1      -0.093   6.066   0.085  0.00  0.00    +0.247 C 
ATOM     12  O   UNL     1       0.933   6.710   0.188  0.00  0.00    -0.270 OA
BRANCH  11  13
ATOM     13  C   UNL     1      -0.042   4.589   0.088  0.00  0.00    +0.037 A 
ATOM     14  C   UNL     1       1.146   3.929   0.408  0.00  0.00    +0.014 A 
ATOM     15  C   UNL     1       1.188   2.551   0.409  0.00  0.00    +0.021 A 
ATOM     16  C   UNL     1       0.054   1.821   0.091  0.00  0.00    +0.041 A 
ATOM     17  C   UNL     1      -1.126   2.470  -0.232  0.00  0.00    +0.021 A 
ATOM     18  C   UNL     1      -1.181   3.848  -0.230  0.00  0.00    +0.014 A 
ATOM     19 CL   UNL     1       0.115   0.086   0.093  0.00  0.00    -0.084 Cl
ENDBRANCH  11  13
ENDBRANCH   4   6
BRANCH   1  20
ATOM     20  S   UNL     1       1.399  10.999  -3.625  0.00  0.00    -0.077 S 
BRANCH  20  21
ATOM     21  C   UNL     1       1.424  10.374  -5.323  0.00  0.00    +0.173 C 
BRANCH  21  23
ATOM     22  N   UNL     1       2.434  11.010  -7.490  0.00  0.00    -0.285 N 
ATOM     23  C   UNL     1       2.270  11.281  -6.180  0.00  0.00    +0.227 C 
ATOM     24  O   UNL     1       2.803  12.254  -5.691  0.00  0.00    -0.275 OA
ATOM     25  H   UNL     1       1.883  10.178  -7.953  0.00  0.00    +0.155 HD
BRANCH  22  29
ATOM     26  C   UNL     1       5.030  13.322  -9.786  0.00  0.00    -0.048 A 
ATOM     27  C   UNL     1       5.238  13.197  -8.425  0.00  0.00    +0.005 A 
ATOM     28  C   UNL     1       4.379  12.432  -7.661  0.00  0.00    +0.023 A 
ATOM     29  C   UNL     1       3.305  11.787  -8.261  0.00  0.00    +0.033 A 
ATOM     30  C   UNL     1       3.102  11.910  -9.630  0.00  0.00    +0.023 A 
ATOM     31  C   UNL     1       3.962  12.681 -10.387  0.00  0.00    +0.005 A 
BRANCH  26  33
ATOM     32  C   UNL     1       7.113  13.280 -11.131  0.00  0.00    +0.009 C 
ATOM     33  C   UNL     1       5.970  14.157 -10.617  0.00  0.00    +0.032 C 
ENDBRANCH  26  33
ENDBRANCH  22  29
ENDBRANCH  21  23
ENDBRANCH  20  21
ENDBRANCH   1  20
BRANCH   5  34
ATOM     34  C   UNL     1       0.350  10.701  -0.503  0.00  0.00    +0.152 C 
BRANCH  34  35
ATOM     35  C   UNL     1       1.623  10.251   0.167  0.00  0.00    -0.013 C 
ATOM     36  C   UNL     1       2.647  11.064   0.238  0.00  0.00    +0.005 C 
ENDBRANCH  34  35
ENDBRANCH   5  34
TORSDOF 9
