REMARK  Name = ZINC09442674
REMARK  7 active torsions:
REMARK  status: ('A' for Active; 'I' for Inactive)
REMARK    1  A    between atoms: N_10  and  S_11
REMARK    2  A    between atoms: S_11  and  C_14
REMARK    3  A    between atoms: C_17  and  C_20
REMARK    4  A    between atoms: N_22  and  C_23
REMARK    5  A    between atoms: C_23  and  C_24
REMARK    6  A    between atoms: C_24  and  C_26
REMARK    7  A    between atoms: C_24  and  N_66
REMARK                            x       y       z     vdW  Elec       q    Type
REMARK                         _______ _______ _______ _____ _____    ______ ____
ROOT
ATOM      1  C   UNL     1      -2.538   2.664  -5.566  0.00  0.00    +0.109 A 
ATOM      2  C   UNL     1      -1.324   2.009  -5.462  0.00  0.00    +0.029 A 
ATOM      3  C   UNL     1      -0.783   1.744  -4.221  0.00  0.00    +0.015 A 
ATOM      4  C   UNL     1      -1.464   2.138  -3.068  0.00  0.00    +0.037 A 
ATOM      5  C   UNL     1      -2.692   2.794  -3.180  0.00  0.00    +0.015 A 
ATOM      6  C   UNL     1      -3.218   3.057  -4.427  0.00  0.00    +0.029 A 
ENDROOT
BRANCH   4   7
ATOM      7  C   UNL     1      -0.891   1.858  -1.734  0.00  0.00    +0.244 C 
ATOM      8  O   UNL     1       0.176   1.282  -1.640  0.00  0.00    -0.270 OA
ATOM      9  N   UNL     1      -1.551   2.240  -0.623  0.00  0.00    -0.312 N 
ATOM     10  H   UNL     1      -2.402   2.699  -0.699  0.00  0.00    +0.149 HD
BRANCH   9  11
ATOM     11  C   UNL     1      -0.983   1.961   0.698  0.00  0.00    +0.097 C 
BRANCH  11  12
ATOM     12  C   UNL     1      -1.870   2.587   1.776  0.00  0.00    +0.016 C 
BRANCH  12  18
ATOM     13  C   UNL     1      -0.735   4.703   1.472  0.00  0.00    -0.078 C 
ATOM     14  C   UNL     1      -0.932   6.159   1.044  0.00  0.00    -0.019 C 
ATOM     15  C   UNL     1      -1.870   6.855   2.035  0.00  0.00    -0.004 C 
ATOM     16  C   UNL     1      -3.199   6.096   2.085  0.00  0.00    -0.019 C 
ATOM     17  C   UNL     1      -2.937   4.642   2.483  0.00  0.00    -0.078 C 
ATOM     18  N   UNL     1      -2.047   4.023   1.477  0.00  0.00    +0.387 N 
ATOM     19  H   UNL     1      -2.476   4.119   0.549  0.00  0.00    -0.081 HD
ENDBRANCH  12  18
BRANCH  12  20
ATOM     20  C   UNL     1      -3.220   1.916   1.768  0.00  0.00    +0.093 A 
ATOM     21  C   UNL     1      -3.625   0.954   2.617  0.00  0.00    +0.043 A 
ATOM     22  C   UNL     1      -4.948   0.616   2.251  0.00  0.00    +0.041 A 
ATOM     23  C   UNL     1      -5.272   1.391   1.200  0.00  0.00    +0.195 A 
ATOM     24  O   UNL     1      -4.223   2.180   0.915  0.00  0.00    -0.469 OA
ENDBRANCH  12  20
ENDBRANCH  11  12
ENDBRANCH   9  11
ENDBRANCH   4   7
BRANCH   1  25
ATOM     25  S   UNL     1      -3.221   2.999  -7.155  0.00  0.00    +0.075 S 
ATOM     26  O   UNL     1      -4.099   4.104  -6.995  0.00  0.00    -0.150 OA
ATOM     27  O   UNL     1      -2.133   3.016  -8.069  0.00  0.00    -0.150 OA
BRANCH  25  37
ATOM     28  C   UNL     1      -8.107   1.498  -6.240  0.00  0.00    +0.000 A 
ATOM     29  C   UNL     1      -7.234   2.417  -5.686  0.00  0.00    +0.002 A 
ATOM     30  C   UNL     1      -5.928   2.479  -6.129  0.00  0.00    +0.025 A 
ATOM     31  C   UNL     1      -5.490   1.619  -7.130  0.00  0.00    +0.054 A 
ATOM     32  C   UNL     1      -6.365   0.696  -7.682  0.00  0.00    -0.025 A 
ATOM     33  C   UNL     1      -7.674   0.641  -7.233  0.00  0.00    +0.005 A 
ATOM     34  C   UNL     1      -5.925  -0.255  -8.764  0.00  0.00    +0.038 C 
ATOM     35  C   UNL     1      -4.670   0.270  -9.461  0.00  0.00    +0.025 C 
ATOM     36  C   UNL     1      -3.623   0.620  -8.401  0.00  0.00    +0.132 C 
ATOM     37  N   UNL     1      -4.164   1.701  -7.567  0.00  0.00    -0.203 N 
ENDBRANCH  25  37
ENDBRANCH   1  25
TORSDOF 7
