REMARK  Name = ZINC08809774
REMARK  7 active torsions:
REMARK  status: ('A' for Active; 'I' for Inactive)
REMARK    1  A    between atoms: C_1  and  S_2
REMARK    2  A    between atoms: S_2  and  C_3
REMARK    3  A    between atoms: C_6  and  C_9
REMARK    4  A    between atoms: C_11  and  C_31
REMARK    5  A    between atoms: C_12  and  N_30
REMARK    6  A    between atoms: N_13  and  C_21
REMARK    7  A    between atoms: C_24  and  N_27
REMARK                            x       y       z     vdW  Elec       q    Type
REMARK                         _______ _______ _______ _____ _____    ______ ____
ROOT
ATOM      1  C   UNL     1      -0.911   5.005  -0.093  0.00  0.00    +0.097 C 
ATOM      2  C   UNL     1      -0.940   5.769   1.197  0.00  0.00    +0.077 C 
ATOM      3  C   UNL     1      -0.899   5.128   2.393  0.00  0.00    +0.107 C 
ATOM      4  N   UNL     1      -0.822   3.754   2.439  0.00  0.00    -0.260 N 
ATOM      5  C   UNL     1      -0.393   3.045   1.348  0.00  0.00    +0.024 C 
ATOM      6  C   UNL     1      -0.406   3.600   0.117  0.00  0.00    +0.025 C 
ATOM      7  C   UNL     1       0.047   2.885  -1.005  0.00  0.00    +0.162 C 
ATOM      8  O   UNL     1       0.012   3.410  -2.100  0.00  0.00    -0.292 OA
ATOM      9  C   UNL     1       0.576   1.482  -0.876  0.00  0.00    +0.080 C 
ATOM     10  C   UNL     1       1.173   1.302   0.524  0.00  0.00    +0.014 C 
ATOM     11  C   UNL     1       0.098   1.633   1.561  0.00  0.00    +0.052 C 
ENDROOT
BRANCH   1  15
ATOM     12  C   UNL     1      -4.861   4.844  -1.719  0.00  0.00    +0.008 A 
ATOM     13  C   UNL     1      -3.841   5.469  -2.427  0.00  0.00    +0.015 A 
ATOM     14  C   UNL     1      -2.567   5.519  -1.898  0.00  0.00    +0.005 A 
ATOM     15  C   UNL     1      -2.304   4.949  -0.666  0.00  0.00    -0.035 A 
ATOM     16  C   UNL     1      -3.315   4.321   0.039  0.00  0.00    +0.005 A 
ATOM     17  C   UNL     1      -4.593   4.272  -0.481  0.00  0.00    +0.015 A 
BRANCH  12  19
ATOM     18  C   UNL     1      -7.445   3.885  -1.132  0.00  0.00    +0.090 C 
ATOM     19  S   UNL     1      -6.489   4.778  -2.389  0.00  0.00    -0.129 S 
ENDBRANCH  12  19
ENDBRANCH   1  15
BRANCH   4  20
ATOM     20  C   UNL     1      -1.184   3.077   3.609  0.00  0.00    +0.040 A 
ATOM     21  C   UNL     1      -2.482   2.609   3.768  0.00  0.00    +0.026 A 
ATOM     22  C   UNL     1      -2.834   1.936   4.922  0.00  0.00    +0.034 A 
ATOM     23  C   UNL     1      -1.900   1.738   5.922  0.00  0.00    +0.126 A 
ATOM     24  C   UNL     1      -0.608   2.208   5.769  0.00  0.00    +0.034 A 
ATOM     25  C   UNL     1      -0.248   2.877   4.615  0.00  0.00    +0.026 A 
BRANCH  23  26
ATOM     26  N   UNL     1      -2.283   1.023   7.160  0.00  0.00    +0.056 N 
ATOM     27  O   UNL     1      -1.461   0.849   8.042  0.00  0.00    -0.126 OA
ATOM     28  O   UNL     1      -3.420   0.609   7.297  0.00  0.00    -0.126 OA
ENDBRANCH  23  26
ENDBRANCH   4  20
BRANCH   3  29
ATOM     29  N   UNL     1      -0.934   5.852   3.561  0.00  0.00    -0.345 N 
ATOM     30  H   UNL     1      -0.816   5.404   4.413  0.00  0.00    +0.144 HD
ATOM     31  H   UNL     1      -1.077   6.811   3.533  0.00  0.00    +0.144 HD
ENDBRANCH   3  29
BRANCH   2  32
ATOM     32  C   UNL     1      -1.014   7.199   1.167  0.00  0.00    +0.099 C 
ATOM     33  N   UNL     1      -1.072   8.333   1.143  0.00  0.00    -0.191 NA
ENDBRANCH   2  32
TORSDOF 6
