REMARK  Name = ZINC31047357
REMARK  10 active torsions:
REMARK  status: ('A' for Active; 'I' for Inactive)
REMARK    1  A    between atoms: C_1  and  C_2
REMARK    2  A    between atoms: C_2  and  C_3
REMARK    3  A    between atoms: C_3  and  C_5
REMARK    4  A    between atoms: C_3  and  N_13
REMARK    5  A    between atoms: C_8  and  C_12
REMARK    6  A    between atoms: C_9  and  C_11
REMARK    7  A    between atoms: C_14  and  C_16
REMARK    8  A    between atoms: N_21  and  C_23
REMARK    9  A    between atoms: C_23  and  C_24
REMARK   10  A    between atoms: C_26  and  C_29
REMARK                            x       y       z     vdW  Elec       q    Type
REMARK                         _______ _______ _______ _____ _____    ______ ____
ROOT
ATOM      1  C   UNL     1       2.468  -6.467   1.989  0.00  0.00    +0.058 C 
ATOM      2  C   UNL     1       1.717  -6.536   3.322  0.00  0.00    +0.009 C 
ATOM      3  C   UNL     1       2.652  -7.098   4.397  0.00  0.00    -0.018 C 
ATOM      4  C   UNL     1       3.154  -8.476   3.961  0.00  0.00    -0.078 C 
ATOM      5  N   UNL     1       3.866  -8.356   2.682  0.00  0.00    +0.386 N 
ATOM      6  C   UNL     1       2.976  -7.864   1.623  0.00  0.00    -0.065 C 
ATOM      7  H   UNL     1       4.671  -7.617   2.814  0.00  0.00    -0.081 HD
ENDROOT
BRANCH   1   9
ATOM      8  N   UNL     1       0.963  -4.758   1.025  0.00  0.00    -0.308 N 
ATOM      9  C   UNL     1       1.538  -5.971   0.913  0.00  0.00    +0.215 C 
ATOM     10  O   UNL     1       1.306  -6.665  -0.055  0.00  0.00    -0.276 OA
ATOM     11  H   UNL     1       1.173  -4.129   1.903  0.00  0.00    +0.149 HD
BRANCH   8  12
ATOM     12  C   UNL     1       0.059  -4.275  -0.021  0.00  0.00    +0.103 C 
BRANCH  12  13
ATOM     13  C   UNL     1       0.039  -2.768  -0.013  0.00  0.00    -0.027 A 
ATOM     14  C   UNL     1       0.041  -2.084   1.188  0.00  0.00    +0.006 A 
ATOM     15  C   UNL     1       0.023  -0.702   1.196  0.00  0.00    +0.004 A 
ATOM     16  C   UNL     1       0.002  -0.004   0.002  0.00  0.00    -0.048 A 
ATOM     17  C   UNL     1      -0.006  -0.689  -1.199  0.00  0.00    -0.047 A 
ATOM     18  C   UNL     1       0.018  -2.071  -1.206  0.00  0.00    +0.009 A 
ATOM     19  C   UNL     1      -0.035   0.072  -2.499  0.00  0.00    +0.044 C 
ATOM     20  C   UNL     1      -0.018   1.503   0.010  0.00  0.00    +0.044 C 
ENDBRANCH  12  13
BRANCH  12  22
ATOM     21  C   UNL     1      -1.357  -6.330   0.108  0.00  0.00    +0.006 C 
ATOM     22  C   UNL     1      -1.353  -4.806   0.240  0.00  0.00    +0.024 C 
ENDBRANCH  12  22
ENDBRANCH   8  12
ENDBRANCH   1   9
BRANCH   5  23
ATOM     23  C   UNL     1       4.482  -9.634   2.300  0.00  0.00    +0.022 C 
BRANCH  23  24
ATOM     24  C   UNL     1       3.402 -10.646   2.016  0.00  0.00    +0.211 A 
ATOM     25  N   UNL     1       2.833 -10.873   0.859  0.00  0.00    -0.193 NA
ATOM     26  C   UNL     1       1.934 -11.858   1.082  0.00  0.00    +0.202 A 
ATOM     27  N   UNL     1       2.009 -12.168   2.350  0.00  0.00    -0.056 NA
ATOM     28  O   UNL     1       2.850 -11.486   2.897  0.00  0.00    -0.340 OA
BRANCH  26  29
ATOM     29  C   UNL     1       1.030 -12.471   0.077  0.00  0.00    +0.023 A 
ATOM     30  C   UNL     1       1.056 -12.032  -1.245  0.00  0.00    +0.013 A 
ATOM     31  C   UNL     1       0.218 -12.610  -2.178  0.00  0.00    +0.021 A 
ATOM     32  C   UNL     1      -0.655 -13.615  -1.798  0.00  0.00    +0.041 A 
ATOM     33  C   UNL     1      -0.688 -14.050  -0.484  0.00  0.00    +0.021 A 
ATOM     34  C   UNL     1       0.150 -13.483   0.454  0.00  0.00    +0.013 A 
ATOM     35 CL   UNL     1      -1.712 -14.332  -2.974  0.00  0.00    -0.084 Cl
ENDBRANCH  26  29
ENDBRANCH  23  24
ENDBRANCH   5  23
TORSDOF 7
