REMARK  Name = ZINC01034289
REMARK  7 active torsions:
REMARK  status: ('A' for Active; 'I' for Inactive)
REMARK    1  A    between atoms: C_6  and  C_7
REMARK    2  A    between atoms: N_9  and  C_10
REMARK    3  A    between atoms: C_10  and  C_11
REMARK    4  A    between atoms: C_14  and  S_16
REMARK    5  A    between atoms: S_16  and  N_19
REMARK    6  A    between atoms: N_19  and  C_20
REMARK    7  A    between atoms: C_23  and  N_26
REMARK                            x       y       z     vdW  Elec       q    Type
REMARK                         _______ _______ _______ _____ _____    ______ ____
ROOT
ATOM      1  C   UNL     1       6.386  -1.839  -0.279  0.00  0.00    +0.009 A 
ATOM      2  C   UNL     1       5.966  -3.009   0.261  0.00  0.00    +0.015 A 
ATOM      3  C   UNL     1       4.662  -3.416   0.047  0.00  0.00    +0.037 A 
ATOM      4  C   UNL     1       3.843  -2.633  -0.697  0.00  0.00    +0.146 A 
ATOM      5  S   UNL     1       4.919  -1.275  -1.127  0.00  0.00    -0.072 S 
ENDROOT
BRANCH   4   6
ATOM      6  S   UNL     1       2.155  -2.892  -1.132  0.00  0.00    +0.079 S 
ATOM      7  O   UNL     1       1.897  -4.277  -0.950  0.00  0.00    -0.149 OA
ATOM      8  O   UNL     1       1.952  -2.236  -2.376  0.00  0.00    -0.149 OA
BRANCH   6   9
ATOM      9  N   UNL     1       1.233  -2.087  -0.017  0.00  0.00    -0.216 N 
ATOM     10  H   UNL     1       0.642  -2.583   0.572  0.00  0.00    +0.174 HD
BRANCH   9  11
ATOM     11  C   UNL     1       1.305  -0.692   0.077  0.00  0.00    +0.048 A 
ATOM     12  C   UNL     1       0.692   0.101  -0.884  0.00  0.00    +0.026 A 
ATOM     13  C   UNL     1       0.763   1.477  -0.792  0.00  0.00    +0.025 A 
ATOM     14  C   UNL     1       1.448   2.067   0.262  0.00  0.00    +0.030 A 
ATOM     15  C   UNL     1       2.062   1.274   1.222  0.00  0.00    +0.025 A 
ATOM     16  C   UNL     1       1.991  -0.102   1.130  0.00  0.00    +0.026 A 
BRANCH  14  17
ATOM     17  N   UNL     1       1.521   3.462   0.355  0.00  0.00    -0.330 N 
ATOM     18  C   UNL     1       2.085   4.043  -0.870  0.00  0.00    +0.105 C 
ATOM     19  C   UNL     1       2.015   5.570  -0.792  0.00  0.00    +0.019 C 
ATOM     20  C   UNL     1       2.801   6.050   0.432  0.00  0.00    +0.003 C 
ATOM     21  C   UNL     1       2.224   5.393   1.689  0.00  0.00    +0.019 C 
ATOM     22  C   UNL     1       2.289   3.871   1.538  0.00  0.00    +0.105 C 
ENDBRANCH  14  17
ENDBRANCH   9  11
ENDBRANCH   6   9
ENDBRANCH   4   6
BRANCH   1  23
ATOM     23  C   UNL     1       7.741  -1.186  -0.191  0.00  0.00    +0.147 C 
BRANCH  23  26
ATOM     24  C   UNL     1       9.839  -1.188  -1.431  0.00  0.00    +0.244 C 
ATOM     25  O   UNL     1      10.284  -0.398  -0.621  0.00  0.00    -0.270 OA
ATOM     26  N   UNL     1       8.577  -1.643  -1.304  0.00  0.00    -0.307 N 
ATOM     27  H   UNL     1       8.222  -2.273  -1.950  0.00  0.00    +0.149 HD
BRANCH  24  33
ATOM     28  C   UNL     1      10.175  -2.561  -3.482  0.00  0.00    +0.014 A 
ATOM     29  C   UNL     1      10.964  -2.983  -4.531  0.00  0.00    +0.021 A 
ATOM     30  C   UNL     1      12.262  -2.514  -4.658  0.00  0.00    +0.041 A 
ATOM     31  C   UNL     1      12.772  -1.615  -3.736  0.00  0.00    +0.021 A 
ATOM     32  C   UNL     1      11.990  -1.180  -2.687  0.00  0.00    +0.014 A 
ATOM     33  C   UNL     1      10.682  -1.650  -2.553  0.00  0.00    +0.037 A 
ATOM     34 CL   UNL     1      13.252  -3.056  -5.977  0.00  0.00    -0.084 Cl
ENDBRANCH  24  33
ENDBRANCH  23  26
ENDBRANCH   1  23
TORSDOF 7
