REMARK  Name = ZINC09287000
REMARK  4 active torsions:
REMARK  status: ('A' for Active; 'I' for Inactive)
REMARK    1  A    between atoms: C_6  and  N_7
REMARK    2  A    between atoms: C_16  and  C_18
REMARK    3  A    between atoms: C_18  and  S_19
REMARK    4  A    between atoms: S_19  and  C_20
REMARK                            x       y       z     vdW  Elec       q    Type
REMARK                         _______ _______ _______ _____ _____    ______ ____
ROOT
ATOM      1  N   UNL     1      -1.816   0.653   0.263  0.00  0.00    -0.328 N 
ATOM      2  C   UNL     1      -1.027   1.678   0.735  0.00  0.00    +0.180 C 
ATOM      3  N   UNL     1       0.080   1.396   1.509  0.00  0.00    -0.298 N 
ATOM      4  C   UNL     1       0.889   2.416   1.947  0.00  0.00    +0.211 A 
ATOM      5  N   UNL     1       1.977   2.124   2.710  0.00  0.00    -0.293 N 
ATOM      6  H   UNL     1       2.177   1.204   2.941  0.00  0.00    +0.172 HD
ATOM      7  C   UNL     1       2.780   3.121   3.140  0.00  0.00    +0.253 A 
ATOM      8  O   UNL     1       3.762   2.877   3.822  0.00  0.00    -0.268 OA
ATOM      9  C   UNL     1       2.459   4.445   2.792  0.00  0.00    +0.094 A 
ATOM     10  C   UNL     1       1.352   4.677   2.029  0.00  0.00    +0.060 A 
ATOM     11  N   UNL     1       0.595   3.659   1.625  0.00  0.00    -0.218 NA
ATOM     12  H   UNL     1      -2.642   0.853  -0.206  0.00  0.00    +0.169 HD
ATOM     13  H   UNL     1      -2.121   3.217  -0.026  0.00  0.00    +0.159 HD
ATOM     14  H   UNL     1       0.288   0.477   1.741  0.00  0.00    +0.172 HD
ATOM     15  N   UNL     1      -1.273   2.953   0.476  0.00  0.00    -0.371 N 
ATOM     16  H   UNL     1      -0.610   3.675   0.780  0.00  0.00    +0.159 HD
ENDROOT
BRANCH   1  22
ATOM     17  C   UNL     1      -0.079  -1.009   0.493  0.00  0.00    +0.027 A 
ATOM     18  C   UNL     1       0.302  -2.321   0.694  0.00  0.00    +0.022 A 
ATOM     19  C   UNL     1      -0.658  -3.306   0.848  0.00  0.00    +0.041 A 
ATOM     20  C   UNL     1      -2.002  -2.978   0.808  0.00  0.00    +0.022 A 
ATOM     21  C   UNL     1      -2.388  -1.667   0.614  0.00  0.00    +0.027 A 
ATOM     22  C   UNL     1      -1.427  -0.676   0.459  0.00  0.00    +0.042 A 
ATOM     23 CL   UNL     1      -0.175  -4.956   1.091  0.00  0.00    -0.084 Cl
ENDBRANCH   1  22
BRANCH  10  24
ATOM     24  C   UNL     1       0.986   6.086   1.642  0.00  0.00    +0.130 C 
BRANCH  24  25
ATOM     25  S   UNL     1       1.403   6.362  -0.102  0.00  0.00    -0.119 S 
BRANCH  25  26
ATOM     26  C   UNL     1       0.921   8.031  -0.397  0.00  0.00    +0.008 A 
ATOM     27  C   UNL     1       0.360   8.785   0.627  0.00  0.00    +0.016 A 
ATOM     28  C   UNL     1      -0.011  10.094   0.394  0.00  0.00    +0.021 A 
ATOM     29  C   UNL     1       0.165  10.653  -0.860  0.00  0.00    +0.041 A 
ATOM     30  C   UNL     1       0.719   9.903  -1.882  0.00  0.00    +0.021 A 
ATOM     31  C   UNL     1       1.097   8.595  -1.655  0.00  0.00    +0.016 A 
ATOM     32 CL   UNL     1      -0.308  12.297  -1.149  0.00  0.00    -0.084 Cl
ENDBRANCH  25  26
ENDBRANCH  24  25
ENDBRANCH  10  24
TORSDOF 4
