REMARK  Name = ZINC36524820
REMARK  14 active torsions:
REMARK  status: ('A' for Active; 'I' for Inactive)
REMARK    1  A    between atoms: C_1  and  C_2
REMARK    2  A    between atoms: C_2  and  C_3
REMARK    3  A    between atoms: C_3  and  C_4
REMARK    4  A    between atoms: C_4  and  N_5
REMARK    5  A    between atoms: C_6  and  C_8
REMARK    6  A    between atoms: C_8  and  C_10
REMARK    7  A    between atoms: C_8  and  N_18
REMARK    8  A    between atoms: C_14  and  O_16
REMARK    9  A    between atoms: O_16  and  C_17
REMARK   10  A    between atoms: N_18  and  C_19
REMARK   11  A    between atoms: C_20  and  C_22
REMARK   12  A    between atoms: C_22  and  C_23
REMARK   13  A    between atoms: C_23  and  C_24
REMARK   14  A    between atoms: C_24  and  C_25
REMARK                            x       y       z     vdW  Elec       q    Type
REMARK                         _______ _______ _______ _____ _____    ______ ____
ROOT
ATOM      1  N   UNL     1       2.296  -5.759  -3.908  0.00  0.00    -0.289 N 
ATOM      2  C   UNL     1       1.044  -6.510  -4.028  0.00  0.00    +0.133 C 
ATOM      3  C   UNL     1       3.458  -6.414  -3.710  0.00  0.00    +0.216 C 
ATOM      4  O   UNL     1       4.495  -5.793  -3.610  0.00  0.00    -0.276 OA
ENDROOT
BRANCH   1   5
ATOM      5  C   UNL     1       2.287  -4.297  -4.002  0.00  0.00    +0.192 C 
BRANCH   5   6
ATOM      6  C   UNL     1       1.816  -3.885  -5.373  0.00  0.00    -0.015 A 
ATOM      7  C   UNL     1       2.595  -3.045  -6.147  0.00  0.00    +0.006 A 
ATOM      8  C   UNL     1       2.166  -2.665  -7.405  0.00  0.00    +0.004 A 
ATOM      9  C   UNL     1       0.957  -3.124  -7.892  0.00  0.00    +0.045 A 
ATOM     10  C   UNL     1       0.174  -3.968  -7.117  0.00  0.00    +0.120 A 
ATOM     11  C   UNL     1       0.610  -4.352  -5.857  0.00  0.00    +0.051 A 
BRANCH  10  12
ATOM     12  O   UNL     1      -1.015  -4.421  -7.594  0.00  0.00    -0.495 OA
ATOM     13  C   UNL     1      -1.397  -3.989  -8.902  0.00  0.00    +0.277 C 
ENDBRANCH  10  12
ENDBRANCH   5   6
BRANCH   5  15
ATOM     14  N   UNL     1       1.185  -2.400  -2.859  0.00  0.00    -0.313 N 
ATOM     15  C   UNL     1       1.355  -3.733  -2.960  0.00  0.00    +0.238 C 
ATOM     16  O   UNL     1       0.758  -4.479  -2.213  0.00  0.00    -0.273 OA
ATOM     17  H   UNL     1       1.662  -1.804  -3.457  0.00  0.00    +0.149 HD
BRANCH  14  18
ATOM     18  C   UNL     1       0.279  -1.852  -1.847  0.00  0.00    +0.104 C 
BRANCH  18  19
ATOM     19  C   UNL     1       0.269  -0.325  -1.945  0.00  0.00    +0.018 C 
BRANCH  19  21
ATOM     20  C   UNL     1      -0.688   1.775  -0.986  0.00  0.00    +0.004 C 
ATOM     21  C   UNL     1      -0.678   0.248  -0.888  0.00  0.00    -0.002 C 
ENDBRANCH  19  21
ENDBRANCH  18  19
ENDBRANCH  14  18
ENDBRANCH   5  15
ENDBRANCH   1   5
BRANCH   3  22
ATOM     22  C   UNL     1       3.468  -7.918  -3.613  0.00  0.00    +0.096 C 
BRANCH  22  23
ATOM     23  C   UNL     1       4.902  -8.405  -3.390  0.00  0.00    +0.014 C 
BRANCH  23  24
ATOM     24  C   UNL     1       4.912  -9.931  -3.292  0.00  0.00    +0.036 C 
BRANCH  24  25
ATOM     25  C   UNL     1       6.324 -10.411  -3.072  0.00  0.00    -0.039 A 
ATOM     26  C   UNL     1       7.151 -10.826  -4.224  0.00  0.00    +0.012 A 
ATOM     27  C   UNL     1       8.380 -11.243  -4.033  0.00  0.00    -0.016 A 
ATOM     28  C   UNL     1       9.255 -11.671  -5.139  0.00  0.00    +0.008 A 
ATOM     29  C   UNL     1      10.478 -12.079  -4.873  0.00  0.00    +0.001 A 
ATOM     30  C   UNL     1      11.021 -12.130  -3.510  0.00  0.00    +0.008 A 
ATOM     31  C   UNL     1      10.312 -11.768  -2.465  0.00  0.00    -0.017 A 
ATOM     32  C   UNL     1       8.931 -11.296  -2.666  0.00  0.00    -0.002 A 
ATOM     33  C   UNL     1       8.200 -10.930  -1.649  0.00  0.00    -0.002 A 
ATOM     34  C   UNL     1       6.820 -10.455  -1.858  0.00  0.00    -0.014 A 
ATOM     35  C   UNL     1       6.049 -10.050  -0.669  0.00  0.00    +0.009 A 
ATOM     36  C   UNL     1       6.611 -10.121   0.518  0.00  0.00    +0.001 A 
ATOM     37  C   UNL     1       7.988 -10.589   0.721  0.00  0.00    +0.008 A 
ATOM     38  C   UNL     1       8.743 -10.980  -0.279  0.00  0.00    -0.017 A 
ATOM     39  C   UNL     1      10.123 -11.450  -0.071  0.00  0.00    +0.009 A 
ATOM     40  C   UNL     1      10.861 -11.822  -1.100  0.00  0.00    +0.009 A 
ENDBRANCH  24  25
ENDBRANCH  23  24
ENDBRANCH  22  23
ENDBRANCH   3  22
TORSDOF 11
