REMARK  Name = ZINC38659154
REMARK  9 active torsions:
REMARK  status: ('A' for Active; 'I' for Inactive)
REMARK    1  A    between atoms: C_1  and  C_2
REMARK    2  A    between atoms: C_5  and  C_8
REMARK    3  A    between atoms: C_9  and  C_10
REMARK    4  A    between atoms: C_10  and  O_12
REMARK    5  A    between atoms: O_12  and  C_13
REMARK    6  A    between atoms: C_20  and  N_32
REMARK    7  A    between atoms: C_21  and  C_30
REMARK    8  A    between atoms: C_22  and  C_24
REMARK    9  A    between atoms: C_27  and  C_29
REMARK                            x       y       z     vdW  Elec       q    Type
REMARK                         _______ _______ _______ _____ _____    ______ ____
ROOT
ATOM      1  C   UNL     1       0.091  -8.427   2.344  0.00  0.00    +0.135 A 
ATOM      2  C   UNL     1       0.137  -9.162   1.167  0.00  0.00    +0.047 A 
ATOM      3  C   UNL     1       0.121 -10.542   1.214  0.00  0.00    +0.012 A 
ATOM      4  C   UNL     1       0.058 -11.198   2.431  0.00  0.00    +0.011 A 
ATOM      5  C   UNL     1       0.011 -10.469   3.610  0.00  0.00    +0.138 A 
ATOM      6  C   UNL     1       0.034  -9.081   3.564  0.00  0.00    +0.093 A 
ATOM      7  O   UNL     1      -0.051 -11.094   4.811  0.00  0.00    -0.441 OA
ATOM      8  C   UNL     1       0.314 -12.383   4.917  0.00  0.00    +0.199 C 
ATOM      9  C   UNL     1       0.378 -13.200   3.839  0.00  0.00    +0.101 C 
ATOM     10  C   UNL     1       0.041 -12.703   2.461  0.00  0.00    +0.134 C 
ENDROOT
BRANCH  10  11
ATOM     11  C   UNL     1       1.052 -13.233   1.478  0.00  0.00    +0.118 A 
ATOM     12  C   UNL     1       0.784 -14.022   0.422  0.00  0.00    +0.046 A 
ATOM     13  C   UNL     1       2.017 -14.277  -0.222  0.00  0.00    +0.044 A 
ATOM     14  C   UNL     1       2.964 -13.629   0.479  0.00  0.00    +0.102 A 
ATOM     15  O   UNL     1       2.373 -12.994   1.504  0.00  0.00    -0.464 OA
ATOM     16  C   UNL     1       4.438 -13.614   0.164  0.00  0.00    +0.086 C 
ENDBRANCH  10  11
BRANCH   8  17
ATOM     17  N   UNL     1       0.631 -12.886   6.153  0.00  0.00    -0.328 N 
ATOM     18  H   UNL     1       0.591 -12.313   6.935  0.00  0.00    +0.145 HD
ATOM     19  H   UNL     1       0.896 -13.815   6.246  0.00  0.00    +0.145 HD
ENDBRANCH   8  17
BRANCH   9  20
ATOM     20  C   UNL     1       0.774 -14.564   4.015  0.00  0.00    +0.101 C 
ATOM     21  N   UNL     1       1.088 -15.647   4.155  0.00  0.00    -0.191 NA
ENDBRANCH   9  20
BRANCH   1  22
ATOM     22  O   UNL     1       0.106  -7.069   2.300  0.00  0.00    -0.423 OA
BRANCH  22  23
ATOM     23  C   UNL     1      -1.034  -6.433   1.962  0.00  0.00    +0.337 C 
ATOM     24  O   UNL     1      -2.010  -7.074   1.622  0.00  0.00    -0.245 OA
BRANCH  23  26
ATOM     25  C   UNL     1      -2.238  -4.337   1.667  0.00  0.00    +0.015 C 
ATOM     26  C   UNL     1      -1.097  -4.973   2.005  0.00  0.00    +0.092 C 
BRANCH  25  31
ATOM     27  C   UNL     1      -2.487   1.404   1.839  0.00  0.00    +0.044 C 
ATOM     28  C   UNL     1      -2.422  -0.101   1.793  0.00  0.00    -0.050 A 
ATOM     29  C   UNL     1      -3.534  -0.827   1.405  0.00  0.00    +0.004 A 
ATOM     30  C   UNL     1      -3.482  -2.204   1.361  0.00  0.00    +0.008 A 
ATOM     31  C   UNL     1      -2.302  -2.867   1.710  0.00  0.00    -0.025 A 
ATOM     32  C   UNL     1      -1.182  -2.126   2.102  0.00  0.00    +0.008 A 
ATOM     33  C   UNL     1      -1.248  -0.749   2.135  0.00  0.00    +0.004 A 
ENDBRANCH  25  31
ENDBRANCH  23  26
ENDBRANCH  22  23
ENDBRANCH   1  22
TORSDOF 7
