REMARK  Name = ZINC23549826
REMARK  5 active torsions:
REMARK  status: ('A' for Active; 'I' for Inactive)
REMARK    1  A    between atoms: C_6  and  N_7
REMARK    2  A    between atoms: N_11  and  N_12
REMARK    3  A    between atoms: C_13  and  C_15
REMARK    4  A    between atoms: C_15  and  O_16
REMARK    5  A    between atoms: O_16  and  C_17
REMARK                            x       y       z     vdW  Elec       q    Type
REMARK                         _______ _______ _______ _____ _____    ______ ____
ROOT
ATOM      1  C   UNL     1       0.056   1.396   0.684  0.00  0.00    +0.034 A 
ATOM      2  C   UNL     1       1.204   2.109   0.401  0.00  0.00    +0.026 A 
ATOM      3  C   UNL     1       2.405   1.441   0.185  0.00  0.00    +0.043 A 
ATOM      4  C   UNL     1       2.428   0.042   0.259  0.00  0.00    +0.030 A 
ATOM      5  C   UNL     1       1.267  -0.666   0.544  0.00  0.00    +0.044 A 
ATOM      6  C   UNL     1       0.084   0.014   0.756  0.00  0.00    +0.127 A 
ATOM      7  C   UNL     1       3.826  -0.367  -0.014  0.00  0.00    +0.153 C 
ATOM      8  N   UNL     1       4.308  -1.585  -0.048  0.00  0.00    -0.174 NA
ATOM      9  C   UNL     1       4.556   0.896  -0.240  0.00  0.00    +0.269 C 
ATOM     10  O   UNL     1       5.741   1.003  -0.497  0.00  0.00    -0.268 OA
ATOM     11  N   UNL     1       3.681   1.908  -0.112  0.00  0.00    -0.280 N 
ATOM     12  H   UNL     1       3.910   2.845  -0.213  0.00  0.00    +0.155 HD
ENDROOT
BRANCH   8  13
ATOM     13  N   UNL     1       3.446  -2.684   0.060  0.00  0.00    -0.203 N 
ATOM     14  C   UNL     1       3.950  -3.931   0.149  0.00  0.00    +0.270 C 
ATOM     15  O   UNL     1       5.150  -4.101   0.137  0.00  0.00    -0.270 OA
ATOM     16  H   UNL     1       2.485  -2.547   0.070  0.00  0.00    +0.177 HD
BRANCH  14  17
ATOM     17  C   UNL     1       3.022  -5.112   0.265  0.00  0.00    +0.326 C 
BRANCH  17  18
ATOM     18  O   UNL     1       3.790  -6.315   0.345  0.00  0.00    -0.482 OA
BRANCH  18  19
ATOM     19  C   UNL     1       3.100  -7.481   0.455  0.00  0.00    +0.135 A 
ATOM     20  C   UNL     1       1.713  -7.468   0.478  0.00  0.00    +0.048 A 
ATOM     21  C   UNL     1       1.014  -8.655   0.589  0.00  0.00    +0.023 A 
ATOM     22  C   UNL     1       1.696  -9.856   0.676  0.00  0.00    +0.042 A 
ATOM     23  C   UNL     1       3.079  -9.871   0.653  0.00  0.00    +0.039 A 
ATOM     24  C   UNL     1       3.782  -8.687   0.537  0.00  0.00    +0.061 A 
ATOM     25 BR   UNL     1       5.673  -8.709   0.498  0.00  0.00    -0.046 Br
ATOM     26 CL   UNL     1       0.815 -11.345   0.817  0.00  0.00    -0.084 Cl
ENDBRANCH  18  19
ENDBRANCH  17  18
ENDBRANCH  14  17
ENDBRANCH   8  13
BRANCH   6  27
ATOM     27  N   UNL     1      -1.155  -0.736   1.062  0.00  0.00    +0.056 N 
ATOM     28  O   UNL     1      -2.191  -0.141   1.248  0.00  0.00    -0.126 OA
ATOM     29  O   UNL     1      -1.131  -1.943   1.125  0.00  0.00    -0.126 OA
ENDBRANCH   6  27
TORSDOF 5
