REMARK  Name = ZINC39579937
REMARK  5 active torsions:
REMARK  status: ('A' for Active; 'I' for Inactive)
REMARK    1  A    between atoms: C_1  and  C_2
REMARK    2  A    between atoms: N_11  and  C_12
REMARK    3  A    between atoms: C_12  and  C_13
REMARK    4  A    between atoms: N_15  and  N_16
REMARK    5  A    between atoms: C_17  and  C_18
REMARK                            x       y       z     vdW  Elec       q    Type
REMARK                         _______ _______ _______ _____ _____    ______ ____
ROOT
ATOM      1  C   UNL     1      -0.536  -1.379   3.049  0.00  0.00    +0.250 C 
ATOM      2  O   UNL     1      -0.865  -2.264   2.288  0.00  0.00    -0.272 OA
ATOM      3  N   UNL     1      -0.990  -1.378   4.318  0.00  0.00    -0.206 N 
ATOM      4  H   UNL     1      -0.727  -0.670   4.927  0.00  0.00    +0.177 HD
ENDROOT
BRANCH   3   5
ATOM      5  N   UNL     1      -1.843  -2.399   4.758  0.00  0.00    -0.188 NA
ATOM      6  C   UNL     1      -2.285  -2.397   5.990  0.00  0.00    +0.136 C 
BRANCH   6   7
ATOM      7  C   UNL     1      -3.138  -3.419   6.430  0.00  0.00    +0.000 C 
ATOM      8  C   UNL     1      -3.697  -3.562   7.698  0.00  0.00    +0.004 A 
ATOM      9  C   UNL     1      -3.602  -2.788   8.876  0.00  0.00    +0.010 A 
ATOM     10  C   UNL     1      -4.271  -3.175   9.991  0.00  0.00    +0.001 A 
ATOM     11  C   UNL     1      -5.060  -4.330  10.009  0.00  0.00    +0.002 A 
ATOM     12  C   UNL     1      -5.197  -5.119   8.917  0.00  0.00    +0.026 A 
ATOM     13  C   UNL     1      -4.528  -4.779   7.711  0.00  0.00    +0.043 A 
ATOM     14  N   UNL     1      -4.498  -5.369   6.535  0.00  0.00    -0.380 N 
ATOM     15  C   UNL     1      -3.649  -4.594   5.625  0.00  0.00    +0.150 C 
ATOM     16  H   UNL     1      -4.968  -6.186   6.305  0.00  0.00    +0.160 HD
ENDBRANCH   6   7
ENDBRANCH   3   5
BRANCH   1  17
ATOM     17  C   UNL     1       0.382  -0.281   2.577  0.00  0.00    +0.204 C 
BRANCH  17  27
ATOM     18  C   UNL     1      -0.019   1.526   0.010  0.00  0.00    +0.049 C 
ATOM     19  C   UNL     1       0.002  -0.004   0.002  0.00  0.00    +0.156 C 
ATOM     20  N   UNL     1       0.738  -0.494  -1.170  0.00  0.00    -0.325 N 
ATOM     21  C   UNL     1       1.829  -1.237  -0.697  0.00  0.00    +0.050 A 
ATOM     22  C   UNL     1       2.829  -1.910  -1.388  0.00  0.00    +0.025 A 
ATOM     23  C   UNL     1       3.817  -2.584  -0.696  0.00  0.00    +0.002 A 
ATOM     24  C   UNL     1       3.814  -2.592   0.686  0.00  0.00    +0.002 A 
ATOM     25  C   UNL     1       2.824  -1.925   1.382  0.00  0.00    +0.025 A 
ATOM     26  C   UNL     1       1.826  -1.244   0.695  0.00  0.00    +0.053 A 
ATOM     27  N   UNL     1       0.731  -0.507   1.172  0.00  0.00    -0.301 N 
ATOM     28  H   UNL     1       0.511  -0.335  -2.099  0.00  0.00    +0.148 HD
ENDBRANCH  17  27
ENDBRANCH   1  17
TORSDOF 4
