REMARK  Name = ZINC33569012
REMARK  5 active torsions:
REMARK  status: ('A' for Active; 'I' for Inactive)
REMARK    1  A    between atoms: C_7  and  N_19
REMARK    2  A    between atoms: C_8  and  C_10
REMARK    3  A    between atoms: C_10  and  C_12
REMARK    4  A    between atoms: C_20  and  C_22
REMARK    5  A    between atoms: C_22  and  C_23
REMARK                            x       y       z     vdW  Elec       q    Type
REMARK                         _______ _______ _______ _____ _____    ______ ____
ROOT
ATOM      1  C   UNL     1      -0.493  -2.265   0.667  0.00  0.00    +0.001 A 
ATOM      2  C   UNL     1       0.852  -2.602   0.603  0.00  0.00    +0.004 A 
ATOM      3  C   UNL     1       1.808  -1.639   0.364  0.00  0.00    +0.047 A 
ATOM      4  C   UNL     1       1.428  -0.314   0.183  0.00  0.00    +0.138 A 
ATOM      5  C   UNL     1       0.064   0.021   0.249  0.00  0.00    +0.042 A 
ATOM      6  C   UNL     1      -0.890  -0.969   0.493  0.00  0.00    +0.013 A 
ATOM      7  C   UNL     1      -0.005   1.469   0.022  0.00  0.00    +0.091 A 
ATOM      8  C   UNL     1       1.300   1.882  -0.160  0.00  0.00    +0.197 A 
ATOM      9  O   UNL     1       2.124   0.815  -0.060  0.00  0.00    -0.450 OA
ENDROOT
BRANCH   7  10
ATOM     10  N   UNL     1      -1.147   2.259  -0.011  0.00  0.00    -0.282 N 
ATOM     11  C   UNL     1      -2.321   1.731  -0.410  0.00  0.00    +0.219 C 
ATOM     12  O   UNL     1      -2.363   0.592  -0.825  0.00  0.00    -0.275 OA
ATOM     13  H   UNL     1      -1.093   3.316   0.290  0.00  0.00    +0.155 HD
BRANCH  11  14
ATOM     14  C   UNL     1      -3.580   2.555  -0.340  0.00  0.00    +0.120 C 
BRANCH  14  15
ATOM     15  C   UNL     1      -4.761   1.726  -0.849  0.00  0.00    +0.150 C 
ATOM     16  C   UNL     1      -6.076   2.475  -0.683  0.00  0.00    +0.234 C 
ATOM     17  O   UNL     1      -6.503   2.801   0.404  0.00  0.00    -0.274 OA
ATOM     18  N   UNL     1      -6.719   2.746  -1.806  0.00  0.00    -0.246 N 
ATOM     19  C   UNL     1      -6.264   2.395  -3.022  0.00  0.00    +0.279 C 
ATOM     20  O   UNL     1      -6.781   2.598  -4.104  0.00  0.00    -0.263 OA
ATOM     21  S   UNL     1      -4.723   1.559  -2.678  0.00  0.00    -0.054 S 
ATOM     22  H   UNL     1      -7.678   3.285  -1.774  0.00  0.00    +0.158 HD
ENDBRANCH  14  15
ENDBRANCH  11  14
ENDBRANCH   7  10
BRANCH   8  23
ATOM     23  C   UNL     1       1.711   3.214  -0.411  0.00  0.00    +0.230 C 
ATOM     24  O   UNL     1       0.899   4.120  -0.369  0.00  0.00    -0.283 OA
BRANCH  23  25
ATOM     25  C   UNL     1       3.127   3.504  -0.725  0.00  0.00    +0.026 A 
ATOM     26  C   UNL     1       4.033   2.458  -0.907  0.00  0.00    +0.013 A 
ATOM     27  C   UNL     1       5.351   2.734  -1.204  0.00  0.00    +0.021 A 
ATOM     28  C   UNL     1       5.779   4.048  -1.312  0.00  0.00    +0.041 A 
ATOM     29  C   UNL     1       4.885   5.090  -1.127  0.00  0.00    +0.021 A 
ATOM     30  C   UNL     1       3.564   4.826  -0.834  0.00  0.00    +0.013 A 
ATOM     31 CL   UNL     1       7.441   4.388  -1.680  0.00  0.00    -0.084 Cl
ENDBRANCH  23  25
ENDBRANCH   8  23
TORSDOF 5
