REMARK  Name = ZINC43210577
REMARK  9 active torsions:
REMARK  status: ('A' for Active; 'I' for Inactive)
REMARK    1  A    between atoms: C_1  and  C_2
REMARK    2  A    between atoms: C_2  and  C_3
REMARK    3  A    between atoms: C_6  and  N_9
REMARK    4  A    between atoms: C_14  and  C_27
REMARK    5  A    between atoms: C_17  and  C_22
REMARK    6  A    between atoms: C_17  and  C_24
REMARK    7  A    between atoms: C_22  and  O_23
REMARK    8  A    between atoms: N_39  and  C_40
REMARK    9  A    between atoms: C_40  and  C_41
REMARK                            x       y       z     vdW  Elec       q    Type
REMARK                         _______ _______ _______ _____ _____    ______ ____
ROOT
ATOM      1  N   UNL     1       2.410  -1.757   4.731  0.00  0.00    -0.210 N 
ATOM      2  C   UNL     1       3.769  -1.927   4.642  0.00  0.00    +0.229 C 
ATOM      3  O   UNL     1       4.515  -1.501   3.785  0.00  0.00    -0.275 OA
ATOM      4  C   UNL     1       4.114  -2.725   5.795  0.00  0.00    +0.077 C 
ATOM      5  C   UNL     1       5.283  -3.085   6.609  0.00  0.00    -0.027 C 
ATOM      6  N   UNL     1       4.699  -3.592   7.894  0.00  0.00    +0.397 N 
ATOM      7  C   UNL     1       3.215  -3.390   7.825  0.00  0.00    +0.071 C 
ATOM      8  C   UNL     1       3.098  -2.179   6.876  0.00  0.00    +0.088 C 
ATOM      9  C   UNL     1       1.913  -2.110   5.953  0.00  0.00    +0.229 C 
ATOM     10  O   UNL     1       0.754  -2.325   6.237  0.00  0.00    -0.275 OA
ATOM     11  H   UNL     1       4.907  -4.573   8.002  0.00  0.00    -0.083 HD
ATOM     12  H   UNL     1       5.079  -3.073   8.672  0.00  0.00    -0.083 HD
ENDROOT
BRANCH   5  13
ATOM     13  C   UNL     1       6.144  -1.874   6.860  0.00  0.00    -0.060 A 
ATOM     14  C   UNL     1       5.795  -0.972   7.854  0.00  0.00    +0.004 A 
ATOM     15  C   UNL     1       6.572   0.140   8.095  0.00  0.00    +0.026 A 
ATOM     16  C   UNL     1       7.718   0.367   7.339  0.00  0.00    +0.050 A 
ATOM     17  C   UNL     1       8.070  -0.547   6.335  0.00  0.00    +0.008 A 
ATOM     18  C   UNL     1       7.279  -1.669   6.105  0.00  0.00    +0.012 A 
ATOM     19  C   UNL     1       9.312  -0.038   5.723  0.00  0.00    +0.008 A 
ATOM     20  C   UNL     1      10.132  -0.496   4.695  0.00  0.00    +0.010 A 
ATOM     21  C   UNL     1      11.255   0.221   4.343  0.00  0.00    +0.001 A 
ATOM     22  C   UNL     1      11.571   1.395   5.010  0.00  0.00    +0.002 A 
ATOM     23  C   UNL     1      10.769   1.859   6.030  0.00  0.00    +0.026 A 
ATOM     24  C   UNL     1       9.630   1.150   6.398  0.00  0.00    +0.050 A 
ATOM     25  N   UNL     1       8.664   1.376   7.363  0.00  0.00    -0.340 N 
BRANCH  25  26
ATOM     26  C   UNL     1       8.645   2.520   8.277  0.00  0.00    +0.119 C 
ATOM     27  C   UNL     1       9.416   2.168   9.551  0.00  0.00    +0.027 C 
ENDBRANCH  25  26
ENDBRANCH   5  13
BRANCH   1  31
ATOM     28  C   UNL     1       0.055  -0.308   1.612  0.00  0.00    -0.048 A 
ATOM     29  C   UNL     1       1.419  -0.453   1.437  0.00  0.00    +0.005 A 
ATOM     30  C   UNL     1       2.202  -0.933   2.468  0.00  0.00    +0.024 A 
ATOM     31  C   UNL     1       1.618  -1.269   3.682  0.00  0.00    +0.044 A 
ATOM     32  C   UNL     1       0.248  -1.122   3.855  0.00  0.00    +0.024 A 
ATOM     33  C   UNL     1      -0.528  -0.637   2.821  0.00  0.00    +0.005 A 
BRANCH  28  35
ATOM     34  C   UNL     1      -0.874   1.742   0.570  0.00  0.00    +0.009 C 
ATOM     35  C   UNL     1      -0.796   0.216   0.484  0.00  0.00    +0.032 C 
ENDBRANCH  28  35
ENDBRANCH   1  31
BRANCH   7  36
ATOM     36  C   UNL     1       2.658  -3.050   9.184  0.00  0.00    +0.348 C 
ATOM     37  O   UNL     1       3.399  -3.000  10.151  0.00  0.00    -0.248 OA
ATOM     38  O   UNL     1       1.467  -2.825   9.316  0.00  0.00    -0.248 OA
ENDBRANCH   7  36
BRANCH   7  39
ATOM     39  C   UNL     1       2.526  -4.629   7.250  0.00  0.00    +0.155 C 
BRANCH  39  40
ATOM     40  O   UNL     1       2.778  -5.751   8.098  0.00  0.00    -0.396 OA
ATOM     41  H   UNL     1       2.370  -6.574   7.794  0.00  0.00    +0.209 HD
ENDBRANCH  39  40
ENDBRANCH   7  39
TORSDOF 7
