REMARK  Name = ZINC06550862
REMARK  8 active torsions:
REMARK  status: ('A' for Active; 'I' for Inactive)
REMARK    1  A    between atoms: C_3  and  C_6
REMARK    2  A    between atoms: N_8  and  C_9
REMARK    3  A    between atoms: C_9  and  C_10
REMARK    4  A    between atoms: N_12  and  C_13
REMARK    5  A    between atoms: N_12  and  C_22
REMARK    6  A    between atoms: C_22  and  C_24
REMARK    7  A    between atoms: C_22  and  C_29
REMARK    8  A    between atoms: N_31  and  C_32
REMARK                            x       y       z     vdW  Elec       q    Type
REMARK                         _______ _______ _______ _____ _____    ______ ____
ROOT
ATOM      1  C   UNL     1       7.168  -1.733  -0.994  0.00  0.00    +0.238 C 
ATOM      2  O   UNL     1       6.018  -2.105  -0.896  0.00  0.00    -0.274 OA
ATOM      3  N   UNL     1       8.155  -2.431  -0.396  0.00  0.00    -0.253 N 
ENDROOT
BRANCH   3   4
ATOM      4  C   UNL     1       9.473  -1.960  -0.443  0.00  0.00    +0.041 A 
ATOM      5  C   UNL     1       9.722  -0.595  -0.500  0.00  0.00    +0.027 A 
ATOM      6  C   UNL     1      11.022  -0.130  -0.546  0.00  0.00    +0.051 A 
ATOM      7  C   UNL     1      12.081  -1.023  -0.537  0.00  0.00    +0.166 A 
ATOM      8  C   UNL     1      11.835  -2.393  -0.481  0.00  0.00    +0.168 A 
ATOM      9  C   UNL     1      10.532  -2.858  -0.428  0.00  0.00    +0.073 A 
ATOM     10  O   UNL     1      13.031  -3.051  -0.484  0.00  0.00    -0.453 OA
ATOM     11  C   UNL     1      13.996  -2.093  -0.956  0.00  0.00    +0.466 C 
ATOM     12  O   UNL     1      13.432  -0.824  -0.576  0.00  0.00    -0.453 OA
ENDBRANCH   3   4
BRANCH   1  13
ATOM     13  C   UNL     1       7.495  -0.493  -1.784  0.00  0.00    +0.201 C 
BRANCH  13  16
ATOM     14  C   UNL     1       6.664   0.672  -3.757  0.00  0.00    +0.280 C 
ATOM     15  O   UNL     1       7.531   1.510  -3.591  0.00  0.00    -0.267 OA
ATOM     16  N   UNL     1       6.562  -0.369  -2.907  0.00  0.00    -0.300 N 
ATOM     17  H   UNL     1       5.871  -1.037  -3.039  0.00  0.00    +0.150 HD
BRANCH  14  20
ATOM     18  C   UNL     1       4.668   1.515  -6.694  0.00  0.00    +0.042 A 
ATOM     19  C   UNL     1       5.722   1.795  -5.811  0.00  0.00    +0.054 A 
ATOM     20  C   UNL     1       5.730   0.795  -4.881  0.00  0.00    +0.189 A 
ATOM     21  O   UNL     1       4.729  -0.059  -5.177  0.00  0.00    -0.458 OA
ATOM     22  C   UNL     1       4.086   0.372  -6.270  0.00  0.00    +0.196 A 
ENDBRANCH  14  20
ENDBRANCH  13  16
ENDBRANCH   1  13
BRANCH   3  23
ATOM     23  C   UNL     1       7.848  -3.680   0.304  0.00  0.00    +0.204 C 
BRANCH  23  24
ATOM     24  C   UNL     1       8.389  -3.615   1.709  0.00  0.00    +0.019 A 
ATOM     25  C   UNL     1       8.276  -4.522   2.710  0.00  0.00    +0.013 A 
ATOM     26  C   UNL     1       8.861  -4.248   3.932  0.00  0.00    +0.008 A 
ATOM     27  C   UNL     1       9.530  -3.080   4.094  0.00  0.00    +0.045 A 
ATOM     28  S   UNL     1       9.350  -2.327   2.485  0.00  0.00    -0.099 S 
ENDBRANCH  23  24
BRANCH  23  29
ATOM     29  C   UNL     1       8.485  -4.835  -0.426  0.00  0.00    +0.239 C 
ATOM     30  O   UNL     1       9.131  -4.633  -1.432  0.00  0.00    -0.273 OA
ATOM     31  N   UNL     1       8.335  -6.091   0.039  0.00  0.00    -0.311 N 
ATOM     32  H   UNL     1       7.818  -6.252   0.844  0.00  0.00    +0.149 HD
BRANCH  31  33
ATOM     33  C   UNL     1       8.955  -7.213  -0.671  0.00  0.00    +0.073 C 
ATOM     34  C   UNL     1       8.001  -7.737  -1.764  0.00  0.00    +0.022 C 
ATOM     35  C   UNL     1       8.210  -9.272  -1.747  0.00  0.00    +0.002 C 
ATOM     36  C   UNL     1       8.380  -9.576  -0.238  0.00  0.00    +0.002 C 
ATOM     37  C   UNL     1       9.195  -8.382   0.300  0.00  0.00    +0.022 C 
ENDBRANCH  31  33
ENDBRANCH  23  29
ENDBRANCH   3  23
TORSDOF 8
