REMARK  Name = ZINC12691559
REMARK  6 active torsions:
REMARK  status: ('A' for Active; 'I' for Inactive)
REMARK    1  A    between atoms: C_1  and  N_2
REMARK    2  A    between atoms: C_11  and  C_13
REMARK    3  A    between atoms: C_13  and  O_15
REMARK    4  A    between atoms: O_15  and  C_16
REMARK    5  A    between atoms: C_16  and  C_17
REMARK    6  A    between atoms: C_23  and  C_28
REMARK                            x       y       z     vdW  Elec       q    Type
REMARK                         _______ _______ _______ _____ _____    ______ ____
ROOT
ATOM      1  C   UNL     1       1.136   3.271   0.008  0.00  0.00    +0.149 A 
ATOM      2  N   UNL     1       1.136   1.914   0.002  0.00  0.00    -0.308 N 
ATOM      3  H   UNL     1       1.981   1.438  -0.009  0.00  0.00    +0.170 HD
ATOM      4  C   UNL     1      -0.015   1.215   0.009  0.00  0.00    +0.260 A 
ATOM      5  O   UNL     1       0.002  -0.004   0.002  0.00  0.00    -0.267 OA
ATOM      6  C   UNL     1      -1.258   1.925   0.018  0.00  0.00    +0.080 A 
ATOM      7  C   UNL     1      -2.619   1.402   0.034  0.00  0.00    +0.004 A 
ATOM      8  C   UNL     1      -3.653   2.277   0.048  0.00  0.00    +0.056 A 
ATOM      9  S   UNL     1      -2.847   3.867   0.048  0.00  0.00    -0.076 S 
ATOM     10  C   UNL     1      -1.158   3.325   0.030  0.00  0.00    +0.116 A 
ATOM     11  N   UNL     1       0.018   3.947   0.022  0.00  0.00    -0.223 NA
ENDROOT
BRANCH   7  12
ATOM     12  C   UNL     1      -2.866  -0.060   0.029  0.00  0.00    -0.017 A 
ATOM     13  C   UNL     1      -2.232  -0.874  -0.909  0.00  0.00    +0.008 A 
ATOM     14  C   UNL     1      -2.462  -2.234  -0.905  0.00  0.00    +0.001 A 
ATOM     15  C   UNL     1      -3.329  -2.789   0.019  0.00  0.00    +0.000 A 
ATOM     16  C   UNL     1      -3.966  -1.986   0.948  0.00  0.00    +0.001 A 
ATOM     17  C   UNL     1      -3.739  -0.625   0.958  0.00  0.00    +0.008 A 
ENDBRANCH   7  12
BRANCH   1  18
ATOM     18  C   UNL     1       2.449   4.012  -0.000  0.00  0.00    +0.306 C 
BRANCH  18  19
ATOM     19  O   UNL     1       2.198   5.442   0.009  0.00  0.00    -0.452 OA
BRANCH  19  20
ATOM     20  C   UNL     1       3.275   6.252   0.003  0.00  0.00    +0.360 C 
ATOM     21  O   UNL     1       4.393   5.776  -0.009  0.00  0.00    -0.243 OA
BRANCH  20  32
ATOM     22  C   UNL     1       0.256   9.934   0.050  0.00  0.00    +0.176 C 
ATOM     23  N   UNL     1       1.654   9.495   0.035  0.00  0.00    -0.231 N 
ATOM     24  C   UNL     1       2.619  10.437   0.031  0.00  0.00    +0.275 A 
ATOM     25  O   UNL     1       2.334  11.620   0.039  0.00  0.00    -0.266 OA
ATOM     26  C   UNL     1       4.023  10.002   0.015  0.00  0.00    +0.050 A 
ATOM     27  C   UNL     1       5.090  10.894   0.011  0.00  0.00    +0.014 A 
ATOM     28  C   UNL     1       6.379  10.405  -0.003  0.00  0.00    +0.001 A 
ATOM     29  C   UNL     1       6.619   9.037  -0.013  0.00  0.00    +0.001 A 
ATOM     30  C   UNL     1       5.575   8.137  -0.008  0.00  0.00    +0.011 A 
ATOM     31  C   UNL     1       4.267   8.609   0.012  0.00  0.00    +0.021 A 
ATOM     32  C   UNL     1       3.097   7.716   0.012  0.00  0.00    +0.176 A 
ATOM     33  N   UNL     1       1.894   8.238   0.026  0.00  0.00    -0.161 NA
ENDBRANCH  20  32
ENDBRANCH  19  20
ENDBRANCH  18  19
ENDBRANCH   1  18
TORSDOF 5
