REMARK  Name = ZINC60928584
REMARK  10 active torsions:
REMARK  status: ('A' for Active; 'I' for Inactive)
REMARK    1  A    between atoms: C_1  and  C_2
REMARK    2  A    between atoms: C_3  and  C_25
REMARK    3  A    between atoms: C_4  and  C_24
REMARK    4  A    between atoms: C_5  and  S_10
REMARK    5  A    between atoms: C_6  and  C_9
REMARK    6  A    between atoms: C_7  and  C_8
REMARK    7  A    between atoms: S_10  and  C_13
REMARK    8  A    between atoms: C_13  and  C_14
REMARK    9  A    between atoms: N_20  and  C_21
REMARK   10  A    between atoms: N_20  and  C_22
REMARK                            x       y       z     vdW  Elec       q    Type
REMARK                         _______ _______ _______ _____ _____    ______ ____
ROOT
ATOM      1  S   UNL     1       1.123  -4.321  -0.247  0.00  0.00    +0.004 S 
ATOM      2  O   UNL     1       1.912  -4.317  -1.430  0.00  0.00    -0.169 OA
ATOM      3  O   UNL     1       1.714  -4.592   1.016  0.00  0.00    -0.169 OA
ENDROOT
BRANCH   1   8
ATOM      4  C   UNL     1      -0.993   1.310   0.216  0.00  0.00    +0.044 C 
ATOM      5  C   UNL     1      -0.464  -0.097   0.100  0.00  0.00    -0.044 A 
ATOM      6  C   UNL     1      -0.109  -0.602  -1.136  0.00  0.00    -0.043 A 
ATOM      7  C   UNL     1       0.376  -1.892  -1.242  0.00  0.00    -0.022 A 
ATOM      8  C   UNL     1       0.506  -2.677  -0.112  0.00  0.00    +0.095 A 
ATOM      9  C   UNL     1       0.152  -2.171   1.125  0.00  0.00    -0.022 A 
ATOM     10  C   UNL     1      -0.329  -0.879   1.232  0.00  0.00    -0.043 A 
ATOM     11  C   UNL     1      -0.711  -0.327   2.581  0.00  0.00    +0.044 C 
ATOM     12  C   UNL     1       0.293  -3.027   2.357  0.00  0.00    +0.046 C 
ATOM     13  C   UNL     1       0.763  -2.443  -2.591  0.00  0.00    +0.046 C 
ATOM     14  C   UNL     1      -0.251   0.254  -2.369  0.00  0.00    +0.044 C 
ENDBRANCH   1   8
BRANCH   1  15
ATOM     15  C   UNL     1      -0.349  -5.354  -0.483  0.00  0.00    +0.248 C 
BRANCH  15  16
ATOM     16  C   UNL     1       0.064  -6.797  -0.612  0.00  0.00    +0.157 A 
ATOM     17  N   UNL     1       0.342  -7.299  -1.803  0.00  0.00    -0.198 NA
ATOM     18  C   UNL     1       0.709  -8.573  -1.921  0.00  0.00    +0.217 A 
ATOM     19  N   UNL     1       0.795  -9.341  -0.840  0.00  0.00    -0.181 NA
ATOM     20  C   UNL     1       0.514  -8.833   0.355  0.00  0.00    +0.222 A 
ATOM     21  N   UNL     1       0.154  -7.556   0.466  0.00  0.00    -0.198 NA
ATOM     22  N   UNL     1       0.602  -9.626   1.481  0.00  0.00    -0.306 N 
ATOM     23  C   UNL     1       1.004 -11.030   1.359  0.00  0.00    +0.132 C 
ATOM     24  C   UNL     1       0.293  -9.065   2.799  0.00  0.00    +0.132 C 
ATOM     25  N   UNL     1       0.998  -9.096  -3.164  0.00  0.00    -0.327 N 
ATOM     26  H   UNL     1       0.935  -8.536  -3.953  0.00  0.00    +0.145 HD
ATOM     27  H   UNL     1       1.265 -10.025  -3.250  0.00  0.00    +0.145 HD
ENDBRANCH  15  16
ENDBRANCH   1  15
TORSDOF 3
