REMARK  Name = ZINC36002202
REMARK  6 active torsions:
REMARK  status: ('A' for Active; 'I' for Inactive)
REMARK    1  A    between atoms: C_4  and  N_7
REMARK    2  A    between atoms: C_12  and  N_22
REMARK    3  A    between atoms: C_14  and  C_16
REMARK    4  A    between atoms: N_22  and  C_23
REMARK    5  A    between atoms: C_26  and  N_29
REMARK    6  A    between atoms: C_30  and  C_32
REMARK                            x       y       z     vdW  Elec       q    Type
REMARK                         _______ _______ _______ _____ _____    ______ ____
ROOT
ATOM      1  N   UNL     1       3.623  -0.651  -0.037  0.00  0.00    -0.214 N 
ATOM      2  C   UNL     1       3.885  -1.839   0.585  0.00  0.00    +0.168 A 
ATOM      3  C   UNL     1       5.230  -2.150   0.304  0.00  0.00    +0.079 A 
ATOM      4  C   UNL     1       5.737  -1.105  -0.499  0.00  0.00    +0.148 A 
ATOM      5  N   UNL     1       4.786  -0.236  -0.697  0.00  0.00    -0.172 NA
ATOM      6  C   UNL     1       5.764  -3.340   0.832  0.00  0.00    +0.133 A 
ATOM      7  N   UNL     1       4.975  -4.113   1.570  0.00  0.00    -0.216 NA
ATOM      8  C   UNL     1       3.719  -3.780   1.807  0.00  0.00    +0.137 A 
ATOM      9  N   UNL     1       3.175  -2.679   1.335  0.00  0.00    -0.212 NA
ENDROOT
BRANCH   1  13
ATOM     10  C   UNL     1      -0.017   1.379   0.010  0.00  0.00    +0.000 A 
ATOM     11  C   UNL     1       1.170   2.089   0.002  0.00  0.00    +0.002 A 
ATOM     12  C   UNL     1       2.377   1.419  -0.013  0.00  0.00    +0.028 A 
ATOM     13  C   UNL     1       2.400   0.031  -0.021  0.00  0.00    +0.068 A 
ATOM     14  C   UNL     1       1.206  -0.680  -0.013  0.00  0.00    +0.028 A 
ATOM     15  C   UNL     1       0.002  -0.004   0.002  0.00  0.00    +0.002 A 
ENDBRANCH   1  13
BRANCH   8  16
ATOM     16  C   UNL     1       2.873  -4.699   2.651  0.00  0.00    +0.057 C 
ATOM     17  C   UNL     1       1.670  -5.178   1.836  0.00  0.00    +0.011 C 
ATOM     18  C   UNL     1       0.812  -6.111   2.693  0.00  0.00    +0.001 C 
ATOM     19  C   UNL     1       0.322  -5.358   3.932  0.00  0.00    +0.000 C 
ATOM     20  C   UNL     1       1.526  -4.880   4.747  0.00  0.00    +0.001 C 
ATOM     21  C   UNL     1       2.384  -3.947   3.890  0.00  0.00    +0.011 C 
ENDBRANCH   8  16
BRANCH   6  22
ATOM     22  N   UNL     1       7.076  -3.696   0.589  0.00  0.00    -0.326 N 
ATOM     23  H   UNL     1       7.642  -3.123   0.049  0.00  0.00    +0.148 HD
BRANCH  22  24
ATOM     24  C   UNL     1       7.614  -4.939   1.148  0.00  0.00    +0.072 C 
ATOM     25  C   UNL     1       8.100  -4.688   2.577  0.00  0.00    +0.024 C 
ATOM     26  C   UNL     1       9.196  -3.620   2.562  0.00  0.00    +0.024 C 
ATOM     27  C   UNL     1      10.366  -4.102   1.702  0.00  0.00    +0.073 C 
ATOM     28  C   UNL     1       9.880  -4.354   0.273  0.00  0.00    +0.024 C 
ATOM     29  C   UNL     1       8.784  -5.421   0.288  0.00  0.00    +0.024 C 
BRANCH  27  30
ATOM     30  N   UNL     1      11.415  -3.079   1.687  0.00  0.00    -0.312 N 
ATOM     31  C   UNL     1      12.695  -3.430   1.451  0.00  0.00    +0.216 C 
ATOM     32  O   UNL     1      12.978  -4.592   1.250  0.00  0.00    -0.276 OA
ATOM     33  H   UNL     1      11.189  -2.150   1.848  0.00  0.00    +0.149 HD
BRANCH  31  34
ATOM     34  C   UNL     1      13.774  -2.378   1.436  0.00  0.00    +0.075 C 
ATOM     35  C   UNL     1      13.888  -1.632   0.097  0.00  0.00    +0.013 C 
ATOM     36  C   UNL     1      15.413  -1.695   0.281  0.00  0.00    +0.001 C 
ATOM     37  C   UNL     1      15.177  -2.940   1.153  0.00  0.00    +0.013 C 
ENDBRANCH  31  34
ENDBRANCH  27  30
ENDBRANCH  22  24
ENDBRANCH   6  22
TORSDOF 6
