REMARK  Name = ZINC12318331
REMARK  4 active torsions:
REMARK  status: ('A' for Active; 'I' for Inactive)
REMARK    1  A    between atoms: N_7  and  C1*_11
REMARK    2  A    between atoms: C3*_14  and  O3*_21
REMARK    3  A    between atoms: C4*_16  and  C5*_19
REMARK    4  A    between atoms: C5*_19  and  O5*_20
REMARK                            x       y       z     vdW  Elec       q    Type
REMARK                         _______ _______ _______ _____ _____    ______ ____
ROOT
ATOM      1  C   UNL     1       3.990  -0.759   0.858  0.00  0.00    +0.225 A 
ATOM      2  N   UNL     1       5.025   0.053   0.739  0.00  0.00    -0.219 NA
ATOM      3  C   UNL     1       4.866   1.323   0.383  0.00  0.00    +0.147 A 
ATOM      4  C   UNL     1       3.563   1.794   0.145  0.00  0.00    +0.148 A 
ATOM      5  C   UNL     1       2.496   0.892   0.288  0.00  0.00    +0.168 A 
ATOM      6  N   UNL     1       2.754  -0.363   0.641  0.00  0.00    -0.216 NA
ATOM      7  N   UNL     1       1.358   1.603  -0.002  0.00  0.00    -0.276 N 
ATOM      8  C   UNL     1       1.737   2.879  -0.296  0.00  0.00    +0.182 A 
ATOM      9  N   UNL     1       3.032   2.989  -0.209  0.00  0.00    -0.216 NA
ATOM     10 BR   UNL     1       0.557   4.282  -0.762  0.00  0.00    -0.008 Br
ATOM     11  N   UNL     1       5.957   2.168   0.264  0.00  0.00    -0.341 N 
ATOM     12  H   UNL     1       6.002   2.523  -0.670  0.00  0.00    +0.144 HD
ATOM     13  H   UNL     1       6.851   1.831   0.430  0.00  0.00    +0.144 HD
ENDROOT
BRANCH   7  14
ATOM     14  C1* UNL     1      -0.013   1.086   0.008  0.00  0.00    +0.226 C 
ATOM     15  C2* UNL     1      -0.754   1.593   1.260  0.00  0.00    +0.088 C 
ATOM     16  C3* UNL     1      -1.975   2.358   0.694  0.00  0.00    +0.150 C 
ATOM     17  C4* UNL     1      -2.102   1.760  -0.730  0.00  0.00    +0.175 C 
ATOM     18  O4* UNL     1      -0.727   1.571  -1.141  0.00  0.00    -0.348 OA
BRANCH  16  19
ATOM     19  O3* UNL     1      -1.715   3.762   0.636  0.00  0.00    -0.389 OA
ATOM     20  H3* UNL     1      -1.540   4.165   1.497  0.00  0.00    +0.210 HD
ENDBRANCH  16  19
BRANCH  17  21
ATOM     21  C5* UNL     1      -2.813   2.740  -1.665  0.00  0.00    +0.190 C 
BRANCH  21  22
ATOM     22  O5* UNL     1      -3.020   2.121  -2.937  0.00  0.00    -0.392 OA
ATOM     23  H5* UNL     1      -3.467   2.686  -3.581  0.00  0.00    +0.210 HD
ENDBRANCH  21  22
ENDBRANCH  17  21
ENDBRANCH   7  14
TORSDOF 4
