REMARK  Name = ZINC12391565
REMARK  4 active torsions:
REMARK  status: ('A' for Active; 'I' for Inactive)
REMARK    1  A    between atoms: C_1  and  O_2
REMARK    2  A    between atoms: O_2  and  C_3
REMARK    3  A    between atoms: C_8  and  C_9
REMARK    4  A    between atoms: C_14  and  C_19
REMARK                            x       y       z     vdW  Elec       q    Type
REMARK                         _______ _______ _______ _____ _____    ______ ____
ROOT
ATOM      1  C   UNL     1       0.002  -0.004   0.002  0.00  0.00    +0.141 C 
ATOM      2  C   UNL     1       0.588  -0.765  -1.171  0.00  0.00    +0.037 C 
ATOM      3  C   UNL     1       1.405  -0.352  -2.148  0.00  0.00    +0.019 C 
ATOM      4  C   UNL     1       1.916  -1.323  -3.202  0.00  0.00    +0.060 C 
ATOM      5  C   UNL     1       0.835  -2.354  -3.522  0.00  0.00    +0.039 C 
ATOM      6  C   UNL     1       0.530  -3.109  -2.223  0.00  0.00    +0.088 C 
ATOM      7  C   UNL     1       0.153  -2.121  -1.167  0.00  0.00    +0.163 C 
ATOM      8  O   UNL     1      -0.562  -2.494  -0.258  0.00  0.00    -0.292 OA
ATOM      9  N   UNL     1       1.850   0.926  -2.321  0.00  0.00    -0.297 N 
ATOM     10  C   UNL     1       2.291   1.716  -1.268  0.00  0.00    +0.208 A 
ATOM     11  C   UNL     1       1.394   2.011  -0.159  0.00  0.00    +0.205 A 
ATOM     12  N   UNL     1       1.991   2.828   0.651  0.00  0.00    -0.032 NA
ATOM     13  O   UNL     1       3.301   3.047   0.144  0.00  0.00    -0.239 OA
ATOM     14  N   UNL     1       3.425   2.301  -1.060  0.00  0.00    -0.032 NA
ATOM     15  N   UNL     1       0.126   1.441  -0.071  0.00  0.00    -0.312 N 
ATOM     16  H   UNL     1       1.857   1.299  -3.217  0.00  0.00    +0.153 HD
ATOM     17  H   UNL     1      -0.665   2.002  -0.062  0.00  0.00    +0.149 HD
ENDROOT
BRANCH   1  23
ATOM     18  C   UNL     1       0.057  -0.324   2.488  0.00  0.00    +0.125 A 
ATOM     19  C   UNL     1       0.687  -0.759   3.645  0.00  0.00    +0.046 A 
ATOM     20  C   UNL     1       1.938  -1.342   3.572  0.00  0.00    +0.004 A 
ATOM     21  C   UNL     1       2.561  -1.492   2.346  0.00  0.00    +0.001 A 
ATOM     22  C   UNL     1       1.932  -1.064   1.192  0.00  0.00    +0.009 A 
ATOM     23  C   UNL     1       0.684  -0.475   1.260  0.00  0.00    +0.019 A 
BRANCH  18  25
ATOM     24  C   UNL     1      -1.759   0.373   3.856  0.00  0.00    +0.277 C 
ATOM     25  O   UNL     1      -1.173   0.249   2.558  0.00  0.00    -0.495 OA
ENDBRANCH  18  25
ENDBRANCH   1  23
BRANCH   5  26
ATOM     26  C   UNL     1       1.335  -3.316  -4.569  0.00  0.00    -0.006 A 
ATOM     27  C   UNL     1       0.807  -3.606  -5.783  0.00  0.00    +0.011 A 
ATOM     28  C   UNL     1       1.446  -4.530  -6.589  0.00  0.00    +0.008 A 
ATOM     29  C   UNL     1       2.576  -5.126  -6.136  0.00  0.00    +0.045 A 
ATOM     30  S   UNL     1       2.772  -4.375  -4.529  0.00  0.00    -0.101 S 
ENDBRANCH   5  26
TORSDOF 3
