REMARK  Name = ZINC16579724
REMARK  3 active torsions:
REMARK  status: ('A' for Active; 'I' for Inactive)
REMARK    1  A    between atoms: N_11  and  S_12
REMARK    2  A    between atoms: S_12  and  C_15
REMARK    3  A    between atoms: C_15  and  C_16
REMARK                            x       y       z     vdW  Elec       q    Type
REMARK                         _______ _______ _______ _____ _____    ______ ____
ROOT
ATOM      1  C   UNL     1      -0.901  -2.604  -4.457  0.00  0.00    +0.002 A 
ATOM      2  C   UNL     1      -1.162  -2.393  -3.115  0.00  0.00    +0.002 A 
ATOM      3  C   UNL     1      -0.877  -1.169  -2.535  0.00  0.00    +0.026 A 
ATOM      4  C   UNL     1      -0.331  -0.157  -3.304  0.00  0.00    +0.073 A 
ATOM      5  C   UNL     1      -0.071  -0.366  -4.659  0.00  0.00    +0.056 A 
ATOM      6  C   UNL     1      -0.356  -1.595  -5.230  0.00  0.00    +0.025 A 
ATOM      7  N   UNL     1       0.471   0.672  -5.427  0.00  0.00    -0.283 N 
ATOM      8  C   UNL     1       1.004   1.758  -4.836  0.00  0.00    +0.236 C 
ATOM      9  O   UNL     1       1.428   2.665  -5.520  0.00  0.00    -0.274 OA
ATOM     10  C   UNL     1       1.077   1.862  -3.337  0.00  0.00    +0.227 C 
ATOM     11  N   UNL     1      -0.028   1.093  -2.745  0.00  0.00    -0.196 N 
ATOM     12  H   UNL     1       0.462   0.608  -6.395  0.00  0.00    +0.155 HD
ENDROOT
BRANCH  11  13
ATOM     13  S   UNL     1      -0.890   1.687  -1.462  0.00  0.00    +0.050 S 
ATOM     14  O   UNL     1      -2.163   1.063  -1.561  0.00  0.00    -0.155 OA
ATOM     15  O   UNL     1      -0.765   3.099  -1.563  0.00  0.00    -0.155 OA
BRANCH  13  16
ATOM     16  C   UNL     1      -0.013   1.086   0.008  0.00  0.00    +0.224 C 
BRANCH  16  17
ATOM     17  C   UNL     1      -0.718   1.572   1.248  0.00  0.00    -0.023 A 
ATOM     18  C   UNL     1      -0.359   2.779   1.818  0.00  0.00    +0.007 A 
ATOM     19  C   UNL     1      -1.010   3.229   2.952  0.00  0.00    +0.022 A 
ATOM     20  C   UNL     1      -2.012   2.465   3.523  0.00  0.00    +0.059 A 
ATOM     21  C   UNL     1      -2.367   1.254   2.955  0.00  0.00    +0.060 A 
ATOM     22  C   UNL     1      -1.719   0.808   1.817  0.00  0.00    +0.026 A 
ATOM     23 CL   UNL     1      -3.625   0.295   3.671  0.00  0.00    -0.082 Cl
ATOM     24 CL   UNL     1      -2.824   3.026   4.952  0.00  0.00    -0.082 Cl
ENDBRANCH  16  17
ENDBRANCH  13  16
ENDBRANCH  11  13
TORSDOF 3
