REMARK  Name = ZINC30672919
REMARK  11 active torsions:
REMARK  status: ('A' for Active; 'I' for Inactive)
REMARK    1  A    between atoms: C_1  and  C_2
REMARK    2  A    between atoms: C_4  and  C_27
REMARK    3  A    between atoms: C_6  and  C_26
REMARK    4  A    between atoms: C_7  and  C_8
REMARK    5  A    between atoms: C_8  and  C_9
REMARK    6  A    between atoms: C_9  and  N_10
REMARK    7  A    between atoms: C_11  and  C_13
REMARK    8  A    between atoms: C_17  and  C_22
REMARK    9  A    between atoms: C_27  and  C_28
REMARK   10  A    between atoms: C_27  and  C_29
REMARK   11  A    between atoms: C_27  and  C_30
REMARK                            x       y       z     vdW  Elec       q    Type
REMARK                         _______ _______ _______ _____ _____    ______ ____
ROOT
ATOM      1  N   UNL     1      -0.016   1.344   0.009  0.00  0.00    -0.314 N 
ATOM      2  C   UNL     1       0.002  -0.004   0.002  0.00  0.00    +0.225 C 
ATOM      3  O   UNL     1       1.060  -0.596  -0.011  0.00  0.00    -0.275 OA
ATOM      4  H   UNL     1      -0.976   1.881   0.021  0.00  0.00    +0.149 HD
ENDROOT
BRANCH   2   5
ATOM      5  C   UNL     1      -1.293  -0.775   0.010  0.00  0.00    +0.161 C 
ATOM      6  C   UNL     1      -0.991  -2.276  -0.005  0.00  0.00    +0.024 C 
ATOM      7  C   UNL     1      -0.421  -2.670   1.363  0.00  0.00    +0.032 C 
ATOM      8  C   UNL     1      -1.523  -2.524   2.413  0.00  0.00    +0.177 C 
ATOM      9  N   UNL     1      -2.149  -1.211   2.317  0.00  0.00    -0.303 N 
ATOM     10  C   UNL     1      -2.074  -0.425   1.244  0.00  0.00    +0.225 C 
ATOM     11  O   UNL     1      -2.670   0.631   1.266  0.00  0.00    -0.275 OA
ATOM     12  H   UNL     1      -2.726  -0.814   3.165  0.00  0.00    +0.149 HD
BRANCH   8  13
ATOM     13  C   UNL     1      -0.919  -2.696   3.808  0.00  0.00    +0.408 C 
ATOM     14  F   UNL     1       0.058  -1.717   4.016  0.00  0.00    -0.169 F 
ATOM     15  F   UNL     1      -1.925  -2.563   4.771  0.00  0.00    -0.169 F 
ATOM     16  F   UNL     1      -0.338  -3.964   3.912  0.00  0.00    -0.169 F 
ENDBRANCH   8  13
ENDBRANCH   2   5
BRANCH   1  17
ATOM     17  C   UNL     1       1.242   2.093   0.001  0.00  0.00    +0.109 C 
BRANCH  17  18
ATOM     18  C   UNL     1       0.943   3.594   0.012  0.00  0.00    +0.054 C 
BRANCH  18  25
ATOM     19  C   UNL     1       2.201   4.330   2.507  0.00  0.00    +0.044 C 
ATOM     20  C   UNL     1       2.840   4.717   1.198  0.00  0.00    -0.047 A 
ATOM     21  C   UNL     1       4.030   5.420   1.190  0.00  0.00    +0.007 A 
ATOM     22  C   UNL     1       4.612   5.780  -0.011  0.00  0.00    -0.041 A 
ATOM     23  C   UNL     1       4.007   5.433  -1.204  0.00  0.00    +0.007 A 
ATOM     24  C   UNL     1       2.820   4.725  -1.197  0.00  0.00    -0.047 A 
ATOM     25  C   UNL     1       2.237   4.365   0.004  0.00  0.00    -0.040 A 
ATOM     26  C   UNL     1       2.160   4.346  -2.498  0.00  0.00    +0.044 C 
BRANCH  22  27
ATOM     27  C   UNL     1       5.907   6.552  -0.019  0.00  0.00    -0.013 C 
ATOM     28  C   UNL     1       5.698   7.890  -0.732  0.00  0.00    +0.015 C 
ATOM     29  C   UNL     1       6.358   6.805   1.421  0.00  0.00    +0.015 C 
ATOM     30  C   UNL     1       6.977   5.744  -0.755  0.00  0.00    +0.015 C 
ENDBRANCH  22  27
ENDBRANCH  18  25
ENDBRANCH  17  18
ENDBRANCH   1  17
TORSDOF 6
