REMARK  Name = ZINC20206036
REMARK  9 active torsions:
REMARK  status: ('A' for Active; 'I' for Inactive)
REMARK    1  A    between atoms: C_1  and  C_2
REMARK    2  A    between atoms: C_6  and  O_8
REMARK    3  A    between atoms: O_8  and  C_9
REMARK    4  A    between atoms: C_9  and  C_10
REMARK    5  A    between atoms: C_10  and  C_11
REMARK    6  A    between atoms: C_11  and  N_12
REMARK    7  A    between atoms: C_14  and  C_21
REMARK    8  A    between atoms: C_32  and  S_33
REMARK    9  A    between atoms: S_33  and  C_36
REMARK                            x       y       z     vdW  Elec       q    Type
REMARK                         _______ _______ _______ _____ _____    ______ ____
ROOT
ATOM      1  N   UNL     1       0.104  -6.303   4.981  0.00  0.00    -0.346 N 
ATOM      2  C   UNL     1       1.130  -6.745   5.734  0.00  0.00    +0.094 A 
ATOM      3  C   UNL     1       0.641  -7.483   6.795  0.00  0.00    +0.001 A 
ATOM      4  C   UNL     1      -0.829  -7.478   6.657  0.00  0.00    +0.007 A 
ATOM      5  C   UNL     1      -1.103  -6.719   5.508  0.00  0.00    +0.050 A 
ATOM      6  C   UNL     1      -2.424  -6.529   5.117  0.00  0.00    +0.026 A 
ATOM      7  C   UNL     1      -3.447  -7.079   5.859  0.00  0.00    +0.002 A 
ATOM      8  C   UNL     1      -3.174  -7.824   6.996  0.00  0.00    +0.001 A 
ATOM      9  C   UNL     1      -1.870  -8.032   7.393  0.00  0.00    +0.010 A 
ENDROOT
BRANCH   3  10
ATOM     10  C   UNL     1       1.396  -8.116   7.809  0.00  0.00    +0.026 C 
ATOM     11  C   UNL     1       2.592  -8.735   7.496  0.00  0.00    +0.078 C 
ATOM     12  C   UNL     1       3.506  -9.257   8.549  0.00  0.00    +0.117 C 
ATOM     13  N   UNL     1       3.088  -9.743   9.688  0.00  0.00    -0.386 N 
ATOM     14  N   UNL     1       4.868  -9.174   8.194  0.00  0.00    -0.203 N 
ATOM     15  C   UNL     1       5.194  -9.119   6.855  0.00  0.00    +0.183 C 
ATOM     16  N   UNL     1       4.355  -9.033   5.848  0.00  0.00    -0.152 NA
ATOM     17  C   UNL     1       3.033  -8.921   6.094  0.00  0.00    +0.273 C 
ATOM     18  O   UNL     1       2.219  -8.967   5.185  0.00  0.00    -0.268 OA
ATOM     19  S   UNL     1       6.860  -9.166   6.866  0.00  0.00    +0.049 S 
ATOM     20  N   UNL     1       7.122  -9.146   8.522  0.00  0.00    -0.174 NA
ATOM     21  C   UNL     1       5.930  -9.152   9.033  0.00  0.00    +0.257 C 
ATOM     22  H   UNL     1       2.149  -9.688   9.924  0.00  0.00    +0.157 HD
ATOM     23  H   UNL     1       3.718 -10.159  10.298  0.00  0.00    +0.157 HD
BRANCH  21  24
ATOM     24  S   UNL     1       5.698  -9.129  10.780  0.00  0.00    +0.026 S 
ATOM     25  O   UNL     1       6.914  -8.610  11.300  0.00  0.00    -0.167 OA
ATOM     26  O   UNL     1       4.473  -8.436  10.974  0.00  0.00    -0.167 OA
ATOM     27  C   UNL     1       5.511 -10.871  11.248  0.00  0.00    +0.203 C 
ENDBRANCH  21  24
ENDBRANCH   3  10
BRANCH   1  28
ATOM     28  C   UNL     1       0.248  -5.488   3.773  0.00  0.00    +0.125 C 
BRANCH  28  29
ATOM     29  C   UNL     1       0.110  -4.008   4.136  0.00  0.00    +0.062 C 
BRANCH  29  30
ATOM     30  C   UNL     1       0.261  -3.157   2.874  0.00  0.00    +0.231 C 
BRANCH  30  31
ATOM     31  O   UNL     1       0.132  -1.774   3.214  0.00  0.00    -0.492 OA
BRANCH  31  37
ATOM     32  C   UNL     1       0.113   2.867   1.705  0.00  0.00    +0.044 C 
ATOM     33  C   UNL     1       0.238   1.392   1.425  0.00  0.00    -0.047 A 
ATOM     34  C   UNL     1       0.465   0.950   0.134  0.00  0.00    +0.003 A 
ATOM     35  C   UNL     1       0.580  -0.403  -0.126  0.00  0.00    +0.004 A 
ATOM     36  C   UNL     1       0.469  -1.317   0.904  0.00  0.00    +0.045 A 
ATOM     37  C   UNL     1       0.242  -0.877   2.200  0.00  0.00    +0.121 A 
ATOM     38  C   UNL     1       0.132   0.482   2.459  0.00  0.00    +0.049 A 
ENDBRANCH  31  37
ENDBRANCH  30  31
ENDBRANCH  29  30
ENDBRANCH  28  29
ENDBRANCH   1  28
TORSDOF 7
