REMARK  Name = ZINC35144997
REMARK  7 active torsions:
REMARK  status: ('A' for Active; 'I' for Inactive)
REMARK    1  A    between atoms: N_9  and  C_24
REMARK    2  A    between atoms: C_10  and  S_12
REMARK    3  A    between atoms: S_12  and  C_13
REMARK    4  A    between atoms: C_13  and  C_14
REMARK    5  A    between atoms: N_16  and  C_17
REMARK    6  A    between atoms: C_17  and  C_18
REMARK    7  A    between atoms: C_18  and  N_19
REMARK                            x       y       z     vdW  Elec       q    Type
REMARK                         _______ _______ _______ _____ _____    ______ ____
ROOT
ATOM      1  C   UNL     1      -0.017   1.363   0.009  0.00  0.00    +0.001 A 
ATOM      2  C   UNL     1       1.168   2.089   0.002  0.00  0.00    +0.002 A 
ATOM      3  C   UNL     1       2.379   1.458  -0.013  0.00  0.00    +0.028 A 
ATOM      4  C   UNL     1       2.432   0.061  -0.021  0.00  0.00    +0.079 A 
ATOM      5  C   UNL     1       1.225  -0.674  -0.013  0.00  0.00    +0.065 A 
ATOM      6  C   UNL     1       0.002  -0.004   0.002  0.00  0.00    +0.015 A 
ATOM      7  C   UNL     1       1.305  -2.141  -0.022  0.00  0.00    +0.267 A 
ATOM      8  O   UNL     1       0.300  -2.829  -0.016  0.00  0.00    -0.267 OA
ATOM      9  N   UNL     1       2.538  -2.699  -0.037  0.00  0.00    -0.254 N 
ATOM     10  C   UNL     1       3.655  -1.911  -0.044  0.00  0.00    +0.177 A 
ATOM     11  N   UNL     1       3.606  -0.602  -0.036  0.00  0.00    -0.223 NA
ENDROOT
BRANCH   9  12
ATOM     12  C   UNL     1       2.670  -4.095  -0.045  0.00  0.00    +0.070 A 
ATOM     13  C   UNL     1       2.729  -4.780  -1.251  0.00  0.00    +0.029 A 
ATOM     14  C   UNL     1       2.860  -6.155  -1.257  0.00  0.00    +0.022 A 
ATOM     15  C   UNL     1       2.932  -6.850  -0.062  0.00  0.00    +0.042 A 
ATOM     16  C   UNL     1       2.873  -6.170   1.141  0.00  0.00    +0.042 A 
ATOM     17  C   UNL     1       2.748  -4.793   1.153  0.00  0.00    +0.066 A 
ATOM     18 CL   UNL     1       2.682  -3.939   2.663  0.00  0.00    -0.081 Cl
ATOM     19 CL   UNL     1       3.095  -8.578  -0.073  0.00  0.00    -0.083 Cl
ENDBRANCH   9  12
BRANCH  10  20
ATOM     20  S   UNL     1       5.235  -2.692  -0.063  0.00  0.00    -0.078 S 
BRANCH  20  21
ATOM     21  C   UNL     1       6.408  -1.309  -0.068  0.00  0.00    +0.173 C 
BRANCH  21  22
ATOM     22  C   UNL     1       7.816  -1.845  -0.084  0.00  0.00    +0.223 C 
ATOM     23  O   UNL     1       8.009  -3.042  -0.092  0.00  0.00    -0.275 OA
ATOM     24  N   UNL     1       8.862  -0.994  -0.090  0.00  0.00    -0.316 N 
ATOM     25  H   UNL     1       8.707  -0.036  -0.084  0.00  0.00    +0.149 HD
BRANCH  24  26
ATOM     26  C   UNL     1      10.231  -1.515  -0.106  0.00  0.00    +0.085 C 
BRANCH  26  27
ATOM     27  C   UNL     1      11.220  -0.348  -0.110  0.00  0.00    -0.060 C 
BRANCH  27  28
ATOM     28  N   UNL     1      12.593  -0.871  -0.126  0.00  0.00    +0.381 N 
ATOM     29  C   UNL     1      12.878  -1.522  -1.430  0.00  0.00    -0.079 C 
ATOM     30  C   UNL     1      14.426  -1.496  -1.508  0.00  0.00    -0.020 C 
ATOM     31  C   UNL     1      14.781  -0.131  -0.875  0.00  0.00    -0.020 C 
ATOM     32  C   UNL     1      13.563   0.239  -0.009  0.00  0.00    -0.079 C 
ATOM     33  H   UNL     1      12.725  -1.529   0.628  0.00  0.00    -0.082 HD
ENDBRANCH  27  28
ENDBRANCH  26  27
ENDBRANCH  24  26
ENDBRANCH  21  22
ENDBRANCH  20  21
ENDBRANCH  10  20
TORSDOF 7
