REMARK  Name = ZINC39529762
REMARK  5 active torsions:
REMARK  status: ('A' for Active; 'I' for Inactive)
REMARK    1  A    between atoms: C_4  and  C_7
REMARK    2  A    between atoms: C_12  and  N_13
REMARK    3  A    between atoms: C_17  and  S_20
REMARK    4  A    between atoms: S_20  and  O_23
REMARK    5  A    between atoms: O_23  and  C_24
REMARK                            x       y       z     vdW  Elec       q    Type
REMARK                         _______ _______ _______ _____ _____    ______ ____
ROOT
ATOM      1  N   UNL     1       2.895  -1.768   1.441  0.00  0.00    -0.331 N 
ATOM      2  C   UNL     1       2.175  -3.001   1.088  0.00  0.00    +0.086 C 
ATOM      3  C   UNL     1       0.684  -2.792   1.372  0.00  0.00    -0.061 C 
ATOM      4  N   UNL     1       0.508  -2.366   2.766  0.00  0.00    +0.398 N 
ATOM      5  C   UNL     1       1.136  -1.055   2.971  0.00  0.00    +0.133 C 
ATOM      6  C   UNL     1       2.654  -1.181   2.768  0.00  0.00    +0.115 C 
ATOM      7  H   UNL     1      -0.477  -2.301   2.975  0.00  0.00    -0.083 HD
ATOM      8  H   UNL     1       0.935  -3.042   3.380  0.00  0.00    -0.083 HD
ENDROOT
BRANCH   1  14
ATOM      9  C   UNL     1       5.103  -1.633   0.457  0.00  0.00    +0.004 A 
ATOM     10  C   UNL     1       5.982  -1.038  -0.445  0.00  0.00    +0.025 A 
ATOM     11  C   UNL     1       5.550   0.003  -1.243  0.00  0.00    +0.019 A 
ATOM     12  C   UNL     1       4.245   0.459  -1.151  0.00  0.00    +0.017 A 
ATOM     13  C   UNL     1       3.365  -0.124  -0.260  0.00  0.00    +0.025 A 
ATOM     14  C   UNL     1       3.784  -1.174   0.545  0.00  0.00    +0.037 A 
ATOM     15 BR   UNL     1       6.745   0.810  -2.467  0.00  0.00    -0.050 Br
BRANCH   9  19
ATOM     16  C   UNL     1       6.419  -4.839   2.919  0.00  0.00    +0.000 A 
ATOM     17  C   UNL     1       6.529  -4.937   1.544  0.00  0.00    +0.001 A 
ATOM     18  C   UNL     1       6.104  -3.899   0.739  0.00  0.00    +0.008 A 
ATOM     19  C   UNL     1       5.562  -2.751   1.316  0.00  0.00    -0.016 A 
ATOM     20  C   UNL     1       5.454  -2.659   2.702  0.00  0.00    +0.008 A 
ATOM     21  C   UNL     1       5.882  -3.703   3.496  0.00  0.00    +0.001 A 
ENDBRANCH   9  19
ENDBRANCH   1  14
BRANCH   5  22
ATOM     22  S   UNL     1       0.799  -0.480   4.658  0.00  0.00    +0.109 S 
ATOM     23  O   UNL     1       1.190  -1.469   5.600  0.00  0.00    -0.138 OA
ATOM     24  O   UNL     1       1.220   0.870   4.809  0.00  0.00    -0.138 OA
BRANCH  22  25
ATOM     25  O   UNL     1      -0.719  -0.427   4.757  0.00  0.00    -0.347 OA
BRANCH  25  26
ATOM     26  C   UNL     1      -1.280   0.621   4.098  0.00  0.00    +0.156 A 
ATOM     27  C   UNL     1      -1.394   1.854   4.722  0.00  0.00    +0.048 A 
ATOM     28  C   UNL     1      -1.964   2.918   4.050  0.00  0.00    +0.004 A 
ATOM     29  C   UNL     1      -2.421   2.753   2.755  0.00  0.00    +0.000 A 
ATOM     30  C   UNL     1      -2.308   1.525   2.130  0.00  0.00    +0.004 A 
ATOM     31  C   UNL     1      -1.733   0.460   2.797  0.00  0.00    +0.048 A 
ENDBRANCH  25  26
ENDBRANCH  22  25
ENDBRANCH   5  22
TORSDOF 5
