REMARK  Name = ZINC19936579
REMARK  11 active torsions:
REMARK  status: ('A' for Active; 'I' for Inactive)
REMARK    1  A    between atoms: C_1  and  N_2
REMARK    2  A    between atoms: N_2  and  C_3
REMARK    3  A    between atoms: N_2  and  C_4
REMARK    4  A    between atoms: C_7  and  C_10
REMARK    5  A    between atoms: C_10  and  C_12
REMARK    6  A    between atoms: C_10  and  N_15
REMARK    7  A    between atoms: C_12  and  C_13
REMARK    8  A    between atoms: C_13  and  N_14
REMARK    9  A    between atoms: N_18  and  C_21
REMARK   10  A    between atoms: C_21  and  C_22
REMARK   11  A    between atoms: C_21  and  C_28
REMARK                            x       y       z     vdW  Elec       q    Type
REMARK                         _______ _______ _______ _____ _____    ______ ____
ROOT
ATOM      1  N   UNL     1      -0.209   2.427   1.191  0.00  0.00    -0.299 NA
ATOM      2  C   UNL     1       1.253   2.533   1.088  0.00  0.00    +0.066 C 
ATOM      3  C   UNL     1       1.685   3.957   1.445  0.00  0.00    -0.062 C 
ATOM      4  N   UNL     1       1.232   4.277   2.805  0.00  0.00    +0.389 N 
ATOM      5  C   UNL     1      -0.230   4.171   2.909  0.00  0.00    -0.062 C 
ATOM      6  C   UNL     1      -0.662   2.747   2.552  0.00  0.00    +0.066 C 
ATOM      7  H   UNL     1       1.675   3.542   3.493  0.00  0.00    -0.080 HD
ENDROOT
BRANCH   1   8
ATOM      8  C   UNL     1      -0.671   1.093   0.783  0.00  0.00    +0.085 C 
BRANCH   8  12
ATOM      9  C   UNL     1      -4.514   1.418  -1.058  0.00  0.00    +0.029 A 
ATOM     10  C   UNL     1      -3.631   0.426  -1.462  0.00  0.00    +0.023 A 
ATOM     11  C   UNL     1      -2.389   0.323  -0.865  0.00  0.00    +0.007 A 
ATOM     12  C   UNL     1      -2.026   1.208   0.134  0.00  0.00    -0.030 A 
ATOM     13  C   UNL     1      -2.905   2.194   0.542  0.00  0.00    +0.007 A 
ATOM     14  C   UNL     1      -4.146   2.305  -0.054  0.00  0.00    +0.023 A 
BRANCH   9  16
ATOM     15  C   UNL     1      -6.158   0.588  -2.717  0.00  0.00    +0.129 C 
ATOM     16  N   UNL     1      -5.771   1.524  -1.659  0.00  0.00    -0.336 N 
ATOM     17  C   UNL     1      -6.701   2.572  -1.232  0.00  0.00    +0.129 C 
ENDBRANCH   9  16
ENDBRANCH   8  12
BRANCH   8  18
ATOM     18  C   UNL     1      -0.769   0.189   2.013  0.00  0.00    +0.004 C 
BRANCH  18  19
ATOM     19  C   UNL     1       0.628  -0.036   2.593  0.00  0.00    -0.085 C 
BRANCH  19  20
ATOM     20  N   UNL     1       0.558  -1.041   3.663  0.00  0.00    +0.378 N 
ATOM     21  H   UNL     1       1.563  -1.203   4.080  0.00  0.00    -0.090 HD
ATOM     22  H   UNL     1       0.175  -1.987   3.252  0.00  0.00    -0.090 HD
ATOM     23  H   UNL     1      -0.115  -0.686   4.456  0.00  0.00    -0.090 HD
ENDBRANCH  19  20
ENDBRANCH  18  19
ENDBRANCH   8  18
ENDBRANCH   1   8
BRANCH   4  24
ATOM     24  C   UNL     1       1.694   5.610   3.214  0.00  0.00    -0.007 C 
BRANCH  24  25
ATOM     25  C   UNL     1       1.255   5.881   4.630  0.00  0.00    -0.057 A 
ATOM     26  C   UNL     1       1.432   4.918   5.605  0.00  0.00    +0.002 A 
ATOM     27  C   UNL     1       1.035   5.168   6.905  0.00  0.00    +0.000 A 
ATOM     28  C   UNL     1       0.451   6.379   7.228  0.00  0.00    +0.000 A 
ATOM     29  C   UNL     1       0.269   7.341   6.252  0.00  0.00    +0.000 A 
ATOM     30  C   UNL     1       0.671   7.092   4.953  0.00  0.00    +0.002 A 
ENDBRANCH  24  25
BRANCH  24  31
ATOM     31  C   UNL     1       3.197   5.668   3.134  0.00  0.00    -0.057 A 
ATOM     32  C   UNL     1       3.955   4.607   3.593  0.00  0.00    +0.002 A 
ATOM     33  C   UNL     1       5.334   4.657   3.515  0.00  0.00    +0.000 A 
ATOM     34  C   UNL     1       5.956   5.773   2.987  0.00  0.00    +0.000 A 
ATOM     35  C   UNL     1       5.199   6.837   2.533  0.00  0.00    +0.000 A 
ATOM     36  C   UNL     1       3.819   6.784   2.606  0.00  0.00    +0.002 A 
ENDBRANCH  24  31
ENDBRANCH   4  24
TORSDOF 9
