REMARK  Name = ZINC11998120
REMARK  7 active torsions:
REMARK  status: ('A' for Active; 'I' for Inactive)
REMARK    1  A    between atoms: C_4  and  C_7
REMARK    2  A    between atoms: C_7  and  C_8
REMARK    3  A    between atoms: C_8  and  C_9
REMARK    4  A    between atoms: C_9  and  C_10
REMARK    5  A    between atoms: C_10  and  C_17
REMARK    6  A    between atoms: C_22  and  C_23
REMARK    7  A    between atoms: C_22  and  N_65
REMARK                            x       y       z     vdW  Elec       q    Type
REMARK                         _______ _______ _______ _____ _____    ______ ____
ROOT
ATOM      1  C   UNL     1      -0.019   1.526   0.010  0.00  0.00    +0.018 C 
ATOM      2  C   UNL     1      -0.738   2.021   1.268  0.00  0.00    -0.013 C 
ATOM      3  C   UNL     1      -0.810   3.549   1.240  0.00  0.00    -0.078 C 
ATOM      4  C   UNL     1      -0.832   3.562  -1.183  0.00  0.00    -0.078 C 
ATOM      5  C   UNL     1      -0.762   2.034  -1.228  0.00  0.00    -0.013 C 
ATOM      6  N   UNL     1      -1.558   3.973   0.038  0.00  0.00    +0.383 N 
ATOM      7  H   UNL     1      -2.481   3.523   0.043  0.00  0.00    -0.081 HD
ENDROOT
BRANCH   1   8
ATOM      8  C   UNL     1       0.002  -0.004   0.002  0.00  0.00    +0.115 C 
ATOM      9  C   UNL     1      -1.390  -0.555  -0.237  0.00  0.00    +0.244 C 
ATOM     10  O   UNL     1      -2.369  -0.398   0.460  0.00  0.00    -0.273 OA
ATOM     11  N   UNL     1      -1.312  -1.256  -1.386  0.00  0.00    -0.238 N 
ATOM     12  C   UNL     1      -0.077  -1.225  -1.900  0.00  0.00    +0.307 C 
ATOM     13  O   UNL     1       0.239  -1.784  -2.932  0.00  0.00    -0.252 OA
ATOM     14  N   UNL     1       0.775  -0.506  -1.147  0.00  0.00    -0.285 N 
ATOM     15  H   UNL     1      -2.059  -1.725  -1.790  0.00  0.00    +0.159 HD
ATOM     16  H   UNL     1       1.716  -0.348  -1.326  0.00  0.00    +0.151 HD
BRANCH   8  17
ATOM     17  C   UNL     1       0.579  -0.540   1.314  0.00  0.00    +0.036 C 
BRANCH  17  18
ATOM     18  C   UNL     1       0.704  -2.063   1.231  0.00  0.00    +0.007 C 
BRANCH  18  19
ATOM     19  C   UNL     1       1.281  -2.599   2.543  0.00  0.00    +0.035 C 
BRANCH  19  23
ATOM     20  C   UNL     1       1.632  -6.850   2.313  0.00  0.00    +0.000 A 
ATOM     21  C   UNL     1       2.682  -6.047   1.910  0.00  0.00    +0.000 A 
ATOM     22  C   UNL     1       2.569  -4.671   1.985  0.00  0.00    +0.003 A 
ATOM     23  C   UNL     1       1.405  -4.099   2.462  0.00  0.00    -0.047 A 
ATOM     24  C   UNL     1       0.356  -4.902   2.869  0.00  0.00    +0.003 A 
ATOM     25  C   UNL     1       0.468  -6.277   2.791  0.00  0.00    +0.000 A 
ENDBRANCH  19  23
ENDBRANCH  18  19
ENDBRANCH  17  18
ENDBRANCH   8  17
ENDBRANCH   1   8
BRANCH   6  26
ATOM     26  C   UNL     1      -1.740   5.440   0.047  0.00  0.00    -0.024 C 
BRANCH  26  27
ATOM     27  C   UNL     1      -2.231   5.868   1.406  0.00  0.00    +0.009 A 
ATOM     28  C   UNL     1      -1.464   6.322   2.417  0.00  0.00    +0.021 A 
ATOM     29  C   UNL     1      -2.318   6.612   3.500  0.00  0.00    +0.020 A 
ATOM     30  C   UNL     1      -3.575   6.314   3.115  0.00  0.00    +0.093 A 
ATOM     31  N   UNL     1      -3.530   5.856   1.828  0.00  0.00    -0.307 N 
ATOM     32  C   UNL     1      -4.631   5.445   1.070  0.00  0.00    +0.138 A 
ATOM     33  C   UNL     1      -5.903   5.480   1.628  0.00  0.00    +0.048 A 
ATOM     34  C   UNL     1      -6.984   5.076   0.866  0.00  0.00    +0.025 A 
ATOM     35  C   UNL     1      -6.753   4.638  -0.432  0.00  0.00    +0.059 A 
ATOM     36  C   UNL     1      -5.460   4.624  -0.920  0.00  0.00    +0.133 A 
ATOM     37  N   UNL     1      -4.450   5.021  -0.170  0.00  0.00    -0.236 NA
ATOM     38 CL   UNL     1      -8.073   4.113  -1.430  0.00  0.00    -0.082 Cl
ENDBRANCH  26  27
ENDBRANCH   6  26
TORSDOF 7
