REMARK  Name = ZINC65248281
REMARK  6 active torsions:
REMARK  status: ('A' for Active; 'I' for Inactive)
REMARK    1  A    between atoms: C_1  and  O_2
REMARK    2  A    between atoms: O_2  and  C_3
REMARK    3  A    between atoms: C_3  and  C_5
REMARK    4  A    between atoms: C_8  and  C_11
REMARK    5  A    between atoms: C_14  and  C_17
REMARK    6  A    between atoms: C_19  and  O_29
REMARK                            x       y       z     vdW  Elec       q    Type
REMARK                         _______ _______ _______ _____ _____    ______ ____
ROOT
ATOM      1  C   UNL     1      -1.412  -6.358  -0.020  0.00  0.00    +0.168 C 
ATOM      2  N   UNL     1      -0.375  -7.129  -0.023  0.00  0.00    -0.067 NA
ATOM      3  O   UNL     1      -0.757  -8.492  -0.030  0.00  0.00    -0.368 OA
ATOM      4  C   UNL     1      -2.193  -8.514  -0.031  0.00  0.00    +0.311 C 
ATOM      5  N   UNL     1      -2.583  -7.095  -0.018  0.00  0.00    -0.289 N 
ATOM      6  H   UNL     1      -3.487  -6.744  -0.013  0.00  0.00    +0.151 HD
ENDROOT
BRANCH   4   7
ATOM      7  C   UNL     1      -2.717  -9.220   1.221  0.00  0.00    +0.202 C 
ATOM      8  C   UNL     1      -2.186 -10.641   1.209  0.00  0.00    +0.120 C 
ATOM      9  C   UNL     1      -1.422 -11.042   2.308  0.00  0.00    +0.034 A 
ATOM     10  C   UNL     1      -0.891 -12.346   2.377  0.00  0.00    +0.013 A 
ATOM     11  C   UNL     1      -0.149 -12.712   3.458  0.00  0.00    +0.001 A 
ATOM     12  C   UNL     1       0.097 -11.823   4.500  0.00  0.00    +0.002 A 
ATOM     13  C   UNL     1      -0.391 -10.551   4.489  0.00  0.00    +0.024 A 
ATOM     14  C   UNL     1      -1.165 -10.105   3.404  0.00  0.00    +0.044 A 
ATOM     15  N   UNL     1      -1.642  -8.854   3.395  0.00  0.00    -0.284 N 
ATOM     16  C   UNL     1      -2.373  -8.362   2.417  0.00  0.00    +0.233 C 
ATOM     17  O   UNL     1      -2.773  -7.214   2.476  0.00  0.00    -0.274 OA
ATOM     18  H   UNL     1      -1.438  -8.280   4.150  0.00  0.00    +0.155 HD
BRANCH   8  19
ATOM     19  O   UNL     1      -2.439 -11.473   0.194  0.00  0.00    -0.509 OA
ATOM     20  H   UNL     1      -2.049 -12.352   0.298  0.00  0.00    +0.292 HD
ENDBRANCH   8  19
ENDBRANCH   4   7
BRANCH   1  24
ATOM     21  C   UNL     1      -1.247  -2.108   0.003  0.00  0.00    +0.059 A 
ATOM     22  C   UNL     1      -0.065  -2.853  -0.007  0.00  0.00    +0.015 A 
ATOM     23  C   UNL     1      -0.120  -4.229  -0.014  0.00  0.00    +0.012 A 
ATOM     24  C   UNL     1      -1.355  -4.879  -0.012  0.00  0.00    +0.018 A 
ATOM     25  C   UNL     1      -2.536  -4.135  -0.003  0.00  0.00    +0.012 A 
ATOM     26  C   UNL     1      -2.483  -2.759   0.011  0.00  0.00    +0.015 A 
BRANCH  21  27
ATOM     27  C   UNL     1      -1.190  -0.632   0.010  0.00  0.00    +0.339 C 
ATOM     28  O   UNL     1      -2.217   0.016   0.023  0.00  0.00    -0.245 OA
BRANCH  27  30
ATOM     29  C   UNL     1      -0.017   1.425   0.010  0.00  0.00    +0.280 C 
ATOM     30  O   UNL     1       0.002  -0.004   0.002  0.00  0.00    -0.464 OA
ENDBRANCH  27  30
ENDBRANCH  21  27
ENDBRANCH   1  24
TORSDOF 5
