REMARK  Name = ZINC36240441
REMARK  8 active torsions:
REMARK  status: ('A' for Active; 'I' for Inactive)
REMARK    1  A    between atoms: C_1  and  C_2
REMARK    2  A    between atoms: C_2  and  O_3
REMARK    3  A    between atoms: O_3  and  C_4
REMARK    4  A    between atoms: C_7  and  N_10
REMARK    5  A    between atoms: C_19  and  S_20
REMARK    6  A    between atoms: S_20  and  C_21
REMARK    7  A    between atoms: C_21  and  C_22
REMARK    8  A    between atoms: N_27  and  C_28
REMARK                            x       y       z     vdW  Elec       q    Type
REMARK                         _______ _______ _______ _____ _____    ______ ____
ROOT
ATOM      1  N   UNL     1       1.135  -5.958   1.754  0.00  0.00    -0.255 N 
ATOM      2  C   UNL     1       1.853  -6.456   2.778  0.00  0.00    +0.268 A 
ATOM      3  O   UNL     1       2.402  -5.707   3.568  0.00  0.00    -0.267 OA
ATOM      4  C   UNL     1       1.963  -7.874   2.926  0.00  0.00    +0.076 A 
ATOM      5  C   UNL     1       2.686  -8.626   3.954  0.00  0.00    -0.023 A 
ATOM      6  C   UNL     1       2.637  -9.971   3.876  0.00  0.00    -0.004 A 
ATOM      7  S   UNL     1       1.639 -10.315   2.452  0.00  0.00    -0.073 S 
ATOM      8  C   UNL     1       1.291  -8.645   1.962  0.00  0.00    +0.117 A 
ATOM      9  N   UNL     1       0.597  -8.092   0.974  0.00  0.00    -0.215 NA
ATOM     10  C   UNL     1       0.507  -6.782   0.863  0.00  0.00    +0.178 A 
ATOM     11  C   UNL     1       3.288 -10.958   4.797  0.00  0.00    +0.043 C 
ATOM     12  C   UNL     1       4.336 -10.216   5.639  0.00  0.00    +0.005 C 
ATOM     13  C   UNL     1       3.702  -8.940   6.200  0.00  0.00    +0.005 C 
ATOM     14  C   UNL     1       3.467  -7.937   5.070  0.00  0.00    +0.037 C 
ENDROOT
BRANCH   1  18
ATOM     15  C   UNL     1       0.802  -1.825   1.304  0.00  0.00    +0.121 A 
ATOM     16  C   UNL     1       1.841  -2.508   0.687  0.00  0.00    +0.047 A 
ATOM     17  C   UNL     1       1.951  -3.877   0.836  0.00  0.00    +0.030 A 
ATOM     18  C   UNL     1       1.023  -4.568   1.603  0.00  0.00    +0.052 A 
ATOM     19  C   UNL     1      -0.015  -3.884   2.220  0.00  0.00    +0.030 A 
ATOM     20  C   UNL     1      -0.122  -2.515   2.075  0.00  0.00    +0.047 A 
BRANCH  15  21
ATOM     21  O   UNL     1       0.694  -0.478   1.157  0.00  0.00    -0.492 OA
BRANCH  21  23
ATOM     22  C   UNL     1       1.395   1.671   0.301  0.00  0.00    +0.048 C 
ATOM     23  C   UNL     1       1.680   0.168   0.349  0.00  0.00    +0.225 C 
ENDBRANCH  21  23
ENDBRANCH  15  21
ENDBRANCH   1  18
BRANCH  10  24
ATOM     24  S   UNL     1      -0.428  -6.083  -0.457  0.00  0.00    -0.078 S 
BRANCH  24  25
ATOM     25  C   UNL     1      -1.060  -7.525  -1.358  0.00  0.00    +0.173 C 
BRANCH  25  26
ATOM     26  C   UNL     1      -1.889  -7.062  -2.529  0.00  0.00    +0.231 C 
ATOM     27  O   UNL     1      -2.039  -5.877  -2.735  0.00  0.00    -0.274 OA
ATOM     28  N   UNL     1      -2.464  -7.966  -3.347  0.00  0.00    -0.239 N 
ATOM     29  C   UNL     1      -3.205  -7.552  -4.393  0.00  0.00    +0.306 C 
ATOM     30  O   UNL     1      -3.355  -6.364  -4.600  0.00  0.00    -0.252 OA
ATOM     31  N   UNL     1      -3.780  -8.456  -5.211  0.00  0.00    -0.296 N 
ATOM     32  H   UNL     1      -2.344  -8.915  -3.182  0.00  0.00    +0.159 HD
ATOM     33  H   UNL     1      -3.660  -9.405  -5.047  0.00  0.00    +0.151 HD
BRANCH  31  34
ATOM     34  C   UNL     1      -4.586  -8.006  -6.349  0.00  0.00    +0.075 C 
ATOM     35  C   UNL     1      -5.911  -8.727  -6.605  0.00  0.00    +0.024 C 
ATOM     36  C   UNL     1      -4.721  -8.958  -7.539  0.00  0.00    +0.024 C 
ENDBRANCH  31  34
ENDBRANCH  25  26
ENDBRANCH  24  25
ENDBRANCH  10  24
TORSDOF 7
