REMARK  Name = ZINC14743257
REMARK  14 active torsions:
REMARK  status: ('A' for Active; 'I' for Inactive)
REMARK    1  A    between atoms: C_1  and  C_2
REMARK    2  A    between atoms: C_2  and  O_3
REMARK    3  A    between atoms: O_3  and  C_4
REMARK    4  A    between atoms: C_4  and  C_6
REMARK    5  A    between atoms: N_9  and  C_11
REMARK    6  A    between atoms: C_11  and  C_12
REMARK    7  A    between atoms: C_12  and  C_13
REMARK    8  A    between atoms: C_14  and  C_18
REMARK    9  A    between atoms: C_22  and  C_23
REMARK   10  A    between atoms: C_22  and  N_64
REMARK   11  A    between atoms: C_24  and  C_25
REMARK   12  A    between atoms: C_28  and  O_33
REMARK   13  A    between atoms: C_29  and  O_31
REMARK   14  A    between atoms: O_31  and  C_32
REMARK                            x       y       z     vdW  Elec       q    Type
REMARK                         _______ _______ _______ _____ _____    ______ ____
ROOT
ATOM      1  C   UNL     1       1.284   1.060  -4.098  0.00  0.00    +0.171 A 
ATOM      2  C   UNL     1       0.512  -0.111  -4.131  0.00  0.00    -0.009 A 
ATOM      3  C   UNL     1      -0.329  -0.033  -3.068  0.00  0.00    +0.040 A 
ATOM      4  N   UNL     1      -0.067   1.120  -2.437  0.00  0.00    -0.267 N 
ATOM      5  N   UNL     1       0.873   1.755  -3.049  0.00  0.00    -0.164 NA
ATOM      6  C   UNL     1      -1.341  -1.102  -2.744  0.00  0.00    +0.037 C 
ATOM      7  C   UNL     1      -1.501  -1.989  -3.987  0.00  0.00    -0.072 C 
ATOM      8  C   UNL     1       0.539  -1.263  -5.097  0.00  0.00    -0.038 C 
ATOM      9  N   UNL     1      -0.161  -2.407  -4.458  0.00  0.00    +0.385 N 
ATOM     10  H   UNL     1       0.390  -2.724  -3.651  0.00  0.00    -0.081 HD
ENDROOT
BRANCH   1  11
ATOM     11  C   UNL     1       2.345   1.445  -5.050  0.00  0.00    +0.360 C 
ATOM     12  O   UNL     1       2.623   0.712  -5.978  0.00  0.00    -0.243 OA
BRANCH  11  13
ATOM     13  O   UNL     1       3.005   2.608  -4.889  0.00  0.00    -0.460 OA
BRANCH  13  15
ATOM     14  C   UNL     1       4.668   4.271  -5.519  0.00  0.00    +0.048 C 
ATOM     15  C   UNL     1       4.035   2.922  -5.863  0.00  0.00    +0.229 C 
ENDBRANCH  13  15
ENDBRANCH  11  13
ENDBRANCH   1  11
BRANCH   4  16
ATOM     16  C   UNL     1      -0.753   1.593  -1.232  0.00  0.00    +0.149 C 
BRANCH  16  17
ATOM     17  C   UNL     1      -0.013   1.086   0.008  0.00  0.00    +0.067 C 
BRANCH  17  18
ATOM     18  C   UNL     1      -0.718   1.572   1.248  0.00  0.00    +0.014 A 
ATOM     19  C   UNL     1      -1.715   0.991   1.962  0.00  0.00    +0.049 A 
ATOM     20  N   UNL     1      -2.173   1.620   3.024  0.00  0.00    -0.252 NA
ATOM     21  C   UNL     1      -1.687   2.782   3.395  0.00  0.00    +0.156 A 
ATOM     22  S   UNL     1      -0.469   3.070   2.190  0.00  0.00    -0.080 S 
ATOM     23  C   UNL     1      -2.284  -0.343   1.551  0.00  0.00    +0.066 C 
ENDBRANCH  17  18
ENDBRANCH  16  17
ENDBRANCH   4  16
BRANCH   9  24
ATOM     24  C   UNL     1      -0.289  -3.520  -5.420  0.00  0.00    -0.051 C 
BRANCH  24  25
ATOM     25  C   UNL     1      -1.013  -3.069  -6.662  0.00  0.00    -0.045 C 
ATOM     26  C   UNL     1      -0.452  -3.231  -7.852  0.00  0.00    +0.002 C 
BRANCH  26  27
ATOM     27  C   UNL     1      -1.161  -2.789  -9.070  0.00  0.00    -0.022 A 
ATOM     28  C   UNL     1      -2.423  -2.200  -8.970  0.00  0.00    +0.012 A 
ATOM     29  C   UNL     1      -3.084  -1.787 -10.108  0.00  0.00    +0.050 A 
ATOM     30  C   UNL     1      -2.499  -1.956 -11.354  0.00  0.00    +0.158 A 
ATOM     31  C   UNL     1      -1.241  -2.544 -11.461  0.00  0.00    +0.162 A 
ATOM     32  C   UNL     1      -0.570  -2.954 -10.324  0.00  0.00    +0.057 A 
BRANCH  31  33
ATOM     33  O   UNL     1      -0.669  -2.709 -12.684  0.00  0.00    -0.491 OA
ATOM     34  C   UNL     1       0.623  -3.319 -12.720  0.00  0.00    +0.277 C 
ENDBRANCH  31  33
BRANCH  30  35
ATOM     35  O   UNL     1      -3.155  -1.548 -12.472  0.00  0.00    -0.503 OA
ATOM     36  H   UNL     1      -2.967  -0.634 -12.727  0.00  0.00    +0.292 HD
ENDBRANCH  30  35
ENDBRANCH  26  27
ENDBRANCH  24  25
ENDBRANCH   9  24
TORSDOF 11
