REMARK  Name = ZINC02387636
REMARK  10 active torsions:
REMARK  status: ('A' for Active; 'I' for Inactive)
REMARK    1  A    between atoms: C_1  and  C_2
REMARK    2  A    between atoms: C_2  and  C_37
REMARK    3  A    between atoms: C_6  and  C_24
REMARK    4  A    between atoms: C_8  and  C_22
REMARK    5  A    between atoms: C_9  and  N_21
REMARK    6  A    between atoms: N_10  and  C_11
REMARK    7  A    between atoms: C_15  and  C_17
REMARK    8  A    between atoms: C_27  and  O_30
REMARK    9  A    between atoms: O_30  and  C_31
REMARK   10  A    between atoms: C_31  and  C_32
REMARK                            x       y       z     vdW  Elec       q    Type
REMARK                         _______ _______ _______ _____ _____    ______ ____
ROOT
ATOM      1  C   UNL     1       2.507   6.745   2.558  0.00  0.00    +0.011 C 
ATOM      2  C   UNL     1       3.245   6.165   1.350  0.00  0.00    -0.023 C 
ATOM      3  C   UNL     1       2.329   5.190   0.607  0.00  0.00    +0.058 C 
ATOM      4  C   UNL     1       1.110   5.925   0.106  0.00  0.00    +0.025 C 
ATOM      5  C   UNL     1       1.177   7.227  -0.243  0.00  0.00    +0.025 C 
ATOM      6  C   UNL     1      -0.036   7.952  -0.768  0.00  0.00    +0.097 C 
ATOM      7  C   UNL     1      -1.298   7.217  -0.424  0.00  0.00    +0.077 C 
ATOM      8  C   UNL     1      -1.270   5.909  -0.064  0.00  0.00    +0.107 C 
ATOM      9  N   UNL     1      -0.071   5.236   0.009  0.00  0.00    -0.260 N 
ATOM     10  C   UNL     1       2.380   7.946  -0.130  0.00  0.00    +0.162 C 
ATOM     11  O   UNL     1       2.409   9.115  -0.460  0.00  0.00    -0.292 OA
ATOM     12  C   UNL     1       3.632   7.295   0.391  0.00  0.00    +0.086 C 
ATOM     13  C   UNL     1       4.503   5.431   1.820  0.00  0.00    +0.011 C 
ENDROOT
BRANCH   9  14
ATOM     14  C   UNL     1      -0.058   3.837  -0.021  0.00  0.00    +0.040 A 
ATOM     15  C   UNL     1      -0.203   3.114   1.156  0.00  0.00    +0.024 A 
ATOM     16  C   UNL     1      -0.190   1.733   1.123  0.00  0.00    +0.002 A 
ATOM     17  C   UNL     1      -0.032   1.070  -0.080  0.00  0.00    +0.012 A 
ATOM     18  C   UNL     1       0.118   1.787  -1.253  0.00  0.00    +0.057 A 
ATOM     19  C   UNL     1       0.100   3.168  -1.228  0.00  0.00    +0.036 A 
BRANCH  18  20
ATOM     20  C   UNL     1       0.296   1.061  -2.562  0.00  0.00    +0.417 C 
ATOM     21  F   UNL     1       0.276  -0.320  -2.335  0.00  0.00    -0.166 F 
ATOM     22  F   UNL     1      -0.743   1.406  -3.432  0.00  0.00    -0.166 F 
ATOM     23  F   UNL     1       1.522   1.421  -3.132  0.00  0.00    -0.166 F 
ENDBRANCH  18  20
ENDBRANCH   9  14
BRANCH   6  24
ATOM     24  C   UNL     1       0.072   8.075  -2.266  0.00  0.00    -0.034 A 
ATOM     25  C   UNL     1       0.158   6.938  -3.047  0.00  0.00    +0.008 A 
ATOM     26  C   UNL     1       0.252   7.048  -4.421  0.00  0.00    +0.046 A 
ATOM     27  C   UNL     1       0.271   8.301  -5.016  0.00  0.00    +0.121 A 
ATOM     28  C   UNL     1       0.190   9.441  -4.229  0.00  0.00    +0.046 A 
ATOM     29  C   UNL     1       0.090   9.325  -2.856  0.00  0.00    +0.008 A 
BRANCH  27  30
ATOM     30  O   UNL     1       0.369   8.412  -6.367  0.00  0.00    -0.488 OA
BRANCH  30  31
ATOM     31  C   UNL     1       0.449   7.196  -7.114  0.00  0.00    +0.256 C 
BRANCH  31  32
ATOM     32  C   UNL     1       0.552   7.514  -8.583  0.00  0.00    +0.006 C 
ATOM     33  C   UNL     1       1.424   6.885  -9.330  0.00  0.00    +0.007 C 
ENDBRANCH  31  32
ENDBRANCH  30  31
ENDBRANCH  27  30
ENDBRANCH   6  24
BRANCH   8  34
ATOM     34  N   UNL     1      -2.442   5.256   0.233  0.00  0.00    -0.345 N 
ATOM     35  H   UNL     1      -2.423   4.196   0.525  0.00  0.00    +0.144 HD
ATOM     36  H   UNL     1      -3.400   5.795   0.179  0.00  0.00    +0.144 HD
ENDBRANCH   8  34
BRANCH   7  37
ATOM     37  C   UNL     1      -2.552   7.905  -0.483  0.00  0.00    +0.099 C 
ATOM     38  N   UNL     1      -3.547   8.451  -0.529  0.00  0.00    -0.191 NA
ENDBRANCH   7  37
TORSDOF 8
