REMARK  Name = ZINC20121173
REMARK  4 active torsions:
REMARK  status: ('A' for Active; 'I' for Inactive)
REMARK    1  A    between atoms: C_4  and  C_7
REMARK    2  A    between atoms: C_7  and  C_9
REMARK    3  A    between atoms: C_7  and  N_19
REMARK    4  A    between atoms: N_13  and  C_14
REMARK                            x       y       z     vdW  Elec       q    Type
REMARK                         _______ _______ _______ _____ _____    ______ ____
ROOT
ATOM      1  C   UNL     1       3.711  -0.707  -0.038  0.00  0.00    +0.157 C 
ENDROOT
BRANCH   1   2
ATOM      2  N   UNL     1       3.518  -1.670   1.055  0.00  0.00    -0.286 NA
ATOM      3  C   UNL     1       3.060  -0.995   2.277  0.00  0.00    +0.104 C 
ATOM      4  C   UNL     1       2.698  -2.045   3.332  0.00  0.00    +0.122 C 
ATOM      5  N   UNL     1       3.850  -2.942   3.512  0.00  0.00    -0.307 N 
ATOM      6  C   UNL     1       4.452  -3.550   2.316  0.00  0.00    +0.122 C 
ATOM      7  C   UNL     1       4.744  -2.441   1.300  0.00  0.00    +0.104 C 
ATOM      8  C   UNL     1       4.352  -3.206   4.770  0.00  0.00    +0.162 A 
ATOM      9  N   UNL     1       3.938  -2.758   5.933  0.00  0.00    -0.225 NA
ATOM     10  C   UNL     1       4.532  -3.104   7.097  0.00  0.00    +0.080 A 
ATOM     11  C   UNL     1       4.189  -2.696   8.406  0.00  0.00    +0.029 A 
ATOM     12  C   UNL     1       4.901  -3.144   9.488  0.00  0.00    +0.002 A 
ATOM     13  C   UNL     1       5.977  -4.008   9.341  0.00  0.00    +0.001 A 
ATOM     14  C   UNL     1       6.340  -4.427   8.074  0.00  0.00    +0.017 A 
ATOM     15  C   UNL     1       5.632  -3.984   6.985  0.00  0.00    +0.041 A 
ATOM     16  S   UNL     1       5.727  -4.251   5.231  0.00  0.00    -0.052 S 
ENDBRANCH   1   2
BRANCH   1  20
ATOM     17  C   UNL     1       0.022   1.289  -0.847  0.00  0.00    +0.000 A 
ATOM     18  C   UNL     1       1.194   2.016  -0.746  0.00  0.00    +0.000 A 
ATOM     19  C   UNL     1       2.387   1.370  -0.483  0.00  0.00    +0.005 A 
ATOM     20  C   UNL     1       2.410  -0.003  -0.322  0.00  0.00    -0.023 A 
ATOM     21  C   UNL     1       1.238  -0.730  -0.423  0.00  0.00    +0.005 A 
ATOM     22  C   UNL     1       0.045  -0.084  -0.686  0.00  0.00    +0.000 A 
ENDBRANCH   1  20
BRANCH   1  23
ATOM     23  C   UNL     1       4.169  -1.436  -1.274  0.00  0.00    +0.173 A 
ATOM     24  N   UNL     1       3.659  -2.539  -1.766  0.00  0.00    -0.111 NA
ATOM     25  N   UNL     1       4.323  -2.846  -2.827  0.00  0.00    -0.023 NA
ATOM     26  N   UNL     1       5.242  -1.967  -3.025  0.00  0.00    -0.044 NA
ATOM     27  N   UNL     1       5.176  -1.079  -2.092  0.00  0.00    -0.224 N 
BRANCH  27  28
ATOM     28  C   UNL     1       6.039   0.097  -1.947  0.00  0.00    +0.111 C 
ATOM     29  C   UNL     1       5.962   0.968  -3.217  0.00  0.00    +0.027 C 
ATOM     30  C   UNL     1       7.407   1.496  -3.404  0.00  0.00    +0.002 C 
ATOM     31  C   UNL     1       8.271   0.280  -2.990  0.00  0.00    +0.002 C 
ATOM     32  C   UNL     1       7.507  -0.341  -1.802  0.00  0.00    +0.027 C 
ENDBRANCH  27  28
ENDBRANCH   1  23
TORSDOF 4
