REMARK  Name = ZINC12833297
REMARK  13 active torsions:
REMARK  status: ('A' for Active; 'I' for Inactive)
REMARK    1  A    between atoms: C_1  and  C_2
REMARK    2  A    between atoms: C_2  and  O_3
REMARK    3  A    between atoms: O_3  and  C_4
REMARK    4  A    between atoms: C_4  and  C_6
REMARK    5  A    between atoms: C_6  and  N_7
REMARK    6  A    between atoms: C_8  and  C_12
REMARK    7  A    between atoms: C_12  and  N_65
REMARK    8  A    between atoms: C_13  and  C_14
REMARK    9  A    between atoms: C_13  and  N_65
REMARK   10  A    between atoms: C_23  and  C_24
REMARK   11  A    between atoms: C_23  and  N_65
REMARK   12  A    between atoms: C_27  and  C_37
REMARK   13  A    between atoms: C_29  and  C_36
REMARK                            x       y       z     vdW  Elec       q    Type
REMARK                         _______ _______ _______ _____ _____    ______ ____
ROOT
ATOM      1  N   UNL     1       5.930  -1.117   1.125  0.00  0.00    +0.390 N 
ATOM      2  H   UNL     1       6.001  -0.595   0.244  0.00  0.00    -0.080 HD
ENDROOT
BRANCH   1   3
ATOM      3  C   UNL     1       7.218  -1.024   1.843  0.00  0.00    +0.001 C 
BRANCH   3   5
ATOM      4  N   UNL     1       8.347   1.123   1.054  0.00  0.00    -0.220 N 
ATOM      5  C   UNL     1       7.615   0.426   1.944  0.00  0.00    +0.136 A 
ATOM      6  N   UNL     1       7.321   1.252   2.918  0.00  0.00    -0.115 NA
ATOM      7  N   UNL     1       7.839   2.398   2.638  0.00  0.00    -0.023 NA
ATOM      8  N   UNL     1       8.457   2.324   1.511  0.00  0.00    -0.043 NA
BRANCH   4   9
ATOM      9  C   UNL     1       8.908   0.614  -0.200  0.00  0.00    +0.267 C 
BRANCH   9  10
ATOM     10  C   UNL     1       7.912   0.812  -1.313  0.00  0.00    +0.329 C 
ATOM     11  O   UNL     1       6.843   1.327  -1.083  0.00  0.00    -0.249 OA
BRANCH  10  12
ATOM     12  O   UNL     1       8.213   0.418  -2.561  0.00  0.00    -0.464 OA
BRANCH  12  14
ATOM     13  C   UNL     1       7.725   0.131  -4.929  0.00  0.00    +0.048 C 
ATOM     14  C   UNL     1       7.207   0.641  -3.583  0.00  0.00    +0.229 C 
ENDBRANCH  12  14
ENDBRANCH  10  12
ENDBRANCH   9  10
ENDBRANCH   4   9
ENDBRANCH   3   5
ENDBRANCH   1   3
BRANCH   1  15
ATOM     15  C   UNL     1       4.850  -0.529   1.946  0.00  0.00    -0.042 C 
BRANCH  15  16
ATOM     16  C   UNL     1       3.648  -0.295   1.068  0.00  0.00    -0.060 A 
ATOM     17  C   UNL     1       2.627  -1.227   1.034  0.00  0.00    +0.005 A 
ATOM     18  C   UNL     1       1.522  -1.018   0.230  0.00  0.00    +0.050 A 
ATOM     19  C   UNL     1       1.435   0.129  -0.543  0.00  0.00    +0.166 A 
ATOM     20  C   UNL     1       2.462   1.069  -0.507  0.00  0.00    +0.166 A 
ATOM     21  C   UNL     1       3.566   0.852   0.300  0.00  0.00    +0.051 A 
ATOM     22  O   UNL     1       2.142   2.096  -1.346  0.00  0.00    -0.453 OA
ATOM     23  C   UNL     1       0.727   1.974  -1.583  0.00  0.00    +0.466 C 
ATOM     24  O   UNL     1       0.471   0.568  -1.404  0.00  0.00    -0.453 OA
ENDBRANCH  15  16
ENDBRANCH   1  15
BRANCH   1  25
ATOM     25  C   UNL     1       5.621  -2.530   0.822  0.00  0.00    -0.036 C 
BRANCH  25  26
ATOM     26  C   UNL     1       6.517  -2.992  -0.298  0.00  0.00    +0.001 A 
ATOM     27  C   UNL     1       7.655  -3.672  -0.015  0.00  0.00    +0.017 A 
ATOM     28  C   UNL     1       8.502  -4.111  -1.126  0.00  0.00    +0.002 A 
ATOM     29  C   UNL     1       9.686  -4.820  -0.897  0.00  0.00    -0.041 A 
ATOM     30  C   UNL     1      10.456  -5.212  -1.956  0.00  0.00    +0.007 A 
ATOM     31  C   UNL     1      10.075  -4.911  -3.256  0.00  0.00    -0.048 A 
ATOM     32  C   UNL     1       8.913  -4.213  -3.505  0.00  0.00    +0.029 A 
ATOM     33  C   UNL     1       8.113  -3.804  -2.444  0.00  0.00    +0.050 A 
ATOM     34  N   UNL     1       6.945  -3.104  -2.664  0.00  0.00    -0.322 N 
ATOM     35  H   UNL     1       6.678  -2.894  -3.572  0.00  0.00    +0.169 HD
ATOM     36  C   UNL     1       6.171  -2.710  -1.637  0.00  0.00    +0.251 A 
ATOM     37  O   UNL     1       5.146  -2.093  -1.869  0.00  0.00    -0.268 OA
ATOM     38  C   UNL     1      10.941  -5.353  -4.408  0.00  0.00    +0.044 C 
ATOM     39  C   UNL     1      10.109  -5.152   0.510  0.00  0.00    +0.044 C 
ENDBRANCH  25  26
ENDBRANCH   1  25
TORSDOF 10
