REMARK  Name = ZINC13015579
REMARK  5 active torsions:
REMARK  status: ('A' for Active; 'I' for Inactive)
REMARK    1  A    between atoms: C_1  and  N_2
REMARK    2  A    between atoms: C_11  and  S_12
REMARK    3  A    between atoms: S_12  and  C_13
REMARK    4  A    between atoms: C_13  and  C_14
REMARK    5  A    between atoms: C_25  and  C_27
REMARK                            x       y       z     vdW  Elec       q    Type
REMARK                         _______ _______ _______ _____ _____    ______ ____
ROOT
ATOM      1  C   UNL     1      -7.372  -3.860  -2.459  0.00  0.00    +0.227 C 
ATOM      2  O   UNL     1      -7.040  -5.015  -2.297  0.00  0.00    -0.275 OA
ATOM      3  N   UNL     1      -7.340  -2.998  -1.423  0.00  0.00    -0.283 N 
ATOM      4  C   UNL     1      -7.608  -1.569  -1.611  0.00  0.00    +0.144 C 
ATOM      5  C   UNL     1      -8.530  -1.081  -0.517  0.00  0.00    -0.027 A 
ATOM      6  C   UNL     1      -9.085   0.184  -0.654  0.00  0.00    +0.005 A 
ATOM      7  C   UNL     1      -9.912   0.696   0.325  0.00  0.00    +0.000 A 
ATOM      8  C   UNL     1     -10.191  -0.057   1.450  0.00  0.00    +0.000 A 
ATOM      9  C   UNL     1      -9.645  -1.317   1.584  0.00  0.00    +0.004 A 
ATOM     10  C   UNL     1      -8.814  -1.836   0.599  0.00  0.00    -0.040 A 
ATOM     11  C   UNL     1      -8.263  -3.222   0.809  0.00  0.00    +0.069 C 
ATOM     12  C   UNL     1      -7.027  -3.453  -0.058  0.00  0.00    +0.194 C 
ENDROOT
BRANCH  12  13
ATOM     13  C   UNL     1      -6.682  -4.920  -0.076  0.00  0.00    +0.376 C 
ATOM     14  O   UNL     1      -5.537  -5.274   0.080  0.00  0.00    -0.244 OA
ATOM     15  O   UNL     1      -7.647  -5.834  -0.265  0.00  0.00    -0.244 OA
ENDBRANCH  12  13
BRANCH   1  16
ATOM     16  C   UNL     1      -7.822  -3.389  -3.817  0.00  0.00    +0.173 C 
BRANCH  16  17
ATOM     17  S   UNL     1      -7.756  -4.768  -4.987  0.00  0.00    -0.078 S 
BRANCH  17  28
ATOM     18  C   UNL     1      -8.063  -6.084  -7.625  0.00  0.00    +0.154 C 
ATOM     19  N   UNL     1      -8.420  -4.663  -7.612  0.00  0.00    -0.290 N 
ATOM     20  C   UNL     1      -8.844  -4.079  -8.747  0.00  0.00    +0.263 A 
ATOM     21  O   UNL     1      -8.931  -4.723  -9.778  0.00  0.00    -0.267 OA
ATOM     22  C   UNL     1      -9.192  -2.691  -8.728  0.00  0.00    +0.072 A 
ATOM     23  C   UNL     1      -9.669  -1.848  -9.811  0.00  0.00    +0.023 A 
ATOM     24  C   UNL     1      -9.938  -0.557  -9.566  0.00  0.00    +0.048 A 
ATOM     25  S   UNL     1      -9.563  -0.377  -7.833  0.00  0.00    -0.077 S 
ATOM     26  C   UNL     1      -9.056  -2.042  -7.487  0.00  0.00    +0.116 A 
ATOM     27  N   UNL     1      -8.631  -2.679  -6.402  0.00  0.00    -0.216 NA
ATOM     28  C   UNL     1      -8.317  -3.958  -6.448  0.00  0.00    +0.173 A 
ENDBRANCH  17  28
ENDBRANCH  16  17
ENDBRANCH   1  16
TORSDOF 4
