REMARK  Name = ZINC21237946
REMARK  12 active torsions:
REMARK  status: ('A' for Active; 'I' for Inactive)
REMARK    1  A    between atoms: C_1  and  C_2
REMARK    2  A    between atoms: C_2  and  O_3
REMARK    3  A    between atoms: O_3  and  C_4
REMARK    4  A    between atoms: C_4  and  C_6
REMARK    5  A    between atoms: C_7  and  C_36
REMARK    6  A    between atoms: C_8  and  C_24
REMARK    7  A    between atoms: C_10  and  N_11
REMARK    8  A    between atoms: C_12  and  C_14
REMARK    9  A    between atoms: C_18  and  N_20
REMARK   10  A    between atoms: N_26  and  C_27
REMARK   11  A    between atoms: C_27  and  C_29
REMARK   12  A    between atoms: C_27  and  C_30
REMARK                            x       y       z     vdW  Elec       q    Type
REMARK                         _______ _______ _______ _____ _____    ______ ____
ROOT
ATOM      1  C   UNL     1       1.232   3.542   0.009  0.00  0.00    +0.091 A 
ATOM      2  C   UNL     1       1.249   4.265  -1.174  0.00  0.00    -0.015 A 
ATOM      3  C   UNL     1       1.302   5.630  -1.085  0.00  0.00    +0.079 A 
ATOM      4  S   UNL     1       1.329   5.907   0.676  0.00  0.00    -0.068 S 
ATOM      5  C   UNL     1       1.266   4.259   1.210  0.00  0.00    +0.087 A 
ATOM      6  C   UNL     1       1.209   3.572  -2.512  0.00  0.00    +0.046 C 
ENDROOT
BRANCH   5   7
ATOM      7  N   UNL     1       1.253   3.774   2.502  0.00  0.00    -0.275 N 
ATOM      8  C   UNL     1       1.291   4.628   3.544  0.00  0.00    +0.249 C 
ATOM      9  O   UNL     1       1.337   5.827   3.345  0.00  0.00    -0.270 OA
ATOM     10  H   UNL     1       1.212   2.689   2.682  0.00  0.00    +0.156 HD
BRANCH   8  11
ATOM     11  C   UNL     1       1.278   4.109   4.926  0.00  0.00    +0.039 A 
ATOM     12  C   UNL     1       1.220   2.733   5.158  0.00  0.00    +0.014 A 
ATOM     13  C   UNL     1       1.213   2.254   6.451  0.00  0.00    +0.023 A 
ATOM     14  C   UNL     1       1.253   3.135   7.519  0.00  0.00    +0.071 A 
ATOM     15  C   UNL     1       1.305   4.501   7.296  0.00  0.00    +0.145 A 
ATOM     16  C   UNL     1       1.317   4.992   6.007  0.00  0.00    +0.047 A 
ATOM     17 CL   UNL     1       1.238   2.525   9.144  0.00  0.00    -0.081 Cl
BRANCH  15  18
ATOM     18  N   UNL     1       1.347   5.436   8.443  0.00  0.00    +0.058 N 
ATOM     19  O   UNL     1       1.393   6.637   8.248  0.00  0.00    -0.126 OA
ATOM     20  O   UNL     1       1.336   5.003   9.582  0.00  0.00    -0.126 OA
ENDBRANCH  15  18
ENDBRANCH   8  11
ENDBRANCH   5   7
BRANCH   3  21
ATOM     21  C   UNL     1       1.329   6.616  -2.166  0.00  0.00    +0.251 C 
ATOM     22  O   UNL     1       1.304   6.249  -3.326  0.00  0.00    -0.270 OA
ATOM     23  N   UNL     1       1.383   7.932  -1.877  0.00  0.00    -0.304 N 
ATOM     24  H   UNL     1       1.406   8.264  -0.829  0.00  0.00    +0.150 HD
BRANCH  23  25
ATOM     25  C   UNL     1       1.410   8.919  -2.959  0.00  0.00    +0.100 C 
ATOM     26  C   UNL     1      -0.021   9.225  -3.406  0.00  0.00    +0.033 C 
BRANCH  25  27
ATOM     27  C   UNL     1       2.064  10.184  -2.468  0.00  0.00    -0.027 A 
ATOM     28  C   UNL     1       1.797  10.652  -1.194  0.00  0.00    +0.005 A 
ATOM     29  C   UNL     1       2.401  11.810  -0.742  0.00  0.00    +0.000 A 
ATOM     30  C   UNL     1       3.264  12.507  -1.567  0.00  0.00    +0.000 A 
ATOM     31  C   UNL     1       3.527  12.042  -2.842  0.00  0.00    +0.000 A 
ATOM     32  C   UNL     1       2.927  10.882  -3.293  0.00  0.00    +0.005 A 
ENDBRANCH  25  27
ENDBRANCH  23  25
ENDBRANCH   3  21
BRANCH   1  33
ATOM     33  C   UNL     1       1.175   2.076   0.002  0.00  0.00    +0.342 C 
ATOM     34  O   UNL     1       2.204   1.428  -0.011  0.00  0.00    -0.245 OA
BRANCH  33  35
ATOM     35  O   UNL     1      -0.018   1.448   0.010  0.00  0.00    -0.461 OA
BRANCH  35  37
ATOM     36  C   UNL     1      -1.433  -0.534   0.013  0.00  0.00    +0.048 C 
ATOM     37  C   UNL     1       0.002  -0.004   0.002  0.00  0.00    +0.229 C 
ENDBRANCH  35  37
ENDBRANCH  33  35
ENDBRANCH   1  33
TORSDOF 9
