REMARK  Name = ZINC21246873
REMARK  11 active torsions:
REMARK  status: ('A' for Active; 'I' for Inactive)
REMARK    1  A    between atoms: C_1  and  C_2
REMARK    2  A    between atoms: C_2  and  N_3
REMARK    3  A    between atoms: C_13  and  S_14
REMARK    4  A    between atoms: S_14  and  C_15
REMARK    5  A    between atoms: C_15  and  C_16
REMARK    6  A    between atoms: C_17  and  C_27
REMARK    7  A    between atoms: C_18  and  N_26
REMARK    8  A    between atoms: C_20  and  C_21
REMARK    9  A    between atoms: C_21  and  O_23
REMARK   10  A    between atoms: O_23  and  C_24
REMARK   11  A    between atoms: C_24  and  C_25
REMARK                            x       y       z     vdW  Elec       q    Type
REMARK                         _______ _______ _______ _____ _____    ______ ____
ROOT
ATOM      1  C   UNL     1      -3.415  -1.294   2.121  0.00  0.00    +0.115 C 
ENDROOT
BRANCH   1   2
ATOM      2  C   UNL     1      -3.937  -2.627   1.651  0.00  0.00    +0.003 A 
ATOM      3  C   UNL     1      -4.993  -2.713   0.759  0.00  0.00    +0.084 A 
ATOM      4  C   UNL     1      -5.416  -3.988   0.367  0.00  0.00    +0.082 A 
ATOM      5  S   UNL     1      -4.357  -5.040   1.247  0.00  0.00    -0.066 S 
ATOM      6  C   UNL     1      -3.385  -3.811   2.097  0.00  0.00    +0.103 A 
BRANCH   4   7
ATOM      7  N   UNL     1      -6.430  -4.324  -0.501  0.00  0.00    -0.352 N 
ATOM      8  H   UNL     1      -6.645  -5.382  -0.711  0.00  0.00    +0.143 HD
ATOM      9  H   UNL     1      -7.024  -3.535  -0.985  0.00  0.00    +0.143 HD
ENDBRANCH   4   7
BRANCH   6  10
ATOM     10  C   UNL     1      -2.313  -4.002   3.006  0.00  0.00    +0.346 C 
ATOM     11  O   UNL     1      -1.755  -3.039   3.499  0.00  0.00    -0.244 OA
BRANCH  10  12
ATOM     12  O   UNL     1      -1.911  -5.250   3.323  0.00  0.00    -0.461 OA
BRANCH  12  13
ATOM     13  C   UNL     1      -0.826  -5.368   4.245  0.00  0.00    +0.229 C 
ATOM     14  C   UNL     1      -0.515  -6.848   4.480  0.00  0.00    +0.048 C 
ENDBRANCH  12  13
ENDBRANCH  10  12
ENDBRANCH   6  10
BRANCH   3  15
ATOM     15  C   UNL     1      -5.628  -1.534   0.250  0.00  0.00    +0.102 C 
ATOM     16  N   UNL     1      -6.131  -0.600  -0.154  0.00  0.00    -0.191 NA
ENDBRANCH   3  15
ENDBRANCH   1   2
BRANCH   1  17
ATOM     17  S   UNL     1      -2.101  -0.734   1.009  0.00  0.00    -0.083 S 
BRANCH  17  28
ATOM     18  N   UNL     1      -0.698   1.558   1.213  0.00  0.00    -0.288 N 
ATOM     19  C   UNL     1      -0.344   2.741   1.768  0.00  0.00    +0.262 A 
ATOM     20  O   UNL     1       0.539   3.425   1.283  0.00  0.00    -0.267 OA
ATOM     21  C   UNL     1      -1.066   3.170   2.973  0.00  0.00    +0.066 A 
ATOM     22  C   UNL     1      -0.777   4.374   3.614  0.00  0.00    +0.030 A 
ATOM     23  C   UNL     1      -1.483   4.725   4.744  0.00  0.00    +0.019 A 
ATOM     24  C   UNL     1      -2.475   3.891   5.245  0.00  0.00    +0.017 A 
ATOM     25  C   UNL     1      -2.774   2.707   4.632  0.00  0.00    +0.029 A 
ATOM     26  C   UNL     1      -2.075   2.323   3.484  0.00  0.00    +0.079 A 
ATOM     27  N   UNL     1      -2.342   1.158   2.848  0.00  0.00    -0.223 NA
ATOM     28  C   UNL     1      -1.687   0.799   1.772  0.00  0.00    +0.172 A 
ATOM     29 BR   UNL     1      -1.099   6.356   5.621  0.00  0.00    -0.050 Br
BRANCH  18  31
ATOM     30  C   UNL     1      -0.753   1.593  -1.232  0.00  0.00    +0.027 C 
ATOM     31  C   UNL     1      -0.013   1.086   0.008  0.00  0.00    +0.124 C 
ENDBRANCH  18  31
ENDBRANCH  17  28
ENDBRANCH   1  17
TORSDOF 9
