REMARK  Name = ZINC09336419
REMARK  11 active torsions:
REMARK  status: ('A' for Active; 'I' for Inactive)
REMARK    1  A    between atoms: C_1  and  C_2
REMARK    2  A    between atoms: C_2  and  C_3
REMARK    3  A    between atoms: C_3  and  C_4
REMARK    4  A    between atoms: C_4  and  N_5
REMARK    5  A    between atoms: N_5  and  C_6
REMARK    6  A    between atoms: C_7  and  N_19
REMARK    7  A    between atoms: N_8  and  C_15
REMARK    8  A    between atoms: C_15  and  C_16
REMARK    9  A    between atoms: C_16  and  C_17
REMARK   10  A    between atoms: C_16  and  C_18
REMARK   11  A    between atoms: C_20  and  C_22
REMARK                            x       y       z     vdW  Elec       q    Type
REMARK                         _______ _______ _______ _____ _____    ______ ____
ROOT
ATOM      1  C   UNL     1       0.504  -1.631   1.421  0.00  0.00    +0.140 A 
ATOM      2  C   UNL     1       1.668  -0.901   1.288  0.00  0.00    +0.127 A 
ATOM      3  N   UNL     1       2.042  -0.455   0.042  0.00  0.00    -0.280 N 
ATOM      4  C   UNL     1       1.280  -0.722  -1.034  0.00  0.00    +0.331 A 
ATOM      5  O   UNL     1       1.625  -0.313  -2.126  0.00  0.00    -0.246 OA
ATOM      6  N   UNL     1       0.146  -1.436  -0.925  0.00  0.00    -0.273 N 
ATOM      7  H   UNL     1      -0.399  -1.627  -1.742  0.00  0.00    +0.173 HD
ATOM      8  C   UNL     1      -0.266  -1.896   0.273  0.00  0.00    +0.277 A 
ATOM      9  O   UNL     1      -1.299  -2.539   0.361  0.00  0.00    -0.266 OA
ENDROOT
BRANCH   1  10
ATOM     10  N   UNL     1       0.093  -2.102   2.685  0.00  0.00    -0.260 N 
ATOM     11  C   UNL     1      -0.143  -1.230   3.685  0.00  0.00    +0.252 C 
ATOM     12  O   UNL     1      -0.486  -1.637   4.778  0.00  0.00    -0.270 OA
BRANCH  11  13
ATOM     13  C   UNL     1       0.013   0.221   3.452  0.00  0.00    +0.051 A 
ATOM     14  C   UNL     1      -0.224   0.758   2.185  0.00  0.00    +0.014 A 
ATOM     15  C   UNL     1      -0.081   2.113   1.977  0.00  0.00    +0.001 A 
ATOM     16  C   UNL     1       0.307   2.941   3.017  0.00  0.00    +0.001 A 
ATOM     17  C   UNL     1       0.549   2.415   4.273  0.00  0.00    +0.016 A 
ATOM     18  C   UNL     1       0.404   1.060   4.498  0.00  0.00    +0.030 A 
ATOM     19 BR   UNL     1       0.736   0.344   6.216  0.00  0.00    -0.050 Br
ENDBRANCH  11  13
BRANCH  10  20
ATOM     20  C   UNL     1      -0.076  -3.540   2.911  0.00  0.00    +0.114 C 
BRANCH  20  21
ATOM     21  C   UNL     1       1.188  -4.107   3.559  0.00  0.00    +0.019 C 
BRANCH  21  23
ATOM     22  C   UNL     1       2.276  -6.175   4.443  0.00  0.00    +0.004 C 
ATOM     23  C   UNL     1       1.011  -5.608   3.795  0.00  0.00    -0.002 C 
ENDBRANCH  21  23
ENDBRANCH  20  21
ENDBRANCH  10  20
ENDBRANCH   1  10
BRANCH   2  24
ATOM     24  N   UNL     1       2.444  -0.624   2.388  0.00  0.00    -0.343 N 
ATOM     25  H   UNL     1       3.137   0.053   2.334  0.00  0.00    +0.144 HD
ATOM     26  H   UNL     1       2.299  -1.105   3.218  0.00  0.00    +0.144 HD
ENDBRANCH   2  24
BRANCH   3  27
ATOM     27  C   UNL     1       3.276   0.321  -0.114  0.00  0.00    +0.131 C 
BRANCH  27  28
ATOM     28  C   UNL     1       4.445  -0.629  -0.383  0.00  0.00    +0.003 C 
ATOM     29  C   UNL     1       4.234  -1.329  -1.727  0.00  0.00    +0.009 C 
ATOM     30  C   UNL     1       5.750   0.168  -0.421  0.00  0.00    +0.009 C 
ENDBRANCH  27  28
ENDBRANCH   3  27
TORSDOF 8
