REMARK  Name = ZINC21241691
REMARK  11 active torsions:
REMARK  status: ('A' for Active; 'I' for Inactive)
REMARK    1  A    between atoms: C_1  and  C_2
REMARK    2  A    between atoms: C_2  and  C_4
REMARK    3  A    between atoms: C_2  and  S_12
REMARK    4  A    between atoms: N_6  and  C_7
REMARK    5  A    between atoms: S_12  and  C_13
REMARK    6  A    between atoms: C_16  and  C_19
REMARK    7  A    between atoms: N_17  and  N_18
REMARK    8  A    between atoms: C_22  and  C_25
REMARK    9  A    between atoms: C_25  and  C_26
REMARK   10  A    between atoms: C_25  and  C_27
REMARK   11  A    between atoms: C_25  and  C_28
REMARK                            x       y       z     vdW  Elec       q    Type
REMARK                         _______ _______ _______ _____ _____    ______ ____
ROOT
ATOM      1  C   UNL     1      -0.003  -0.823  -1.091  0.00  0.00    +0.209 A 
ATOM      2  N   UNL     1       0.023  -2.061  -0.649  0.00  0.00    -0.121 NA
ATOM      3  N   UNL     1       0.036  -2.071   0.636  0.00  0.00    -0.127 NA
ATOM      4  C   UNL     1       0.024  -0.841   1.094  0.00  0.00    +0.182 A 
ATOM      5  N   UNL     1       0.002  -0.004   0.002  0.00  0.00    -0.224 N 
ENDROOT
BRANCH   4   6
ATOM      6  C   UNL     1       0.031  -0.432   2.514  0.00  0.00    +0.021 A 
ATOM      7  C   UNL     1       0.335   0.885   2.863  0.00  0.00    +0.012 A 
ATOM      8  C   UNL     1       0.335   1.261   4.191  0.00  0.00    +0.005 A 
ATOM      9  C   UNL     1       0.046   0.333   5.176  0.00  0.00    -0.042 A 
ATOM     10  C   UNL     1      -0.250  -0.975   4.837  0.00  0.00    +0.005 A 
ATOM     11  C   UNL     1      -0.259  -1.363   3.513  0.00  0.00    +0.012 A 
BRANCH   9  12
ATOM     12  C   UNL     1       0.054   0.750   6.624  0.00  0.00    -0.013 C 
ATOM     13  C   UNL     1       1.093  -0.075   7.386  0.00  0.00    +0.015 C 
ATOM     14  C   UNL     1       0.408   2.235   6.725  0.00  0.00    +0.015 C 
ATOM     15  C   UNL     1      -1.331   0.513   7.230  0.00  0.00    +0.015 C 
ENDBRANCH   9  12
ENDBRANCH   4   6
BRANCH   5  16
ATOM     16  N   UNL     1      -0.016   1.362   0.009  0.00  0.00    -0.295 N 
ATOM     17  H   UNL     1      -0.009   1.907   0.965  0.00  0.00    +0.163 HD
ATOM     18  H   UNL     1      -0.038   1.917  -0.940  0.00  0.00    +0.163 HD
ENDBRANCH   5  16
BRANCH   1  19
ATOM     19  S   UNL     1      -0.035  -0.316  -2.777  0.00  0.00    -0.072 S 
BRANCH  19  21
ATOM     20  C   UNL     1       1.296  -2.644  -3.297  0.00  0.00    +0.029 C 
ATOM     21  C   UNL     1      -0.026  -1.932  -3.592  0.00  0.00    +0.137 C 
BRANCH  21  22
ATOM     22  C   UNL     1      -0.174  -1.745  -5.080  0.00  0.00    +0.226 C 
ATOM     23  O   UNL     1       0.168  -0.703  -5.598  0.00  0.00    -0.275 OA
ATOM     24  N   UNL     1      -0.688  -2.736  -5.836  0.00  0.00    -0.312 N 
ATOM     25  H   UNL     1      -0.999  -3.681  -5.366  0.00  0.00    +0.149 HD
BRANCH  24  26
ATOM     26  C   UNL     1      -0.833  -2.554  -7.282  0.00  0.00    +0.073 C 
ATOM     27  C   UNL     1      -2.194  -1.901  -7.599  0.00  0.00    +0.022 C 
ATOM     28  C   UNL     1      -2.648  -2.588  -8.912  0.00  0.00    +0.002 C 
ATOM     29  C   UNL     1      -2.183  -4.051  -8.710  0.00  0.00    +0.002 C 
ATOM     30  C   UNL     1      -0.826  -3.921  -7.988  0.00  0.00    +0.022 C 
ENDBRANCH  24  26
ENDBRANCH  21  22
ENDBRANCH  19  21
ENDBRANCH   1  19
TORSDOF 7
