REMARK  Name = ZINC18935297
REMARK  12 active torsions:
REMARK  status: ('A' for Active; 'I' for Inactive)
REMARK    1  A    between atoms: C_1  and  C_2
REMARK    2  A    between atoms: C_3  and  C_27
REMARK    3  A    between atoms: C_4  and  N_11
REMARK    4  A    between atoms: C_6  and  C_7
REMARK    5  A    between atoms: C_7  and  O_9
REMARK    6  A    between atoms: O_9  and  C_10
REMARK    7  A    between atoms: C_12  and  C_14
REMARK    8  A    between atoms: C_14  and  N_56
REMARK    9  A    between atoms: C_15  and  N_56
REMARK   10  A    between atoms: C_16  and  N_56
REMARK   11  A    between atoms: C_27  and  O_29
REMARK   12  A    between atoms: O_29  and  C_30
REMARK                            x       y       z     vdW  Elec       q    Type
REMARK                         _______ _______ _______ _____ _____    ______ ____
ROOT
ATOM      1  N   UNL     1      -0.540   6.636   0.923  0.00  0.00    -0.281 N 
ATOM      2  C   UNL     1       0.255   5.587   1.213  0.00  0.00    +0.201 C 
ATOM      3  O   UNL     1       1.079   5.676   2.098  0.00  0.00    -0.278 OA
ATOM      4  H   UNL     1      -1.199   6.564   0.215  0.00  0.00    +0.155 HD
ENDROOT
BRANCH   1   8
ATOM      5  C   UNL     1      -1.556  11.372   2.236  0.00  0.00    +0.046 C 
ATOM      6  C   UNL     1      -0.826  10.056   2.329  0.00  0.00    -0.014 A 
ATOM      7  C   UNL     1      -1.139   9.002   1.486  0.00  0.00    +0.091 A 
ATOM      8  C   UNL     1      -0.416   7.813   1.634  0.00  0.00    +0.087 A 
ATOM      9  S   UNL     1       0.669   8.180   2.935  0.00  0.00    -0.066 S 
ATOM     10  C   UNL     1       0.169   9.862   3.248  0.00  0.00    +0.102 A 
BRANCH  10  11
ATOM     11  C   UNL     1       0.689  10.799   4.244  0.00  0.00    +0.346 C 
ATOM     12  O   UNL     1       0.223  11.919   4.326  0.00  0.00    -0.244 OA
BRANCH  11  13
ATOM     13  O   UNL     1       1.685  10.420   5.072  0.00  0.00    -0.464 OA
ATOM     14  C   UNL     1       2.143  11.386   6.020  0.00  0.00    +0.280 C 
ENDBRANCH  11  13
ENDBRANCH  10  11
BRANCH   7  15
ATOM     15  C   UNL     1      -2.194   9.127   0.473  0.00  0.00    +0.342 C 
ATOM     16  O   UNL     1      -3.341   8.833   0.750  0.00  0.00    -0.245 OA
BRANCH  15  17
ATOM     17  O   UNL     1      -1.891   9.568  -0.764  0.00  0.00    -0.464 OA
ATOM     18  C   UNL     1      -2.984   9.666  -1.715  0.00  0.00    +0.280 C 
ENDBRANCH  15  17
ENDBRANCH   7  15
ENDBRANCH   1   8
BRANCH   2  19
ATOM     19  C   UNL     1       0.119   4.302   0.437  0.00  0.00    +0.019 C 
BRANCH  19  21
ATOM     20  C   UNL     1       0.690   2.814   2.260  0.00  0.00    -0.095 C 
ATOM     21  N   UNL     1       1.115   3.334   0.943  0.00  0.00    +0.388 N 
ATOM     22  H   UNL     1       2.019   3.810   1.049  0.00  0.00    -0.081 HD
BRANCH  21  23
ATOM     23  C   UNL     1       1.269   2.219  -0.015  0.00  0.00    -0.037 C 
ATOM     24  C   UNL     1      -0.096   1.628  -0.362  0.00  0.00    -0.010 C 
ATOM     25  C   UNL     1       0.087   0.634  -1.516  0.00  0.00    +0.003 C 
ATOM     26  C   UNL     1       0.427   1.421  -2.780  0.00  0.00    +0.035 C 
ATOM     27  C   UNL     1       1.568   2.370  -2.522  0.00  0.00    -0.046 A 
ATOM     28  C   UNL     1       1.952   2.740  -1.252  0.00  0.00    -0.058 A 
ATOM     29  C   UNL     1       3.010   3.623  -1.084  0.00  0.00    +0.002 A 
ATOM     30  C   UNL     1       3.679   4.133  -2.177  0.00  0.00    +0.000 A 
ATOM     31  C   UNL     1       3.297   3.758  -3.452  0.00  0.00    +0.000 A 
ATOM     32  C   UNL     1       2.245   2.881  -3.621  0.00  0.00    +0.004 A 
ENDBRANCH  21  23
ENDBRANCH  19  21
ENDBRANCH   2  19
TORSDOF 8
