REMARK  Name = ZINC05053112
REMARK  6 active torsions:
REMARK  status: ('A' for Active; 'I' for Inactive)
REMARK    1  A    between atoms: C_1  and  C_2
REMARK    2  A    between atoms: C_2  and  O_3
REMARK    3  A    between atoms: O_3  and  C_4
REMARK    4  A    between atoms: C_4  and  C_6
REMARK    5  A    between atoms: N_8  and  N_25
REMARK    6  A    between atoms: N_14  and  C_17
REMARK                            x       y       z     vdW  Elec       q    Type
REMARK                         _______ _______ _______ _____ _____    ______ ____
ROOT
ATOM      1  C   UNL     1       3.278   2.122  -0.035  0.00  0.00    +0.147 C 
ATOM      2  N   UNL     1       2.307   1.270   0.009  0.00  0.00    -0.157 NA
ATOM      3  N   UNL     1       1.039   1.856   0.038  0.00  0.00    -0.093 N 
ATOM      4  C   UNL     1       1.201   3.307   0.003  0.00  0.00    +0.169 C 
ATOM      5  C   UNL     1       2.715   3.528  -0.040  0.00  0.00    +0.104 C 
ATOM      6  C   UNL     1       0.573   3.983   1.225  0.00  0.00    +0.136 C 
ATOM      7  C   UNL     1      -0.430   4.940   0.611  0.00  0.00    +0.229 C 
ATOM      8  O   UNL     1      -1.159   5.686   1.229  0.00  0.00    -0.275 OA
ATOM      9  N   UNL     1      -0.383   4.829  -0.724  0.00  0.00    -0.208 N 
ATOM     10  C   UNL     1       0.508   3.931  -1.175  0.00  0.00    +0.254 C 
ATOM     11  O   UNL     1       0.718   3.668  -2.339  0.00  0.00    -0.272 OA
ENDROOT
BRANCH   9  12
ATOM     12  C   UNL     1      -1.196   5.587  -1.579  0.00  0.00    +0.047 A 
ATOM     13  C   UNL     1      -0.630   6.549  -2.404  0.00  0.00    +0.044 A 
ATOM     14  C   UNL     1      -1.433   7.292  -3.250  0.00  0.00    +0.044 A 
ATOM     15  C   UNL     1      -2.801   7.085  -3.265  0.00  0.00    +0.040 A 
ATOM     16  C   UNL     1      -3.368   6.130  -2.439  0.00  0.00    +0.044 A 
ATOM     17  C   UNL     1      -2.569   5.381  -1.596  0.00  0.00    +0.044 A 
ATOM     18 CL   UNL     1      -5.085   5.873  -2.462  0.00  0.00    -0.083 Cl
ATOM     19 CL   UNL     1      -0.725   8.489  -4.288  0.00  0.00    -0.083 Cl
ENDBRANCH   9  12
BRANCH   1  20
ATOM     20  C   UNL     1       4.708   1.779  -0.073  0.00  0.00    +0.355 C 
ATOM     21  O   UNL     1       5.544   2.660  -0.113  0.00  0.00    -0.244 OA
BRANCH  20  22
ATOM     22  O   UNL     1       5.092   0.486  -0.064  0.00  0.00    -0.461 OA
BRANCH  22  24
ATOM     23  C   UNL     1       6.759  -1.289  -0.087  0.00  0.00    +0.048 C 
ATOM     24  C   UNL     1       6.519   0.222  -0.103  0.00  0.00    +0.229 C 
ENDBRANCH  22  24
ENDBRANCH  20  22
ENDBRANCH   1  20
BRANCH   3  25
ATOM     25  N   UNL     1      -0.084   1.223   0.084  0.00  0.00    +0.067 NA
ATOM     26  O   UNL     1      -0.097   0.005   0.104  0.00  0.00    -0.124 OA
ENDBRANCH   3  25
TORSDOF 5
