REMARK  Name = ZINC26954096
REMARK  5 active torsions:
REMARK  status: ('A' for Active; 'I' for Inactive)
REMARK    1  A    between atoms: C_4  and  C_7
REMARK    2  A    between atoms: C_7  and  N_8
REMARK    3  A    between atoms: N_18  and  C_30
REMARK    4  A    between atoms: N_21  and  N_22
REMARK    5  A    between atoms: C_23  and  C_24
REMARK                            x       y       z     vdW  Elec       q    Type
REMARK                         _______ _______ _______ _____ _____    ______ ____
ROOT
ATOM      1  N   UNL     1       3.915  12.400   0.751  0.00  0.00    +0.386 N 
ATOM      2  C   UNL     1       5.188  12.121   0.073  0.00  0.00    -0.073 C 
ATOM      3  C   UNL     1       5.695  10.729   0.458  0.00  0.00    +0.018 C 
ATOM      4  C   UNL     1       4.566   9.729   0.220  0.00  0.00    -0.026 A 
ATOM      5  C   UNL     1       3.294  10.166   0.098  0.00  0.00    -0.021 A 
ATOM      6  S   UNL     1       2.329   8.705  -0.163  0.00  0.00    -0.075 S 
ATOM      7  C   UNL     1       3.639   7.507  -0.107  0.00  0.00    +0.117 A 
ATOM      8  C   UNL     1       4.787   8.288   0.114  0.00  0.00    +0.076 A 
ATOM      9  C   UNL     1       6.021   7.568   0.206  0.00  0.00    +0.264 A 
ATOM     10  O   UNL     1       7.069   8.161   0.397  0.00  0.00    -0.267 OA
ATOM     11  N   UNL     1       6.007   6.228   0.084  0.00  0.00    -0.276 N 
ATOM     12  C   UNL     1       4.844   5.549  -0.135  0.00  0.00    +0.219 A 
ATOM     13  N   UNL     1       3.695   6.186  -0.223  0.00  0.00    -0.207 NA
ATOM     14  N   UNL     1       4.871   4.181  -0.260  0.00  0.00    -0.206 N 
ATOM     15  C   UNL     1       2.828  11.588   0.172  0.00  0.00    -0.035 C 
ATOM     16  H   UNL     1       5.834   3.649  -0.275  0.00  0.00    +0.177 HD
ATOM     17  H   UNL     1       4.026  12.126   1.811  0.00  0.00    -0.081 HD
ENDROOT
BRANCH  11  18
ATOM     18  C   UNL     1       7.266   5.485   0.182  0.00  0.00    +0.093 C 
ATOM     19  C   UNL     1       7.905   5.743   1.548  0.00  0.00    +0.025 C 
ATOM     20  C   UNL     1       9.220   4.966   1.650  0.00  0.00    +0.002 C 
ATOM     21  C   UNL     1      10.172   5.428   0.545  0.00  0.00    +0.000 C 
ATOM     22  C   UNL     1       9.533   5.170  -0.821  0.00  0.00    +0.002 C 
ATOM     23  C   UNL     1       8.218   5.947  -0.923  0.00  0.00    +0.025 C 
ENDBRANCH  11  18
BRANCH  14  24
ATOM     24  N   UNL     1       3.673   3.463  -0.367  0.00  0.00    -0.188 NA
ATOM     25  C   UNL     1       3.699   2.171  -0.485  0.00  0.00    +0.138 C 
BRANCH  25  26
ATOM     26  C   UNL     1       2.437   1.415  -0.599  0.00  0.00    -0.005 A 
ATOM     27  C   UNL     1       1.213   2.087  -0.580  0.00  0.00    +0.009 A 
ATOM     28  C   UNL     1       0.037   1.375  -0.688  0.00  0.00    +0.001 A 
ATOM     29  C   UNL     1       0.069  -0.003  -0.813  0.00  0.00    +0.000 A 
ATOM     30  C   UNL     1       1.278  -0.675  -0.832  0.00  0.00    +0.001 A 
ATOM     31  C   UNL     1       2.462   0.025  -0.726  0.00  0.00    +0.009 A 
ENDBRANCH  25  26
ENDBRANCH  14  24
BRANCH   1  32
ATOM     32  C   UNL     1       3.590  13.832   0.693  0.00  0.00    -0.043 C 
BRANCH  32  36
ATOM     33  C   UNL     1       0.273  14.645   3.259  0.00  0.00    +0.000 A 
ATOM     34  C   UNL     1       1.562  14.721   3.751  0.00  0.00    +0.000 A 
ATOM     35  C   UNL     1       2.636  14.457   2.921  0.00  0.00    +0.002 A 
ATOM     36  C   UNL     1       2.420  14.118   1.598  0.00  0.00    -0.064 A 
ATOM     37  C   UNL     1       1.130  14.047   1.105  0.00  0.00    +0.002 A 
ATOM     38  C   UNL     1       0.057  14.305   1.936  0.00  0.00    +0.000 A 
ENDBRANCH  32  36
ENDBRANCH   1  32
TORSDOF 5
