REMARK  Name = ZINC48214769
REMARK  6 active torsions:
REMARK  status: ('A' for Active; 'I' for Inactive)
REMARK    1  A    between atoms: C_1  and  C_2
REMARK    2  A    between atoms: C_2  and  N_3
REMARK    3  A    between atoms: N_6  and  C_9
REMARK    4  A    between atoms: C_9  and  C_11
REMARK    5  A    between atoms: C_9  and  C_12
REMARK    6  A    between atoms: N_17  and  C_18
REMARK                            x       y       z     vdW  Elec       q    Type
REMARK                         _______ _______ _______ _____ _____    ______ ____
ROOT
ATOM      1  C   UNL     1       3.412  -4.019  -3.693  0.00  0.00    +0.237 C 
ATOM      2  O   UNL     1       2.776  -4.614  -2.850  0.00  0.00    -0.274 OA
ATOM      3  N   UNL     1       4.101  -4.705  -4.627  0.00  0.00    -0.239 N 
ATOM      4  C   UNL     1       4.082  -6.052  -4.623  0.00  0.00    +0.306 C 
ATOM      5  O   UNL     1       3.444  -6.649  -3.778  0.00  0.00    -0.252 OA
ATOM      6  N   UNL     1       4.771  -6.739  -5.557  0.00  0.00    -0.294 N 
ATOM      7  H   UNL     1       4.610  -4.229  -5.301  0.00  0.00    +0.159 HD
ATOM      8  H   UNL     1       5.280  -6.262  -6.231  0.00  0.00    +0.151 HD
ENDROOT
BRANCH   6   9
ATOM      9  C   UNL     1       4.751  -8.203  -5.553  0.00  0.00    +0.037 C 
ATOM     10  C   UNL     1       3.311  -8.694  -5.721  0.00  0.00    +0.029 C 
ATOM     11  C   UNL     1       3.290 -10.224  -5.717  0.00  0.00    -0.008 C 
ATOM     12  C   UNL     1       4.146 -10.749  -6.871  0.00  0.00    +0.007 C 
ATOM     13  C   UNL     1       5.585 -10.258  -6.703  0.00  0.00    -0.008 C 
ATOM     14  C   UNL     1       5.606  -8.728  -6.707  0.00  0.00    +0.029 C 
ATOM     15  C   UNL     1       6.147 -10.773  -5.377  0.00  0.00    +0.007 C 
ATOM     16  C   UNL     1       5.292 -10.247  -4.222  0.00  0.00    -0.008 C 
ATOM     17  C   UNL     1       3.852 -10.738  -4.390  0.00  0.00    +0.007 C 
ATOM     18  C   UNL     1       5.313  -8.718  -4.226  0.00  0.00    +0.029 C 
ENDBRANCH   6   9
BRANCH   1  19
ATOM     19  C   UNL     1       3.433  -2.512  -3.697  0.00  0.00    +0.140 C 
ATOM     20  C   UNL     1       4.792  -2.019  -3.195  0.00  0.00    +0.034 C 
BRANCH  19  24
ATOM     21  N   UNL     1       1.321  -0.310  -0.772  0.00  0.00    +0.381 N 
ATOM     22  C   UNL     1       1.558  -1.738  -0.523  0.00  0.00    -0.063 C 
ATOM     23  C   UNL     1       2.712  -2.224  -1.403  0.00  0.00    +0.066 C 
ATOM     24  N   UNL     1       2.372  -2.005  -2.817  0.00  0.00    -0.295 NA
ATOM     25  C   UNL     1       2.108  -0.583  -3.075  0.00  0.00    +0.066 C 
ATOM     26  C   UNL     1       0.959  -0.110  -2.182  0.00  0.00    -0.063 C 
ATOM     27  H   UNL     1       2.159   0.211  -0.563  0.00  0.00    -0.082 HD
BRANCH  21  29
ATOM     28  C   UNL     1       0.651   0.069   1.553  0.00  0.00    -0.017 C 
ATOM     29  C   UNL     1       0.226   0.161   0.086  0.00  0.00    -0.082 C 
ENDBRANCH  21  29
ENDBRANCH  19  24
ENDBRANCH   1  19
TORSDOF 4
