REMARK  Name = ZINC08743039
REMARK  7 active torsions:
REMARK  status: ('A' for Active; 'I' for Inactive)
REMARK    1  A    between atoms: C_1  and  N_56
REMARK    2  A    between atoms: C_3  and  C_27
REMARK    3  A    between atoms: C_5  and  C_19
REMARK    4  A    between atoms: C_10  and  O_17
REMARK    5  A    between atoms: O_17  and  C_18
REMARK    6  A    between atoms: C_19  and  C_21
REMARK    7  A    between atoms: C_31  and  N_33
REMARK                            x       y       z     vdW  Elec       q    Type
REMARK                         _______ _______ _______ _____ _____    ______ ____
ROOT
ATOM      1  C   UNL     1      -0.231  -3.020   1.266  0.00  0.00    -0.094 C 
ATOM      2  C   UNL     1      -0.710  -2.027  -0.907  0.00  0.00    -0.068 C 
ATOM      3  C   UNL     1      -1.775  -1.034  -1.438  0.00  0.00    +0.013 C 
ATOM      4  C   UNL     1      -2.258  -0.323  -0.150  0.00  0.00    +0.068 C 
ATOM      5  C   UNL     1      -1.902  -1.287   0.988  0.00  0.00    +0.051 C 
ATOM      6  C   UNL     1      -3.122  -1.654   1.788  0.00  0.00    -0.024 A 
ATOM      7  C   UNL     1      -4.312  -2.269   1.467  0.00  0.00    +0.050 A 
ATOM      8  C   UNL     1      -5.272  -2.476   2.447  0.00  0.00    +0.120 A 
ATOM      9  C   UNL     1      -5.027  -2.062   3.748  0.00  0.00    +0.047 A 
ATOM     10  C   UNL     1      -3.835  -1.447   4.070  0.00  0.00    +0.027 A 
ATOM     11  C   UNL     1      -2.868  -1.235   3.090  0.00  0.00    +0.036 A 
ATOM     12  N   UNL     1      -1.604  -0.642   3.168  0.00  0.00    -0.286 N 
ATOM     13  C   UNL     1      -0.974  -0.632   1.978  0.00  0.00    +0.212 C 
ATOM     14  O   UNL     1       0.128  -0.181   1.748  0.00  0.00    -0.277 OA
ATOM     15  H   UNL     1      -1.226  -0.279   3.984  0.00  0.00    +0.155 HD
ATOM     16  N   UNL     1      -1.289  -2.459   0.371  0.00  0.00    +0.391 N 
ATOM     17  H   UNL     1      -2.003  -3.177   0.203  0.00  0.00    -0.080 HD
ENDROOT
BRANCH   3  18
ATOM     18  C   UNL     1      -1.153  -0.046  -2.391  0.00  0.00    -0.043 A 
ATOM     19  C   UNL     1       0.214  -0.049  -2.596  0.00  0.00    +0.004 A 
ATOM     20  C   UNL     1       0.783   0.854  -3.474  0.00  0.00    +0.002 A 
ATOM     21  C   UNL     1      -0.013   1.768  -4.139  0.00  0.00    +0.033 A 
ATOM     22  C   UNL     1      -1.380   1.774  -3.930  0.00  0.00    +0.126 A 
ATOM     23  C   UNL     1      -1.950   0.868  -3.056  0.00  0.00    +0.036 A 
BRANCH  22  24
ATOM     24  N   UNL     1      -2.232   2.753  -4.642  0.00  0.00    +0.056 N 
ATOM     25  O   UNL     1      -3.436   2.759  -4.457  0.00  0.00    -0.126 OA
ATOM     26  O   UNL     1      -1.730   3.552  -5.412  0.00  0.00    -0.126 OA
ENDBRANCH  22  24
ENDBRANCH   3  18
BRANCH   8  27
ATOM     27  O   UNL     1      -6.448  -3.083   2.134  0.00  0.00    -0.495 OA
ATOM     28  C   UNL     1      -7.388  -3.263   3.195  0.00  0.00    +0.277 C 
ENDBRANCH   8  27
BRANCH   4  29
ATOM     29  C   UNL     1      -1.536   0.988   0.028  0.00  0.00    +0.166 C 
ATOM     30  O   UNL     1      -0.388   1.099  -0.332  0.00  0.00    -0.292 OA
BRANCH  29  31
ATOM     31  C   UNL     1      -2.231   2.135   0.641  0.00  0.00    +0.021 A 
ATOM     32  C   UNL     1      -3.564   2.031   1.060  0.00  0.00    +0.031 A 
ATOM     33  C   UNL     1      -4.173   3.129   1.634  0.00  0.00    +0.111 A 
ATOM     34  N   UNL     1      -3.522   4.266   1.779  0.00  0.00    -0.263 NA
ATOM     35  C   UNL     1      -2.269   4.410   1.394  0.00  0.00    +0.111 A 
ATOM     36  C   UNL     1      -1.579   3.363   0.816  0.00  0.00    +0.031 A 
ENDBRANCH  29  31
ENDBRANCH   4  29
TORSDOF 5
