REMARK  Name = ZINC19788080
REMARK  7 active torsions:
REMARK  status: ('A' for Active; 'I' for Inactive)
REMARK    1  A    between atoms: C_1  and  C_2
REMARK    2  A    between atoms: C_7  and  C_8
REMARK    3  A    between atoms: C_10  and  C_13
REMARK    4  A    between atoms: C_14  and  C_23
REMARK    5  A    between atoms: C_15  and  C_20
REMARK    6  A    between atoms: C_18  and  C_19
REMARK    7  A    between atoms: C_20  and  C_22
REMARK                            x       y       z     vdW  Elec       q    Type
REMARK                         _______ _______ _______ _____ _____    ______ ____
ROOT
ATOM      1  C   UNL     1       3.179   1.728   3.837  0.00  0.00    +0.204 A 
ATOM      2  N   UNL     1       1.865   1.988   4.001  0.00  0.00    -0.187 NA
ATOM      3  C   UNL     1       1.306   1.726   2.833  0.00  0.00    +0.261 A 
ATOM      4  O   UNL     1       2.288   1.316   2.015  0.00  0.00    -0.332 OA
ATOM      5  N   UNL     1       3.348   1.328   2.603  0.00  0.00    -0.056 NA
ENDROOT
BRANCH   3   6
ATOM      6  C   UNL     1      -0.126   1.853   2.496  0.00  0.00    +0.063 A 
ATOM      7  C   UNL     1      -0.718   1.572   1.248  0.00  0.00    -0.010 A 
ATOM      8  C   UNL     1      -2.067   1.833   1.378  0.00  0.00    +0.086 A 
ATOM      9  N   UNL     1      -2.297   2.252   2.671  0.00  0.00    -0.355 N 
ATOM     10  H   UNL     1      -3.317   2.508   2.993  0.00  0.00    +0.166 HD
ATOM     11  C   UNL     1      -1.134   2.269   3.344  0.00  0.00    +0.026 A 
ATOM     12  C   UNL     1      -0.958   2.676   4.784  0.00  0.00    +0.064 C 
ATOM     13  C   UNL     1      -0.013   1.086   0.008  0.00  0.00    +0.047 C 
BRANCH   8  14
ATOM     14  C   UNL     1      -3.042   1.691   0.363  0.00  0.00    +0.176 C 
ATOM     15  O   UNL     1      -2.717   1.309  -0.743  0.00  0.00    -0.291 OA
ATOM     16  C   UNL     1      -4.485   2.015   0.654  0.00  0.00    +0.093 C 
ENDBRANCH   8  14
ENDBRANCH   3   6
BRANCH   1  23
ATOM     17  C   UNL     1       5.958   1.085   3.191  0.00  0.00    +0.044 C 
ATOM     18  C   UNL     1       5.568   1.564   4.566  0.00  0.00    -0.037 A 
ATOM     19  C   UNL     1       6.518   1.712   5.562  0.00  0.00    +0.024 A 
ATOM     20  C   UNL     1       6.125   2.153   6.812  0.00  0.00    +0.111 A 
ATOM     21  N   UNL     1       4.861   2.433   7.068  0.00  0.00    -0.263 NA
ATOM     22  C   UNL     1       3.923   2.312   6.151  0.00  0.00    +0.122 A 
ATOM     23  C   UNL     1       4.238   1.869   4.868  0.00  0.00    +0.043 A 
ENDBRANCH   1  23
TORSDOF 3
