REMARK  Name = ZINC35966868
REMARK  11 active torsions:
REMARK  status: ('A' for Active; 'I' for Inactive)
REMARK    1  A    between atoms: C_1  and  C_2
REMARK    2  A    between atoms: C_2  and  N_3
REMARK    3  A    between atoms: C_9  and  C_11
REMARK    4  A    between atoms: C_11  and  C_13
REMARK    5  A    between atoms: C_11  and  N_17
REMARK    6  A    between atoms: C_13  and  C_14
REMARK    7  A    between atoms: C_14  and  C_15
REMARK    8  A    between atoms: C_14  and  C_16
REMARK    9  A    between atoms: C_23  and  C_30
REMARK   10  A    between atoms: N_28  and  C_29
REMARK   11  A    between atoms: C_35  and  C_36
REMARK                            x       y       z     vdW  Elec       q    Type
REMARK                         _______ _______ _______ _____ _____    ______ ____
ROOT
ATOM      1  N   UNL     1       0.875  -4.382   6.256  0.00  0.00    -0.281 N 
ATOM      2  C   UNL     1      -0.212  -5.278   5.835  0.00  0.00    +0.160 C 
ATOM      3  C   UNL     1      -0.471  -6.165   7.032  0.00  0.00    +0.042 C 
ATOM      4  C   UNL     1       0.396  -5.775   7.988  0.00  0.00    +0.058 C 
ATOM      5  C   UNL     1       1.199  -4.715   7.519  0.00  0.00    +0.247 C 
ATOM      6  O   UNL     1       2.070  -4.170   8.172  0.00  0.00    -0.270 OA
ATOM      7  C   UNL     1       0.356  -6.505   9.316  0.00  0.00    +0.142 C 
ATOM      8  N   UNL     1      -0.632  -7.588   9.452  0.00  0.00    -0.288 N 
ATOM      9  C   UNL     1      -1.432  -7.863   8.402  0.00  0.00    +0.307 C 
ATOM     10  O   UNL     1      -2.251  -8.755   8.505  0.00  0.00    -0.252 OA
ATOM     11  N   UNL     1      -1.354  -7.184   7.250  0.00  0.00    -0.260 N 
ATOM     12  C   UNL     1      -2.266  -7.554   6.165  0.00  0.00    +0.139 C 
ATOM     13  H   UNL     1      -0.705  -8.092  10.277  0.00  0.00    +0.151 HD
ENDROOT
BRANCH   7  14
ATOM     14  C   UNL     1       1.723  -7.089   9.565  0.00  0.00    -0.011 A 
ATOM     15  C   UNL     1       2.164  -8.161   8.813  0.00  0.00    +0.006 A 
ATOM     16  C   UNL     1       3.417  -8.697   9.041  0.00  0.00    +0.000 A 
ATOM     17  C   UNL     1       4.230  -8.161  10.023  0.00  0.00    +0.001 A 
ATOM     18  C   UNL     1       3.789  -7.088  10.775  0.00  0.00    +0.013 A 
ATOM     19  C   UNL     1       2.537  -6.549  10.543  0.00  0.00    +0.060 A 
BRANCH  19  20
ATOM     20  C   UNL     1       2.059  -5.376  11.359  0.00  0.00    +0.418 C 
ATOM     21  F   UNL     1       3.053  -5.007  12.272  0.00  0.00    -0.166 F 
ATOM     22  F   UNL     1       1.783  -4.299  10.510  0.00  0.00    -0.166 F 
ATOM     23  F   UNL     1       0.897  -5.733  12.052  0.00  0.00    -0.166 F 
ENDBRANCH  19  20
ENDBRANCH   7  14
BRANCH   1  24
ATOM     24  C   UNL     1       1.495  -3.328   5.449  0.00  0.00    +0.163 C 
BRANCH  24  31
ATOM     25  N   UNL     1       0.493   1.125   3.513  0.00  0.00    -0.300 NA
ATOM     26  C   UNL     1      -0.124   1.083   4.845  0.00  0.00    +0.103 C 
ATOM     27  C   UNL     1       0.851   0.436   5.835  0.00  0.00    +0.123 C 
ATOM     28  N   UNL     1       1.263  -0.870   5.300  0.00  0.00    -0.298 N 
ATOM     29  C   UNL     1       1.764  -0.929   3.918  0.00  0.00    +0.123 C 
ATOM     30  C   UNL     1       0.754  -0.228   3.003  0.00  0.00    +0.103 C 
ATOM     31  C   UNL     1       1.184  -1.984   6.055  0.00  0.00    +0.236 C 
ATOM     32  O   UNL     1       0.863  -1.904   7.221  0.00  0.00    -0.274 OA
BRANCH  25  34
ATOM     33  C   UNL     1      -0.380   3.356   3.008  0.00  0.00    +0.020 C 
ATOM     34  C   UNL     1      -0.336   1.890   2.572  0.00  0.00    +0.081 C 
ENDBRANCH  25  34
ENDBRANCH  24  31
BRANCH  24  35
ATOM     35  C   UNL     1       3.010  -3.535   5.417  0.00  0.00    +0.035 C 
BRANCH  35  36
ATOM     36  C   UNL     1       3.334  -4.813   4.641  0.00  0.00    -0.015 C 
ATOM     37  C   UNL     1       4.847  -4.913   4.432  0.00  0.00    +0.007 C 
ATOM     38  C   UNL     1       2.848  -6.028   5.434  0.00  0.00    +0.007 C 
ENDBRANCH  35  36
ENDBRANCH  24  35
ENDBRANCH   1  24
TORSDOF 7
