REMARK  Name = ZINC06108262
REMARK  7 active torsions:
REMARK  status: ('A' for Active; 'I' for Inactive)
REMARK    1  A    between atoms: C_1  and  C_2
REMARK    2  A    between atoms: C_2  and  C_4
REMARK    3  A    between atoms: C_9  and  N_10
REMARK    4  A    between atoms: C_11  and  C_13
REMARK    5  A    between atoms: C_13  and  N_14
REMARK    6  A    between atoms: C_17  and  C_21
REMARK    7  A    between atoms: C_17  and  C_22
REMARK                            x       y       z     vdW  Elec       q    Type
REMARK                         _______ _______ _______ _____ _____    ______ ____
ROOT
ATOM      1  N   UNL     1       1.936   4.615  -0.015  0.00  0.00    -0.215 N 
ATOM      2  C   UNL     1       2.694   4.920   1.057  0.00  0.00    +0.251 C 
ATOM      3  O   UNL     1       2.451   4.671   2.219  0.00  0.00    -0.272 OA
ATOM      4  C   UNL     1       3.912   5.635   0.509  0.00  0.00    +0.135 C 
ATOM      5  N   UNL     1       3.674   5.660  -0.945  0.00  0.00    -0.281 N 
ATOM      6  C   UNL     1       2.498   5.041  -1.152  0.00  0.00    +0.310 C 
ATOM      7  O   UNL     1       2.000   4.887  -2.251  0.00  0.00    -0.252 OA
ATOM      8  C   UNL     1       5.189   4.857   0.832  0.00  0.00    +0.047 C 
ATOM      9  H   UNL     1       4.253   6.046  -1.620  0.00  0.00    +0.152 HD
ENDROOT
BRANCH   4  10
ATOM     10  C   UNL     1       3.994   7.037   1.056  0.00  0.00    -0.015 A 
ATOM     11  C   UNL     1       3.571   7.302   2.346  0.00  0.00    +0.006 A 
ATOM     12  C   UNL     1       3.647   8.587   2.845  0.00  0.00    +0.004 A 
ATOM     13  C   UNL     1       4.146   9.612   2.059  0.00  0.00    -0.044 A 
ATOM     14  C   UNL     1       4.570   9.347   0.770  0.00  0.00    -0.044 A 
ATOM     15  C   UNL     1       4.498   8.056   0.273  0.00  0.00    +0.010 A 
ATOM     16  C   UNL     1       5.069  10.621   0.123  0.00  0.00    +0.036 C 
ATOM     17  C   UNL     1       4.502  11.764   0.992  0.00  0.00    +0.009 C 
ATOM     18  C   UNL     1       4.332  11.082   2.367  0.00  0.00    +0.036 C 
ENDBRANCH   4  10
BRANCH   1  19
ATOM     19  C   UNL     1       0.654   3.911   0.056  0.00  0.00    +0.214 C 
BRANCH  19  21
ATOM     20  N   UNL     1      -0.154   1.574  -0.009  0.00  0.00    -0.284 N 
ATOM     21  C   UNL     1       0.889   2.426  -0.051  0.00  0.00    +0.235 C 
ATOM     22  O   UNL     1       2.017   1.999  -0.175  0.00  0.00    -0.274 OA
ATOM     23  H   UNL     1      -1.061   1.917   0.004  0.00  0.00    +0.155 HD
BRANCH  20  29
ATOM     24  C   UNL     1      -0.916  -0.683  -0.463  0.00  0.00    +0.038 A 
ATOM     25  C   UNL     1      -0.674  -2.062  -0.442  0.00  0.00    +0.013 A 
ATOM     26  C   UNL     1       0.520  -2.542   0.048  0.00  0.00    +0.001 A 
ATOM     27  C   UNL     1       1.488  -1.667   0.517  0.00  0.00    +0.002 A 
ATOM     28  C   UNL     1       1.267  -0.305   0.499  0.00  0.00    +0.024 A 
ATOM     29  C   UNL     1       0.070   0.201   0.009  0.00  0.00    +0.044 A 
BRANCH  24  31
ATOM     30  C   UNL     1      -3.288  -1.116  -1.370  0.00  0.00    +0.091 C 
ATOM     31  C   UNL     1      -2.188  -0.163  -0.978  0.00  0.00    +0.162 C 
ATOM     32  O   UNL     1      -2.354   1.033  -1.088  0.00  0.00    -0.292 OA
ENDBRANCH  24  31
ENDBRANCH  20  29
ENDBRANCH  19  21
ENDBRANCH   1  19
TORSDOF 5
