REMARK  Name = ZINC36028875
REMARK  10 active torsions:
REMARK  status: ('A' for Active; 'I' for Inactive)
REMARK    1  A    between atoms: C_1  and  C_2
REMARK    2  A    between atoms: C_2  and  C_3
REMARK    3  A    between atoms: C_3  and  C_5
REMARK    4  A    between atoms: C_3  and  C_6
REMARK    5  A    between atoms: N_10  and  C_23
REMARK    6  A    between atoms: N_20  and  C_21
REMARK    7  A    between atoms: C_21  and  C_22
REMARK    8  A    between atoms: C_23  and  C_25
REMARK    9  A    between atoms: C_23  and  C_26
REMARK   10  A    between atoms: C_26  and  C_27
REMARK                            x       y       z     vdW  Elec       q    Type
REMARK                         _______ _______ _______ _____ _____    ______ ____
ROOT
ATOM      1  C   UNL     1       0.701  -1.916  -1.200  0.00  0.00    +0.022 C 
ATOM      2  C   UNL     1       1.306  -2.463   0.075  0.00  0.00    +0.201 C 
ATOM      3  O   UNL     1       0.855  -2.317   1.192  0.00  0.00    -0.277 OA
ATOM      4  N   UNL     1       2.429  -3.141  -0.240  0.00  0.00    -0.311 N 
ATOM      5  C   UNL     1       2.643  -3.087  -1.689  0.00  0.00    +0.006 C 
ATOM      6  N   UNL     1       1.350  -2.686  -2.289  0.00  0.00    +0.401 N 
ATOM      7  C   UNL     1       3.052  -4.461  -2.215  0.00  0.00    +0.025 C 
ATOM      8  C   UNL     1       4.371  -4.884  -1.560  0.00  0.00    +0.109 C 
ATOM      9  N   UNL     1       5.366  -3.825  -1.775  0.00  0.00    -0.286 N 
ATOM     10  C   UNL     1       5.036  -2.452  -1.370  0.00  0.00    +0.109 C 
ATOM     11  C   UNL     1       3.712  -2.049  -2.027  0.00  0.00    +0.025 C 
ATOM     12  C   UNL     1       6.560  -4.108  -2.333  0.00  0.00    +0.302 C 
ATOM     13  O   UNL     1       6.859  -5.261  -2.575  0.00  0.00    -0.253 OA
ATOM     14  N   UNL     1       7.421  -3.113  -2.622  0.00  0.00    -0.300 N 
ATOM     15  H   UNL     1       0.800  -3.498  -2.528  0.00  0.00    -0.082 HD
ATOM     16  H   UNL     1       7.217  -2.202  -2.357  0.00  0.00    +0.150 HD
ATOM     17  H   UNL     1       1.496  -2.103  -3.099  0.00  0.00    -0.082 HD
ENDROOT
BRANCH   1  18
ATOM     18  C   UNL     1       1.015  -0.425  -1.342  0.00  0.00    -0.020 C 
ATOM     19  C   UNL     1       0.405   0.338  -0.165  0.00  0.00    +0.006 C 
BRANCH  18  21
ATOM     20  C   UNL     1       0.841   1.556  -2.854  0.00  0.00    +0.004 C 
ATOM     21  C   UNL     1       0.422   0.098  -2.651  0.00  0.00    -0.001 C 
ENDBRANCH  18  21
ENDBRANCH   1  18
BRANCH  14  22
ATOM     22  C   UNL     1       8.666  -3.406  -3.336  0.00  0.00    +0.102 C 
ATOM     23  C   UNL     1       9.457  -2.112  -3.536  0.00  0.00    +0.024 C 
ENDBRANCH  14  22
BRANCH   4  24
ATOM     24  C   UNL     1       3.301  -3.825   0.718  0.00  0.00    +0.071 C 
ATOM     25  C   UNL     1       3.559  -2.909   1.917  0.00  0.00    +0.028 C 
BRANCH  24  26
ATOM     26  C   UNL     1       2.623  -5.111   1.196  0.00  0.00    +0.019 C 
ATOM     27  C   UNL     1       2.478  -6.078   0.019  0.00  0.00    +0.005 C 
ENDBRANCH  24  26
ENDBRANCH   4  24
TORSDOF 5
