REMARK  Name = ZINC40051559
REMARK  6 active torsions:
REMARK  status: ('A' for Active; 'I' for Inactive)
REMARK    1  A    between atoms: C_1  and  C_2
REMARK    2  A    between atoms: C_5  and  N_9
REMARK    3  A    between atoms: C_7  and  C_8
REMARK    4  A    between atoms: C_19  and  N_20
REMARK    5  A    between atoms: N_20  and  C_21
REMARK    6  A    between atoms: C_26  and  C_27
REMARK                            x       y       z     vdW  Elec       q    Type
REMARK                         _______ _______ _______ _____ _____    ______ ____
ROOT
ATOM      1  N   UNL     1      -0.047  -4.173  -0.014  0.00  0.00    -0.202 N 
ATOM      2  C   UNL     1       0.123  -4.816   1.153  0.00  0.00    +0.258 C 
ATOM      3  O   UNL     1       0.190  -4.176   2.185  0.00  0.00    -0.269 OA
ATOM      4  C   UNL     1       0.230  -6.280   1.204  0.00  0.00    +0.046 A 
ATOM      5  C   UNL     1       0.406  -6.955   2.412  0.00  0.00    +0.014 A 
ATOM      6  C   UNL     1       0.501  -8.330   2.418  0.00  0.00    +0.001 A 
ATOM      7  C   UNL     1       0.424  -9.050   1.235  0.00  0.00    +0.001 A 
ATOM      8  C   UNL     1       0.250  -8.403   0.029  0.00  0.00    +0.009 A 
ATOM      9  C   UNL     1       0.151  -7.016   0.003  0.00  0.00    +0.000 A 
ATOM     10  C   UNL     1      -0.036  -6.273  -1.260  0.00  0.00    +0.059 C 
ATOM     11  C   UNL     1      -0.120  -6.934  -2.466  0.00  0.00    +0.085 C 
ATOM     12  C   UNL     1      -0.135  -4.811  -1.192  0.00  0.00    +0.259 C 
ATOM     13  O   UNL     1      -0.295  -4.169  -2.214  0.00  0.00    -0.269 OA
ENDROOT
BRANCH   1  18
ATOM     14  C   UNL     1      -0.436   1.488   0.041  0.00  0.00    +0.044 C 
ATOM     15  C   UNL     1      -0.333  -0.015   0.026  0.00  0.00    -0.047 A 
ATOM     16  C   UNL     1       0.793  -0.635   0.538  0.00  0.00    +0.005 A 
ATOM     17  C   UNL     1       0.890  -2.012   0.526  0.00  0.00    +0.024 A 
ATOM     18  C   UNL     1      -0.143  -2.776   0.000  0.00  0.00    +0.045 A 
ATOM     19  C   UNL     1      -1.272  -2.151  -0.512  0.00  0.00    +0.027 A 
ATOM     20  C   UNL     1      -1.366  -0.773  -0.493  0.00  0.00    -0.046 A 
ATOM     21  C   UNL     1      -2.594  -0.094  -1.044  0.00  0.00    +0.044 C 
ENDBRANCH   1  18
BRANCH  11  22
ATOM     22  N   UNL     1      -0.129  -6.229  -3.629  0.00  0.00    -0.320 N 
ATOM     23  H   UNL     1       0.007  -5.269  -3.615  0.00  0.00    +0.152 HD
BRANCH  22  24
ATOM     24  C   UNL     1      -0.332  -6.888  -4.844  0.00  0.00    +0.037 A 
ATOM     25  C   UNL     1      -0.532  -8.263  -4.866  0.00  0.00    +0.023 A 
ATOM     26  C   UNL     1      -0.734  -8.911  -6.068  0.00  0.00    +0.002 A 
ATOM     27  C   UNL     1      -0.736  -8.193  -7.250  0.00  0.00    +0.000 A 
ATOM     28  C   UNL     1      -0.538  -6.825  -7.233  0.00  0.00    +0.008 A 
ATOM     29  C   UNL     1      -0.341  -6.170  -6.033  0.00  0.00    +0.006 A 
BRANCH  29  30
ATOM     30  C   UNL     1      -0.131  -4.678  -6.014  0.00  0.00    +0.214 C 
ATOM     31  C   UNL     1       1.361  -4.414  -5.927  0.00  0.00    +0.247 C 
ATOM     32  O   UNL     1       2.033  -4.842  -5.013  0.00  0.00    -0.273 OA
ATOM     33  N   UNL     1       1.902  -3.675  -6.925  0.00  0.00    -0.263 N 
ATOM     34  C   UNL     1       1.122  -3.221  -7.919  0.00  0.00    +0.178 C 
ATOM     35  N   UNL     1      -0.193  -3.449  -8.002  0.00  0.00    -0.123 NA
ATOM     36  N   UNL     1      -0.834  -4.104  -7.174  0.00  0.00    -0.299 N 
ATOM     37  S   UNL     1       1.856  -2.292  -9.156  0.00  0.00    -0.015 S 
ATOM     38  H   UNL     1      -1.788  -4.237  -7.286  0.00  0.00    +0.181 HD
ATOM     39  H   UNL     1       2.851  -3.475  -6.922  0.00  0.00    +0.157 HD
ENDBRANCH  29  30
ENDBRANCH  22  24
ENDBRANCH  11  22
TORSDOF 4
