REMARK  Name = ZINC66663780
REMARK  4 active torsions:
REMARK  status: ('A' for Active; 'I' for Inactive)
REMARK    1  A    between atoms: C_10  and  C_11
REMARK    2  A    between atoms: C_11  and  N_12
REMARK    3  A    between atoms: C_13  and  N_17
REMARK    4  A    between atoms: C_18  and  C_20
REMARK                            x       y       z     vdW  Elec       q    Type
REMARK                         _______ _______ _______ _____ _____    ______ ____
ROOT
ATOM      1  N   UNL     1       5.404   0.413   1.328  0.00  0.00    -0.246 N 
ATOM      2  C   UNL     1       5.030   1.459   2.109  0.00  0.00    +0.124 A 
ATOM      3  C   UNL     1       5.630   1.298   3.321  0.00  0.00    +0.065 A 
ATOM      4  C   UNL     1       6.387   0.125   3.272  0.00  0.00    +0.136 A 
ATOM      5  N   UNL     1       6.248  -0.408   2.086  0.00  0.00    -0.178 NA
ENDROOT
BRANCH   2   6
ATOM      6  N   UNL     1       4.187   2.505   1.739  0.00  0.00    -0.265 N 
ATOM      7  C   UNL     1       3.994   3.543   2.576  0.00  0.00    +0.270 C 
ATOM      8  O   UNL     1       4.555   3.567   3.655  0.00  0.00    -0.268 OA
ATOM      9  H   UNL     1       3.740   2.486   0.878  0.00  0.00    +0.157 HD
BRANCH   7  10
ATOM     10  C   UNL     1       3.101   4.651   2.184  0.00  0.00    +0.154 A 
ATOM     11  C   UNL     1       2.889   5.792   3.089  0.00  0.00    +0.020 A 
ATOM     12  C   UNL     1       3.500   5.890   4.334  0.00  0.00    +0.011 A 
ATOM     13  C   UNL     1       3.250   6.991   5.126  0.00  0.00    +0.001 A 
ATOM     14  C   UNL     1       2.397   7.999   4.694  0.00  0.00    +0.001 A 
ATOM     15  C   UNL     1       1.782   7.921   3.463  0.00  0.00    +0.014 A 
ATOM     16  C   UNL     1       2.021   6.819   2.649  0.00  0.00    +0.050 A 
ATOM     17  C   UNL     1       1.406   6.656   1.324  0.00  0.00    +0.272 A 
ATOM     18  O   UNL     1       0.649   7.500   0.881  0.00  0.00    -0.266 OA
ATOM     19  N   UNL     1       1.700   5.550   0.611  0.00  0.00    -0.242 N 
ATOM     20  H   UNL     1       1.293   5.446  -0.264  0.00  0.00    +0.192 HD
ATOM     21  N   UNL     1       2.493   4.633   1.022  0.00  0.00    -0.166 NA
ENDBRANCH   7  10
ENDBRANCH   2   6
BRANCH   1  22
ATOM     22  C   UNL     1       4.992   0.182  -0.059  0.00  0.00    +0.181 C 
BRANCH  22  32
ATOM     23  C   UNL     1       9.421  -1.474  -2.022  0.00  0.00    +0.001 A 
ATOM     24  C   UNL     1       8.470  -2.011  -1.157  0.00  0.00    +0.001 A 
ATOM     25  C   UNL     1       7.359  -1.305  -0.809  0.00  0.00    +0.009 A 
ATOM     26  C   UNL     1       7.166  -0.014  -1.329  0.00  0.00    -0.013 A 
ATOM     27  C   UNL     1       8.133   0.533  -2.208  0.00  0.00    -0.018 A 
ATOM     28  C   UNL     1       9.267  -0.226  -2.545  0.00  0.00    +0.008 A 
ATOM     29  C   UNL     1       7.940   1.825  -2.728  0.00  0.00    +0.008 A 
ATOM     30  C   UNL     1       6.830   2.531  -2.380  0.00  0.00    +0.001 A 
ATOM     31  C   UNL     1       5.879   1.994  -1.515  0.00  0.00    +0.006 A 
ATOM     32  C   UNL     1       6.032   0.746  -0.993  0.00  0.00    -0.018 A 
ENDBRANCH  22  32
ENDBRANCH   1  22
TORSDOF 4
