REMARK  Name = ZINC40985541
REMARK  8 active torsions:
REMARK  status: ('A' for Active; 'I' for Inactive)
REMARK    1  A    between atoms: C_1  and  C_2
REMARK    2  A    between atoms: C_2  and  S_3
REMARK    3  A    between atoms: S_3  and  C_4
REMARK    4  A    between atoms: C_7  and  C_11
REMARK    5  A    between atoms: N_13  and  C_14
REMARK    6  A    between atoms: C_14  and  C_15
REMARK    7  A    between atoms: C_15  and  C_17
REMARK    8  A    between atoms: C_15  and  N_24
REMARK                            x       y       z     vdW  Elec       q    Type
REMARK                         _______ _______ _______ _____ _____    ______ ____
ROOT
ATOM      1  C   UNL     1      -0.681  -9.001  -1.520  0.00  0.00    -0.019 C 
ENDROOT
BRANCH   1   2
ATOM      2  N   UNL     1      -2.000  -8.365  -1.638  0.00  0.00    +0.385 N 
ATOM      3  C   UNL     1      -2.733  -8.997  -2.752  0.00  0.00    -0.078 C 
ATOM      4  C   UNL     1      -4.210  -8.816  -2.510  0.00  0.00    -0.019 C 
ATOM      5  C   UNL     1      -4.759  -7.591  -3.266  0.00  0.00    -0.002 C 
ATOM      6  C   UNL     1      -3.785  -6.396  -3.203  0.00  0.00    -0.002 C 
ATOM      7  C   UNL     1      -3.165  -6.232  -1.839  0.00  0.00    -0.019 C 
ATOM      8  C   UNL     1      -1.821  -6.990  -1.802  0.00  0.00    -0.078 C 
ATOM      9  H   UNL     1      -2.513  -8.524  -0.783  0.00  0.00    -0.081 HD
ENDBRANCH   1   2
BRANCH   1  10
ATOM     10  C   UNL     1      -0.856 -10.463  -1.202  0.00  0.00    -0.041 A 
ATOM     11  C   UNL     1      -2.049 -10.918  -0.672  0.00  0.00    +0.003 A 
ATOM     12  C   UNL     1      -2.209 -12.260  -0.380  0.00  0.00    +0.000 A 
ATOM     13  C   UNL     1      -1.175 -13.148  -0.617  0.00  0.00    +0.001 A 
ATOM     14  C   UNL     1       0.018 -12.694  -1.147  0.00  0.00    +0.020 A 
ATOM     15  C   UNL     1       0.177 -11.352  -1.444  0.00  0.00    +0.043 A 
ATOM     16 CL   UNL     1       1.673 -10.783  -2.115  0.00  0.00    -0.083 Cl
ENDBRANCH   1  10
BRANCH   1  17
ATOM     17  C   UNL     1       0.112  -8.326  -0.399  0.00  0.00    +0.094 C 
BRANCH  17  20
ATOM     18  C   UNL     1      -0.135  -7.893   1.986  0.00  0.00    +0.248 C 
ATOM     19  O   UNL     1       1.004  -7.468   1.997  0.00  0.00    -0.270 OA
ATOM     20  N   UNL     1      -0.674  -8.346   0.836  0.00  0.00    -0.312 N 
ATOM     21  H   UNL     1      -1.583  -8.684   0.827  0.00  0.00    +0.149 HD
BRANCH  18  25
ATOM     22  C   UNL     1      -2.368  -7.950   5.493  0.00  0.00    +0.190 A 
ATOM     23  N   UNL     1      -2.917  -8.400   4.370  0.00  0.00    -0.229 NA
ATOM     24  C   UNL     1      -2.242  -8.398   3.237  0.00  0.00    +0.129 A 
ATOM     25  C   UNL     1      -0.927  -7.913   3.229  0.00  0.00    +0.092 A 
ATOM     26  C   UNL     1      -0.384  -7.447   4.436  0.00  0.00    +0.146 A 
ATOM     27  N   UNL     1      -1.128  -7.477   5.527  0.00  0.00    -0.209 NA
ATOM     28 CL   UNL     1       1.239  -6.833   4.494  0.00  0.00    -0.061 Cl
BRANCH  22  29
ATOM     29  S   UNL     1      -3.315  -7.975   6.978  0.00  0.00    -0.086 S 
BRANCH  29  31
ATOM     30  C   UNL     1      -5.837  -8.764   7.683  0.00  0.00    +0.016 C 
ATOM     31  C   UNL     1      -4.906  -8.685   6.472  0.00  0.00    +0.074 C 
ENDBRANCH  29  31
ENDBRANCH  22  29
ENDBRANCH  18  25
ENDBRANCH  17  20
ENDBRANCH   1  17
TORSDOF 7
