REMARK  Name = ZINC09433504
REMARK  11 active torsions:
REMARK  status: ('A' for Active; 'I' for Inactive)
REMARK    1  A    between atoms: C_1  and  C_2
REMARK    2  A    between atoms: C_2  and  N_74
REMARK    3  A    between atoms: C_3  and  C_4
REMARK    4  A    between atoms: C_3  and  N_74
REMARK    5  A    between atoms: C_4  and  C_5
REMARK    6  A    between atoms: C_5  and  N_6
REMARK    7  A    between atoms: C_7  and  C_9
REMARK    8  A    between atoms: N_19  and  C_27
REMARK    9  A    between atoms: C_20  and  C_22
REMARK   10  A    between atoms: C_32  and  C_33
REMARK   11  A    between atoms: C_32  and  N_74
REMARK                            x       y       z     vdW  Elec       q    Type
REMARK                         _______ _______ _______ _____ _____    ______ ____
ROOT
ATOM      1  C   UNL     1      -1.124  -6.749   6.206  0.00  0.00    +0.131 C 
ATOM      2  C   UNL     1       0.028  -6.307   7.069  0.00  0.00    -0.021 A 
ATOM      3  C   UNL     1       0.711  -5.144   6.788  0.00  0.00    +0.005 A 
ATOM      4  C   UNL     1       1.761  -4.745   7.598  0.00  0.00    +0.000 A 
ATOM      5  C   UNL     1       2.130  -5.508   8.692  0.00  0.00    +0.001 A 
ATOM      6  C   UNL     1       1.456  -6.678   8.982  0.00  0.00    +0.013 A 
ATOM      7  C   UNL     1       0.403  -7.086   8.165  0.00  0.00    +0.041 A 
ATOM      8  C   UNL     1      -0.325  -8.343   8.436  0.00  0.00    +0.248 C 
ATOM      9  O   UNL     1      -0.189  -8.915   9.501  0.00  0.00    -0.270 OA
ATOM     10  N   UNL     1      -1.141  -8.849   7.491  0.00  0.00    -0.286 N 
ATOM     11  C   UNL     1      -1.181  -8.274   6.149  0.00  0.00    +0.130 C 
ENDROOT
BRANCH  11  12
ATOM     12  C   UNL     1      -0.007  -8.783   5.354  0.00  0.00    +0.011 A 
ATOM     13  C   UNL     1       0.036  -9.196   4.063  0.00  0.00    +0.013 A 
ATOM     14  C   UNL     1       1.239  -9.624   3.536  0.00  0.00    +0.008 A 
ATOM     15  C   UNL     1       2.340  -9.629   4.327  0.00  0.00    +0.045 A 
ATOM     16  S   UNL     1       1.688  -9.008   5.869  0.00  0.00    -0.100 S 
ENDBRANCH  11  12
BRANCH  10  17
ATOM     17  C   UNL     1      -1.996  -9.994   7.814  0.00  0.00    +0.077 C 
ATOM     18  C   UNL     1      -2.914  -9.649   9.005  0.00  0.00    +0.022 C 
ATOM     19  C   UNL     1      -2.994 -10.967   9.816  0.00  0.00    +0.002 C 
ATOM     20  C   UNL     1      -1.556 -11.529   9.698  0.00  0.00    +0.002 C 
ATOM     21  C   UNL     1      -1.133 -11.189   8.254  0.00  0.00    +0.022 C 
ENDBRANCH  10  17
BRANCH   1  23
ATOM     22  N   UNL     1      -2.015  -5.811   4.097  0.00  0.00    -0.315 N 
ATOM     23  C   UNL     1      -0.942  -6.204   4.813  0.00  0.00    +0.223 C 
ATOM     24  O   UNL     1       0.169  -6.119   4.335  0.00  0.00    -0.275 OA
ATOM     25  H   UNL     1      -2.909  -5.947   4.449  0.00  0.00    +0.149 HD
BRANCH  22  26
ATOM     26  C   UNL     1      -1.831  -5.179   2.789  0.00  0.00    +0.102 C 
BRANCH  26  27
ATOM     27  C   UNL     1      -3.197  -4.833   2.193  0.00  0.00    +0.000 C 
BRANCH  27  28
ATOM     28  C   UNL     1      -3.005  -4.172   0.826  0.00  0.00    -0.077 C 
BRANCH  28  29
ATOM     29  N   UNL     1      -4.333  -3.864   0.255  0.00  0.00    +0.382 N 
ATOM     30  H   UNL     1      -4.912  -4.711   0.282  0.00  0.00    -0.081 HD
BRANCH  29  32
ATOM     31  C   UNL     1      -6.492  -2.833   0.753  0.00  0.00    -0.017 C 
ATOM     32  C   UNL     1      -4.991  -2.806   1.050  0.00  0.00    -0.082 C 
ENDBRANCH  29  32
BRANCH  29  33
ATOM     33  C   UNL     1      -4.189  -3.424  -1.149  0.00  0.00    -0.043 C 
BRANCH  33  34
ATOM     34  C   UNL     1      -3.959  -4.637  -2.013  0.00  0.00    -0.064 A 
ATOM     35  C   UNL     1      -2.673  -5.000  -2.367  0.00  0.00    +0.002 A 
ATOM     36  C   UNL     1      -2.462  -6.115  -3.156  0.00  0.00    +0.000 A 
ATOM     37  C   UNL     1      -3.538  -6.862  -3.600  0.00  0.00    +0.000 A 
ATOM     38  C   UNL     1      -4.824  -6.496  -3.250  0.00  0.00    +0.000 A 
ATOM     39  C   UNL     1      -5.035  -5.383  -2.457  0.00  0.00    +0.002 A 
ENDBRANCH  33  34
ENDBRANCH  29  33
ENDBRANCH  28  29
ENDBRANCH  27  28
ENDBRANCH  26  27
ENDBRANCH  22  26
ENDBRANCH   1  23
TORSDOF 10
