REMARK  Name = ZINC36610318
REMARK  12 active torsions:
REMARK  status: ('A' for Active; 'I' for Inactive)
REMARK    1  A    between atoms: C_1  and  C_2
REMARK    2  A    between atoms: C_2  and  C_3
REMARK    3  A    between atoms: C_3  and  C_4
REMARK    4  A    between atoms: C_4  and  N_5
REMARK    5  A    between atoms: C_6  and  C_8
REMARK    6  A    between atoms: C_8  and  C_10
REMARK    7  A    between atoms: C_8  and  N_17
REMARK    8  A    between atoms: C_15  and  C_16
REMARK    9  A    between atoms: N_17  and  C_18
REMARK   10  A    between atoms: C_24  and  C_26
REMARK   11  A    between atoms: C_30  and  O_33
REMARK   12  A    between atoms: C_31  and  O_32
REMARK                            x       y       z     vdW  Elec       q    Type
REMARK                         _______ _______ _______ _____ _____    ______ ____
ROOT
ATOM      1  N   UNL     1       1.304  -5.698  -3.851  0.00  0.00    -0.251 N 
ATOM      2  C   UNL     1       1.283  -6.314  -5.050  0.00  0.00    +0.255 C 
ATOM      3  O   UNL     1       1.389  -5.661  -6.071  0.00  0.00    -0.269 OA
ENDROOT
BRANCH   1   4
ATOM      4  C   UNL     1       1.306  -6.456  -2.676  0.00  0.00    +0.038 A 
ATOM      5  C   UNL     1       2.326  -6.296  -1.747  0.00  0.00    +0.023 A 
ATOM      6  C   UNL     1       2.326  -7.046  -0.587  0.00  0.00    +0.002 A 
ATOM      7  C   UNL     1       1.312  -7.956  -0.351  0.00  0.00    +0.000 A 
ATOM      8  C   UNL     1       0.295  -8.118  -1.274  0.00  0.00    +0.002 A 
ATOM      9  C   UNL     1       0.286  -7.367  -2.433  0.00  0.00    +0.023 A 
ENDBRANCH   1   4
BRANCH   2  10
ATOM     10  C   UNL     1       1.131  -7.779  -5.124  0.00  0.00    +0.082 A 
ATOM     11  C   UNL     1       1.694  -8.595  -4.138  0.00  0.00    +0.017 A 
ATOM     12  C   UNL     1       1.550  -9.963  -4.210  0.00  0.00    +0.005 A 
ATOM     13  C   UNL     1       0.849 -10.538  -5.258  0.00  0.00    +0.049 A 
ATOM     14  C   UNL     1       0.286  -9.744  -6.242  0.00  0.00    +0.159 A 
ATOM     15  C   UNL     1       0.418  -8.360  -6.179  0.00  0.00    +0.171 A 
BRANCH  15  16
ATOM     16  O   UNL     1      -0.138  -7.578  -7.140  0.00  0.00    -0.503 OA
ATOM     17  H   UNL     1       0.445  -7.404  -7.891  0.00  0.00    +0.292 HD
ENDBRANCH  15  16
BRANCH  14  18
ATOM     18  O   UNL     1      -0.400 -10.316  -7.268  0.00  0.00    -0.503 OA
ATOM     19  H   UNL     1      -1.345 -10.429  -7.094  0.00  0.00    +0.292 HD
ENDBRANCH  14  18
ENDBRANCH   2  10
BRANCH   1  20
ATOM     20  C   UNL     1       1.324  -4.235  -3.779  0.00  0.00    +0.198 C 
BRANCH  20  21
ATOM     21  C   UNL     1       2.493  -3.789  -2.940  0.00  0.00    -0.015 A 
ATOM     22  C   UNL     1       2.290  -3.373  -1.637  0.00  0.00    +0.006 A 
ATOM     23  C   UNL     1       3.363  -2.964  -0.867  0.00  0.00    +0.000 A 
ATOM     24  C   UNL     1       4.639  -2.972  -1.399  0.00  0.00    +0.000 A 
ATOM     25  C   UNL     1       4.842  -3.389  -2.701  0.00  0.00    +0.004 A 
ATOM     26  C   UNL     1       3.769  -3.802  -3.470  0.00  0.00    -0.045 A 
ATOM     27  C   UNL     1       3.992  -4.262  -4.888  0.00  0.00    +0.044 C 
ENDBRANCH  20  21
BRANCH  20  29
ATOM     28  N   UNL     1      -0.235  -2.426  -3.132  0.00  0.00    -0.313 N 
ATOM     29  C   UNL     1       0.042  -3.745  -3.156  0.00  0.00    +0.238 C 
ATOM     30  O   UNL     1      -0.740  -4.538  -2.676  0.00  0.00    -0.273 OA
ATOM     31  H   UNL     1       0.422  -1.787  -3.450  0.00  0.00    +0.149 HD
BRANCH  28  32
ATOM     32  C   UNL     1      -1.527  -1.958  -2.626  0.00  0.00    +0.104 C 
BRANCH  32  33
ATOM     33  C   UNL     1      -1.585  -0.432  -2.708  0.00  0.00    +0.018 C 
BRANCH  33  35
ATOM     34  C   UNL     1      -2.992   1.584  -2.262  0.00  0.00    +0.004 C 
ATOM     35  C   UNL     1      -2.935   0.057  -2.180  0.00  0.00    -0.002 C 
ENDBRANCH  33  35
ENDBRANCH  32  33
ENDBRANCH  28  32
ENDBRANCH  20  29
ENDBRANCH   1  20
TORSDOF 10
