REMARK  Name = ZINC05093112
REMARK  3 active torsions:
REMARK  status: ('A' for Active; 'I' for Inactive)
REMARK    1  A    between atoms: C_1  and  C_2
REMARK    2  A    between atoms: C_2  and  N_51
REMARK    3  A    between atoms: C_12  and  C_14
REMARK                            x       y       z     vdW  Elec       q    Type
REMARK                         _______ _______ _______ _____ _____    ______ ____
ROOT
ATOM      1  C   UNL     1       1.935   0.267  -1.429  0.00  0.00    -0.073 C 
ATOM      2  C   UNL     1       2.545  -0.147  -2.772  0.00  0.00    +0.052 C 
ATOM      3  C   UNL     1       2.813  -1.651  -2.764  0.00  0.00    +0.189 C 
ATOM      4  C   UNL     1       1.518  -2.406  -2.470  0.00  0.00    +0.052 C 
ATOM      5  C   UNL     1       0.939  -1.923  -1.138  0.00  0.00    -0.073 C 
ATOM      6  N   UNL     1       3.822  -1.974  -1.751  0.00  0.00    -0.207 N 
ATOM      7  C   UNL     1       5.205  -1.458  -1.871  0.00  0.00    +0.136 C 
ATOM      8  C   UNL     1       5.984  -2.345  -0.890  0.00  0.00    +0.086 C 
ATOM      9  C   UNL     1       4.896  -3.060  -0.114  0.00  0.00    +0.070 C 
ATOM     10  N   UNL     1       3.745  -2.789  -0.636  0.00  0.00    -0.185 NA
ATOM     11  C   UNL     1       5.624  -1.691  -3.299  0.00  0.00    +0.017 A 
ATOM     12  C   UNL     1       6.967  -1.646  -3.625  0.00  0.00    +0.009 A 
ATOM     13  C   UNL     1       7.375  -1.839  -4.931  0.00  0.00    +0.001 A 
ATOM     14  C   UNL     1       6.433  -2.074  -5.915  0.00  0.00    +0.004 A 
ATOM     15  C   UNL     1       5.094  -2.128  -5.593  0.00  0.00    +0.046 A 
ATOM     16  C   UNL     1       4.673  -1.945  -4.276  0.00  0.00    +0.128 A 
ATOM     17  O   UNL     1       3.344  -2.061  -4.024  0.00  0.00    -0.467 OA
ATOM     18  N   UNL     1       0.671  -0.472  -1.230  0.00  0.00    +0.380 N 
ATOM     19  H   UNL     1       0.053  -0.298  -2.031  0.00  0.00    -0.082 HD
ENDROOT
BRANCH   9  20
ATOM     20  C   UNL     1       5.117  -3.929   1.057  0.00  0.00    +0.016 A 
ATOM     21  C   UNL     1       6.412  -4.154   1.530  0.00  0.00    +0.011 A 
ATOM     22  C   UNL     1       6.610  -4.965   2.628  0.00  0.00    +0.001 A 
ATOM     23  C   UNL     1       5.532  -5.564   3.255  0.00  0.00    +0.001 A 
ATOM     24  C   UNL     1       4.247  -5.350   2.790  0.00  0.00    +0.020 A 
ATOM     25  C   UNL     1       4.032  -4.537   1.695  0.00  0.00    +0.050 A 
ATOM     26 CL   UNL     1       2.419  -4.271   1.111  0.00  0.00    -0.083 Cl
ENDBRANCH   9  20
BRANCH  18  28
ATOM     27  C   UNL     1      -0.019   1.526   0.010  0.00  0.00    -0.017 C 
ATOM     28  C   UNL     1       0.002  -0.004   0.002  0.00  0.00    -0.082 C 
ENDBRANCH  18  28
TORSDOF 2
