REMARK  Name = ZINC63271218
REMARK  4 active torsions:
REMARK  status: ('A' for Active; 'I' for Inactive)
REMARK    1  A    between atoms: N_17  and  C_18
REMARK    2  A    between atoms: C_18  and  C_19
REMARK    3  A    between atoms: C_19  and  C_20
REMARK    4  A    between atoms: N_22  and  C_23
REMARK                            x       y       z     vdW  Elec       q    Type
REMARK                         _______ _______ _______ _____ _____    ______ ____
ROOT
ATOM      1  C   UNL     1      -0.012   1.344  -0.079  0.00  0.00    +0.001 A 
ATOM      2  C   UNL     1       1.171   2.095  -0.099  0.00  0.00    +0.002 A 
ATOM      3  C   UNL     1       2.394   1.525  -0.124  0.00  0.00    +0.026 A 
ATOM      4  C   UNL     1       2.530   0.110  -0.130  0.00  0.00    +0.043 A 
ATOM      5  N   UNL     1       3.591  -0.665  -0.132  0.00  0.00    -0.376 N 
ATOM      6  C   UNL     1       3.151  -2.055  -0.215  0.00  0.00    +0.124 C 
ATOM      7  C   UNL     1       3.676  -2.892   0.957  0.00  0.00    +0.138 C 
ATOM      8  N   UNL     1       2.880  -4.128   1.022  0.00  0.00    -0.283 N 
ATOM      9  C   UNL     1       1.428  -4.071   1.222  0.00  0.00    +0.114 C 
ATOM     10  C   UNL     1       0.790  -3.243   0.091  0.00  0.00    +0.052 C 
ATOM     11  C   UNL     1       1.636  -2.005  -0.101  0.00  0.00    -0.036 C 
ATOM     12  C   UNL     1       1.294  -0.709  -0.102  0.00  0.00    -0.001 A 
ATOM     13  C   UNL     1       0.003  -0.008  -0.079  0.00  0.00    +0.010 A 
ATOM     14  C   UNL     1       3.490  -5.323   0.896  0.00  0.00    +0.302 C 
ATOM     15  O   UNL     1       4.675  -5.375   0.628  0.00  0.00    -0.253 OA
ATOM     16  N   UNL     1       2.787  -6.460   1.067  0.00  0.00    -0.299 N 
ATOM     17  H   UNL     1       1.829  -6.421   1.209  0.00  0.00    +0.150 HD
ATOM     18  H   UNL     1       4.513  -0.364  -0.086  0.00  0.00    +0.160 HD
ENDROOT
BRANCH  16  19
ATOM     19  C   UNL     1       3.471  -7.755   1.040  0.00  0.00    +0.115 C 
BRANCH  19  20
ATOM     20  C   UNL     1       2.452  -8.875   1.258  0.00  0.00    +0.115 C 
BRANCH  20  21
ATOM     21  C   UNL     1       3.155 -10.207   1.229  0.00  0.00    +0.219 C 
ATOM     22  O   UNL     1       4.354 -10.257   1.052  0.00  0.00    -0.275 OA
ATOM     23  N   UNL     1       2.452 -11.344   1.401  0.00  0.00    -0.285 N 
ATOM     24  H   UNL     1       1.485 -11.311   1.470  0.00  0.00    +0.155 HD
BRANCH  23  25
ATOM     25  C   UNL     1       3.111 -12.563   1.477  0.00  0.00    +0.033 C 
ATOM     26  C   UNL     1       2.975 -13.353   2.598  0.00  0.00    +0.029 C 
ATOM     27  C   UNL     1       3.729 -14.531   2.589  0.00  0.00    -0.016 C 
ATOM     28  C   UNL     1       3.532 -15.749   3.134  0.00  0.00    +0.025 C 
ATOM     29  C   UNL     1       4.456 -16.660   2.587  0.00  0.00    +0.106 C 
ATOM     30  N   UNL     1       5.307 -16.078   1.786  0.00  0.00    -0.279 NA
ATOM     31  C   UNL     1       5.038 -14.648   1.825  0.00  0.00    +0.158 C 
ATOM     32  C   UNL     1       4.845 -14.000   0.487  0.00  0.00    +0.006 C 
ATOM     33  C   UNL     1       3.949 -13.015   0.363  0.00  0.00    +0.021 C 
ENDBRANCH  23  25
ENDBRANCH  20  21
ENDBRANCH  19  20
ENDBRANCH  16  19
TORSDOF 4
