REMARK  Name = ZINC64566627
REMARK  9 active torsions:
REMARK  status: ('A' for Active; 'I' for Inactive)
REMARK    1  A    between atoms: C_1  and  C_2
REMARK    2  A    between atoms: C_5  and  C_8
REMARK    3  A    between atoms: C_11  and  C_13
REMARK    4  A    between atoms: N_16  and  C_18
REMARK    5  A    between atoms: N_21  and  S_23
REMARK    6  A    between atoms: S_23  and  C_26
REMARK    7  A    between atoms: C_27  and  C_33
REMARK    8  A    between atoms: N_29  and  C_32
REMARK    9  A    between atoms: C_30  and  C_31
REMARK                            x       y       z     vdW  Elec       q    Type
REMARK                         _______ _______ _______ _____ _____    ______ ____
ROOT
ATOM      1  C   UNL     1       0.104  -7.552   1.409  0.00  0.00    +0.153 A 
ATOM      2  C   UNL     1       0.128  -8.868   0.920  0.00  0.00    +0.022 A 
ATOM      3  C   UNL     1       0.141  -9.711   1.981  0.00  0.00    +0.045 A 
ATOM      4  N   UNL     1       0.121  -8.966   3.102  0.00  0.00    -0.270 N 
ATOM      5  N   UNL     1       0.105  -7.614   2.729  0.00  0.00    -0.166 NA
ATOM      6  C   UNL     1       0.120  -9.479   4.474  0.00  0.00    +0.172 C 
ATOM      7  C   UNL     1       0.178 -11.215   1.875  0.00  0.00    +0.072 C 
ATOM      8  C   UNL     1      -0.254 -11.622   0.461  0.00  0.00    +0.116 C 
ATOM      9  N   UNL     1       0.433 -10.768  -0.519  0.00  0.00    -0.172 NA
ATOM     10  C   UNL     1       0.135  -9.324  -0.519  0.00  0.00    +0.148 C 
ENDROOT
BRANCH   1  14
ATOM     11  C   UNL     1       0.061  -4.250  -0.021  0.00  0.00    +0.249 A 
ATOM     12  N   UNL     1       0.071  -5.022  -1.084  0.00  0.00    -0.107 NA
ATOM     13  N   UNL     1       0.088  -6.255  -0.718  0.00  0.00    -0.105 NA
ATOM     14  C   UNL     1       0.088  -6.320   0.595  0.00  0.00    +0.269 A 
ATOM     15  O   UNL     1       0.077  -5.054   1.062  0.00  0.00    -0.414 OA
BRANCH  11  20
ATOM     16  C   UNL     1      -0.018   1.503   0.010  0.00  0.00    +0.044 C 
ATOM     17  C   UNL     1       0.002  -0.004   0.002  0.00  0.00    -0.050 A 
ATOM     18  C   UNL     1       0.006  -0.686  -1.202  0.00  0.00    +0.004 A 
ATOM     19  C   UNL     1       0.025  -2.065  -1.217  0.00  0.00    +0.013 A 
ATOM     20  C   UNL     1       0.041  -2.773  -0.013  0.00  0.00    +0.039 A 
ATOM     21  C   UNL     1       0.037  -2.079   1.198  0.00  0.00    +0.013 A 
ATOM     22  C   UNL     1       0.023  -0.699   1.198  0.00  0.00    +0.004 A 
ENDBRANCH  11  20
ENDBRANCH   1  14
BRANCH   9  23
ATOM     23  S   UNL     1       1.515 -11.411  -1.595  0.00  0.00    +0.065 S 
ATOM     24  O   UNL     1       2.381 -10.353  -1.982  0.00  0.00    -0.153 OA
ATOM     25  O   UNL     1       1.996 -12.616  -1.016  0.00  0.00    -0.153 OA
BRANCH  23  26
ATOM     26  C   UNL     1       0.607 -11.871  -3.034  0.00  0.00    +0.148 A 
ATOM     27  C   UNL     1       0.004 -13.111  -3.265  0.00  0.00    +0.086 A 
ATOM     28  N   UNL     1      -0.574 -13.072  -4.438  0.00  0.00    -0.174 NA
ATOM     29  N   UNL     1      -0.357 -11.804  -4.991  0.00  0.00    -0.269 N 
ATOM     30  C   UNL     1       0.366 -11.084  -4.108  0.00  0.00    +0.062 A 
ATOM     31  C   UNL     1       0.826  -9.660  -4.288  0.00  0.00    +0.067 C 
ATOM     32  C   UNL     1      -0.834 -11.340  -6.296  0.00  0.00    +0.172 C 
ATOM     33  C   UNL     1       0.017 -14.289  -2.324  0.00  0.00    +0.069 C 
ENDBRANCH  23  26
ENDBRANCH   9  23
TORSDOF 4
