REMARK  Name = ZINC48520847
REMARK  6 active torsions:
REMARK  status: ('A' for Active; 'I' for Inactive)
REMARK    1  A    between atoms: C_1  and  N_2
REMARK    2  A    between atoms: N_2  and  C_3
REMARK    3  A    between atoms: N_6  and  C_24
REMARK    4  A    between atoms: C_8  and  C_17
REMARK    5  A    between atoms: N_15  and  C_16
REMARK    6  A    between atoms: C_17  and  C_18
REMARK                            x       y       z     vdW  Elec       q    Type
REMARK                         _______ _______ _______ _____ _____    ______ ____
ROOT
ATOM      1  C   UNL     1       0.690  -0.478  -1.207  0.00  0.00    +0.089 C 
ATOM      2  C   UNL     1      -0.266  -0.371  -2.299  0.00  0.00    +0.223 C 
ATOM      3  O   UNL     1      -0.232   0.416  -3.221  0.00  0.00    -0.275 OA
ATOM      4  N   UNL     1      -1.216  -1.342  -2.077  0.00  0.00    -0.297 N 
ATOM      5  C   UNL     1      -0.793  -2.199  -0.929  0.00  0.00    +0.120 C 
ATOM      6  C   UNL     1       0.737  -2.054  -0.987  0.00  0.00    +0.031 C 
ATOM      7  C   UNL     1       1.528  -2.009   0.290  0.00  0.00    -0.018 A 
ATOM      8  C   UNL     1       1.575  -2.781   1.425  0.00  0.00    +0.006 A 
ATOM      9  C   UNL     1       2.471  -2.481   2.436  0.00  0.00    +0.000 A 
ATOM     10  C   UNL     1       3.323  -1.399   2.309  0.00  0.00    +0.002 A 
ATOM     11  C   UNL     1       3.273  -0.604   1.181  0.00  0.00    +0.023 A 
ATOM     12  C   UNL     1       2.370  -0.887   0.170  0.00  0.00    +0.032 A 
ATOM     13  N   UNL     1       2.068  -0.180  -1.032  0.00  0.00    -0.334 N 
ATOM     14  C   UNL     1       2.949   0.638  -1.869  0.00  0.00    +0.128 C 
ENDROOT
BRANCH   4  15
ATOM     15  C   UNL     1      -2.451  -1.508  -2.847  0.00  0.00    +0.076 C 
ATOM     16  C   UNL     1      -2.106  -1.764  -4.315  0.00  0.00    +0.022 C 
ATOM     17  C   UNL     1      -3.396  -1.938  -5.119  0.00  0.00    +0.002 C 
ATOM     18  C   UNL     1      -4.242  -0.668  -5.008  0.00  0.00    +0.000 C 
ATOM     19  C   UNL     1      -4.587  -0.412  -3.539  0.00  0.00    +0.002 C 
ATOM     20  C   UNL     1      -3.296  -0.238  -2.736  0.00  0.00    +0.022 C 
ENDBRANCH   4  15
BRANCH   1  22
ATOM     21  C   UNL     1       0.014   1.465   0.028  0.00  0.00    -0.097 C 
ATOM     22  N   UNL     1       0.002  -0.004   0.002  0.00  0.00    +0.398 N 
ATOM     23  H   UNL     1       0.476  -0.359   0.819  0.00  0.00    -0.082 HD
ATOM     24  H   UNL     1      -0.952  -0.333  -0.003  0.00  0.00    -0.082 HD
ENDBRANCH   1  22
BRANCH   6  25
ATOM     25  C   UNL     1       1.387  -2.869  -2.107  0.00  0.00    +0.049 C 
BRANCH  25  26
ATOM     26  C   UNL     1       1.353  -4.332  -1.748  0.00  0.00    -0.046 A 
ATOM     27  C   UNL     1       2.399  -4.894  -1.040  0.00  0.00    +0.003 A 
ATOM     28  C   UNL     1       2.368  -6.237  -0.711  0.00  0.00    +0.000 A 
ATOM     29  C   UNL     1       1.291  -7.016  -1.090  0.00  0.00    +0.000 A 
ATOM     30  C   UNL     1       0.245  -6.454  -1.798  0.00  0.00    +0.000 A 
ATOM     31  C   UNL     1       0.274  -5.110  -2.123  0.00  0.00    +0.003 A 
ENDBRANCH  25  26
ENDBRANCH   6  25
TORSDOF 4
