REMARK  Name = ZINC09233768
REMARK  6 active torsions:
REMARK  status: ('A' for Active; 'I' for Inactive)
REMARK    1  A    between atoms: C_1  and  C_2
REMARK    2  A    between atoms: C_3  and  C_36
REMARK    3  A    between atoms: C_5  and  N_11
REMARK    4  A    between atoms: C_6  and  C_7
REMARK    5  A    between atoms: C_7  and  O_9
REMARK    6  A    between atoms: O_9  and  C_10
REMARK                            x       y       z     vdW  Elec       q    Type
REMARK                         _______ _______ _______ _____ _____    ______ ____
ROOT
ATOM      1  N   UNL     1      -1.991  -1.681   1.362  0.00  0.00    -0.203 N 
ATOM      2  C   UNL     1      -3.254  -1.945   0.957  0.00  0.00    +0.229 C 
ATOM      3  O   UNL     1      -3.724  -3.043   0.754  0.00  0.00    -0.275 OA
ATOM      4  C   UNL     1      -3.992  -0.635   0.795  0.00  0.00    +0.074 C 
ATOM      5  C   UNL     1      -4.284  -0.393  -0.697  0.00  0.00    -0.054 C 
ATOM      6  C   UNL     1      -4.283  -1.739  -1.443  0.00  0.00    -0.016 C 
ATOM      7  C   UNL     1      -2.834  -1.939  -1.930  0.00  0.00    -0.020 C 
ATOM      8  C   UNL     1      -2.062  -0.708  -1.415  0.00  0.00    -0.076 C 
ATOM      9  C   UNL     1      -2.694   1.227  -0.108  0.00  0.00    +0.053 C 
ATOM     10  C   UNL     1      -2.938   0.438   1.183  0.00  0.00    +0.089 C 
ATOM     11  C   UNL     1      -1.713  -0.382   1.520  0.00  0.00    +0.230 C 
ATOM     12  O   UNL     1      -0.646   0.068   1.879  0.00  0.00    -0.275 OA
ATOM     13  C   UNL     1      -1.257   1.650  -0.230  0.00  0.00    -0.024 A 
ATOM     14  C   UNL     1      -0.067   0.958  -0.275  0.00  0.00    +0.043 A 
ATOM     15  C   UNL     1       1.130   1.645  -0.399  0.00  0.00    +0.124 A 
ATOM     16  C   UNL     1       1.125   3.029  -0.473  0.00  0.00    +0.040 A 
ATOM     17  C   UNL     1      -0.066   3.724  -0.423  0.00  0.00    +0.026 A 
ATOM     18  C   UNL     1      -1.273   3.040  -0.298  0.00  0.00    +0.036 A 
ATOM     19  N   UNL     1      -2.586   3.511  -0.228  0.00  0.00    -0.286 N 
ATOM     20  C   UNL     1      -3.481   2.510  -0.123  0.00  0.00    +0.212 C 
ATOM     21  O   UNL     1      -4.686   2.620  -0.046  0.00  0.00    -0.277 OA
ATOM     22  F   UNL     1       2.298   0.969  -0.449  0.00  0.00    -0.205 F 
ATOM     23  H   UNL     1      -2.827   4.451  -0.260  0.00  0.00    +0.155 HD
ATOM     24  N   UNL     1      -3.110   0.305  -1.169  0.00  0.00    +0.395 N 
ATOM     25  H   UNL     1      -3.313   0.823  -2.032  0.00  0.00    -0.079 HD
ENDROOT
BRANCH   1  30
ATOM     26  C   UNL     1       0.593  -5.170   3.972  0.00  0.00    +0.045 C 
ATOM     27  C   UNL     1       0.232  -4.369   2.748  0.00  0.00    -0.025 A 
ATOM     28  C   UNL     1       0.861  -4.560   1.574  0.00  0.00    -0.008 A 
ATOM     29  S   UNL     1       0.066  -3.393   0.488  0.00  0.00    -0.077 S 
ATOM     30  C   UNL     1      -1.057  -2.684   1.599  0.00  0.00    +0.096 A 
ATOM     31  C   UNL     1      -0.804  -3.364   2.784  0.00  0.00    +0.091 A 
ATOM     32  C   UNL     1       1.968  -5.531   1.253  0.00  0.00    +0.052 C 
BRANCH  31  33
ATOM     33  C   UNL     1      -1.551  -3.076   4.011  0.00  0.00    +0.342 C 
ATOM     34  O   UNL     1      -2.576  -3.683   4.256  0.00  0.00    -0.245 OA
BRANCH  33  35
ATOM     35  O   UNL     1      -1.103  -2.137   4.869  0.00  0.00    -0.464 OA
ATOM     36  C   UNL     1      -1.894  -1.903   6.064  0.00  0.00    +0.280 C 
ENDBRANCH  33  35
ENDBRANCH  31  33
ENDBRANCH   1  30
TORSDOF 3
