REMARK  Name = ZINC63373834
REMARK  5 active torsions:
REMARK  status: ('A' for Active; 'I' for Inactive)
REMARK    1  A    between atoms: C_1  and  C_2
REMARK    2  A    between atoms: C_13  and  C_29
REMARK    3  A    between atoms: N_19  and  C_22
REMARK    4  A    between atoms: C_34  and  O_35
REMARK    5  A    between atoms: O_35  and  C_36
REMARK                            x       y       z     vdW  Elec       q    Type
REMARK                         _______ _______ _______ _____ _____    ______ ____
ROOT
ATOM      1  C   UNL     1       0.364   1.452   0.708  0.00  0.00    +0.044 C 
ATOM      2  C   UNL     1       0.291  -0.064   0.515  0.00  0.00    +0.137 C 
ATOM      3  C   UNL     1       0.676  -0.463  -0.909  0.00  0.00    +0.139 C 
ATOM      4  C   UNL     1       1.821  -1.460  -0.806  0.00  0.00    -0.027 C 
ATOM      5  C   UNL     1       1.424  -2.551  -1.456  0.00  0.00    -0.000 A 
ATOM      6  C   UNL     1       2.112  -3.818  -1.749  0.00  0.00    +0.010 A 
ATOM      7  C   UNL     1       1.395  -4.743  -2.440  0.00  0.00    +0.001 A 
ATOM      8  C   UNL     1       0.078  -4.537  -2.862  0.00  0.00    +0.002 A 
ATOM      9  C   UNL     1      -0.631  -3.402  -2.639  0.00  0.00    +0.026 A 
ATOM     10  C   UNL     1       0.019  -2.352  -1.926  0.00  0.00    +0.043 A 
ATOM     11  N   UNL     1      -0.417  -1.156  -1.595  0.00  0.00    -0.375 N 
ATOM     12  C   UNL     1       3.089  -1.200  -0.030  0.00  0.00    +0.069 C 
ATOM     13  C   UNL     1       2.665  -0.740   1.379  0.00  0.00    +0.123 C 
ATOM     14  N   UNL     1       1.201  -0.771   1.441  0.00  0.00    -0.268 N 
ATOM     15  C   UNL     1       0.426  -1.447   2.300  0.00  0.00    +0.317 C 
ATOM     16  O   UNL     1       0.851  -2.047   3.268  0.00  0.00    -0.252 OA
ATOM     17  N   UNL     1      -0.871  -1.384   1.970  0.00  0.00    -0.192 N 
ATOM     18  C   UNL     1      -1.072  -0.604   0.888  0.00  0.00    +0.253 C 
ATOM     19  O   UNL     1      -2.126  -0.381   0.331  0.00  0.00    -0.272 OA
ATOM     20  H   UNL     1      -1.300  -0.793  -1.765  0.00  0.00    +0.160 HD
ENDROOT
BRANCH  17  21
ATOM     21  C   UNL     1      -1.893  -2.048   2.663  0.00  0.00    +0.046 A 
ATOM     22  C   UNL     1      -1.609  -2.725   3.842  0.00  0.00    +0.025 A 
ATOM     23  C   UNL     1      -2.617  -3.378   4.523  0.00  0.00    +0.017 A 
ATOM     24  C   UNL     1      -3.911  -3.358   4.032  0.00  0.00    +0.018 A 
ATOM     25  C   UNL     1      -4.197  -2.684   2.858  0.00  0.00    +0.017 A 
ATOM     26  C   UNL     1      -3.193  -2.025   2.176  0.00  0.00    +0.025 A 
ATOM     27 BR   UNL     1      -5.289  -4.252   4.967  0.00  0.00    -0.050 Br
ENDBRANCH  17  21
BRANCH  12  28
ATOM     28  C   UNL     1       3.893  -0.119  -0.706  0.00  0.00    +0.003 A 
ATOM     29  C   UNL     1       3.315   1.107  -0.974  0.00  0.00    +0.008 A 
ATOM     30  C   UNL     1       4.052   2.099  -1.595  0.00  0.00    +0.001 A 
ATOM     31  C   UNL     1       5.369   1.866  -1.948  0.00  0.00    +0.004 A 
ATOM     32  C   UNL     1       5.951   0.642  -1.682  0.00  0.00    +0.046 A 
ATOM     33  C   UNL     1       5.215  -0.353  -1.055  0.00  0.00    +0.124 A 
BRANCH  33  34
ATOM     34  O   UNL     1       5.787  -1.556  -0.787  0.00  0.00    -0.495 OA
ATOM     35  C   UNL     1       7.152  -1.726  -1.174  0.00  0.00    +0.277 C 
ENDBRANCH  33  34
ENDBRANCH  12  28
TORSDOF 3
