REMARK  Name = ZINC23858754
REMARK  7 active torsions:
REMARK  status: ('A' for Active; 'I' for Inactive)
REMARK    1  A    between atoms: C_1  and  N_2
REMARK    2  A    between atoms: C_10  and  C_12
REMARK    3  A    between atoms: C_12  and  C_14
REMARK    4  A    between atoms: C_12  and  N_30
REMARK    5  A    between atoms: C_14  and  N_15
REMARK    6  A    between atoms: C_16  and  C_18
REMARK    7  A    between atoms: C_18  and  N_19
REMARK                            x       y       z     vdW  Elec       q    Type
REMARK                         _______ _______ _______ _____ _____    ______ ____
ROOT
ATOM      1  C   UNL     1       3.423  -2.209   4.394  0.00  0.00    -0.020 C 
ENDROOT
BRANCH   1  11
ATOM      2  C   UNL     1      -1.203  -1.309   0.187  0.00  0.00    +0.129 C 
ATOM      3  N   UNL     1       0.096  -0.632   0.075  0.00  0.00    -0.333 N 
ATOM      4  C   UNL     1      -0.078   0.814  -0.083  0.00  0.00    +0.105 C 
ATOM      5  C   UNL     1       1.307   1.468  -0.167  0.00  0.00    +0.024 C 
ATOM      6  C   UNL     1       1.976   1.333   1.203  0.00  0.00    +0.038 C 
ATOM      7  C   UNL     1       1.835  -0.085   1.698  0.00  0.00    -0.026 A 
ATOM      8  C   UNL     1       0.930  -0.970   1.140  0.00  0.00    +0.033 A 
ATOM      9  C   UNL     1       0.834  -2.265   1.651  0.00  0.00    +0.023 A 
ATOM     10  C   UNL     1       1.636  -2.663   2.700  0.00  0.00    +0.004 A 
ATOM     11  C   UNL     1       2.543  -1.776   3.249  0.00  0.00    -0.059 A 
ATOM     12  C   UNL     1       2.641  -0.492   2.749  0.00  0.00    +0.007 A 
ENDBRANCH   1  11
BRANCH   1  13
ATOM     13  N   UNL     1       3.882  -3.585   4.164  0.00  0.00    +0.385 N 
ATOM     14  C   UNL     1       4.659  -3.684   2.902  0.00  0.00    -0.078 C 
ATOM     15  C   UNL     1       5.474  -4.988   3.088  0.00  0.00    -0.020 C 
ATOM     16  C   UNL     1       5.842  -4.955   4.589  0.00  0.00    -0.020 C 
ATOM     17  C   UNL     1       4.801  -4.023   5.238  0.00  0.00    -0.078 C 
ATOM     18  H   UNL     1       2.973  -4.203   4.135  0.00  0.00    -0.081 HD
ENDBRANCH   1  13
BRANCH   1  19
ATOM     19  C   UNL     1       2.629  -2.147   5.700  0.00  0.00    +0.093 C 
BRANCH  19  20
ATOM     20  N   UNL     1       2.283  -0.755   5.995  0.00  0.00    -0.315 N 
ATOM     21  C   UNL     1       1.490  -0.466   7.046  0.00  0.00    +0.231 C 
ATOM     22  O   UNL     1       1.063  -1.359   7.747  0.00  0.00    -0.274 OA
ATOM     23  H   UNL     1       2.670   0.055   5.360  0.00  0.00    +0.149 HD
BRANCH  21  24
ATOM     24  C   UNL     1       1.134   0.966   7.351  0.00  0.00    +0.212 C 
BRANCH  24  25
ATOM     25  N   UNL     1       0.268   1.014   8.532  0.00  0.00    -0.225 N 
ATOM     26  C   UNL     1      -1.075   0.961   8.494  0.00  0.00    +0.254 C 
ATOM     27  O   UNL     1      -1.753   0.866   7.490  0.00  0.00    -0.270 OA
ATOM     28  C   UNL     1      -1.589   1.033   9.878  0.00  0.00    +0.049 A 
ATOM     29  C   UNL     1      -2.854   1.021  10.443  0.00  0.00    +0.014 A 
ATOM     30  C   UNL     1      -2.994   1.114  11.819  0.00  0.00    +0.001 A 
ATOM     31  C   UNL     1      -1.880   1.218  12.630  0.00  0.00    +0.001 A 
ATOM     32  C   UNL     1      -0.608   1.231  12.080  0.00  0.00    +0.014 A 
ATOM     33  C   UNL     1      -0.453   1.139  10.706  0.00  0.00    +0.049 A 
ATOM     34  C   UNL     1       0.713   1.123   9.797  0.00  0.00    +0.254 C 
ATOM     35  O   UNL     1       1.877   1.195  10.136  0.00  0.00    -0.270 OA
ENDBRANCH  24  25
ENDBRANCH  21  24
ENDBRANCH  19  20
ENDBRANCH   1  19
TORSDOF 6
