REMARK  Name = ZINC12439849
REMARK  7 active torsions:
REMARK  status: ('A' for Active; 'I' for Inactive)
REMARK    1  A    between atoms: C_1  and  N_60
REMARK    2  A    between atoms: C_2  and  C_3
REMARK    3  A    between atoms: C_2  and  N_60
REMARK    4  A    between atoms: N_5  and  C_17
REMARK    5  A    between atoms: C_7  and  C_8
REMARK    6  A    between atoms: C_23  and  C_24
REMARK    7  A    between atoms: C_23  and  N_60
REMARK                            x       y       z     vdW  Elec       q    Type
REMARK                         _______ _______ _______ _____ _____    ______ ____
ROOT
ATOM      1  C   UNL     1      -2.609  -0.834   6.616  0.00  0.00    -0.018 A 
ATOM      2  C   UNL     1      -3.700  -1.493   7.065  0.00  0.00    +0.116 A 
ATOM      3  N   UNL     1      -3.281  -2.658   7.625  0.00  0.00    -0.239 N 
ATOM      4  N   UNL     1      -1.885  -2.710   7.524  0.00  0.00    -0.166 NA
ATOM      5  C   UNL     1      -1.476  -1.615   6.918  0.00  0.00    +0.095 A 
ENDROOT
BRANCH   5   6
ATOM      6  C   UNL     1      -0.068  -1.265   6.606  0.00  0.00    +0.006 A 
ATOM      7  C   UNL     1       0.258  -0.726   5.363  0.00  0.00    +0.014 A 
ATOM      8  C   UNL     1       1.568  -0.401   5.074  0.00  0.00    +0.050 A 
ATOM      9  C   UNL     1       2.562  -0.610   6.018  0.00  0.00    +0.166 A 
ATOM     10  C   UNL     1       2.241  -1.148   7.263  0.00  0.00    +0.167 A 
ATOM     11  C   UNL     1       0.928  -1.470   7.558  0.00  0.00    +0.059 A 
ATOM     12  O   UNL     1       3.385  -1.253   8.001  0.00  0.00    -0.453 OA
ATOM     13  C   UNL     1       4.342  -0.396   7.350  0.00  0.00    +0.466 C 
ATOM     14  O   UNL     1       3.907  -0.378   5.978  0.00  0.00    -0.453 OA
ENDBRANCH   5   6
BRANCH   3  15
ATOM     15  C   UNL     1      -4.101  -3.633   8.207  0.00  0.00    +0.065 A 
ATOM     16  C   UNL     1      -5.478  -3.451   8.246  0.00  0.00    +0.028 A 
ATOM     17  C   UNL     1      -6.284  -4.417   8.817  0.00  0.00    +0.002 A 
ATOM     18  C   UNL     1      -5.722  -5.558   9.358  0.00  0.00    +0.000 A 
ATOM     19  C   UNL     1      -4.351  -5.740   9.325  0.00  0.00    +0.002 A 
ATOM     20  C   UNL     1      -3.540  -4.780   8.751  0.00  0.00    +0.028 A 
ENDBRANCH   3  15
BRANCH   1  21
ATOM     21  C   UNL     1      -2.605   0.504   5.922  0.00  0.00    -0.039 C 
BRANCH  21  23
ATOM     22  C   UNL     1      -3.099   1.816   7.896  0.00  0.00    -0.095 C 
ATOM     23  N   UNL     1      -2.088   1.524   6.859  0.00  0.00    +0.384 N 
ATOM     24  H   UNL     1      -1.241   1.161   7.312  0.00  0.00    -0.081 HD
BRANCH  23  25
ATOM     25  C   UNL     1      -1.746   2.759   6.123  0.00  0.00    -0.020 C 
BRANCH  25  26
ATOM     26  C   UNL     1      -1.021   3.695   7.055  0.00  0.00    +0.050 A 
ATOM     27  C   UNL     1      -1.611   4.671   7.855  0.00  0.00    -0.006 A 
ATOM     28  C   UNL     1      -0.625   5.301   8.543  0.00  0.00    +0.039 A 
ATOM     29  N   UNL     1       0.545   4.742   8.192  0.00  0.00    -0.281 N 
ATOM     30  H   UNL     1       1.448   4.997   8.537  0.00  0.00    +0.189 HD
ATOM     31  N   UNL     1       0.274   3.734   7.254  0.00  0.00    -0.180 NA
ATOM     32  C   UNL     1      -0.860   6.427   9.519  0.00  0.00    +0.055 C 
ATOM     33  C   UNL     1      -2.268   6.987   9.282  0.00  0.00    +0.006 C 
ATOM     34  C   UNL     1      -3.277   5.836   9.253  0.00  0.00    +0.005 C 
ATOM     35  C   UNL     1      -3.076   5.009   7.977  0.00  0.00    +0.039 C 
ENDBRANCH  25  26
ENDBRANCH  23  25
ENDBRANCH  21  23
ENDBRANCH   1  21
TORSDOF 6
