REMARK  Name = ZINC03659081
REMARK  7 active torsions:
REMARK  status: ('A' for Active; 'I' for Inactive)
REMARK    1  A    between atoms: C_1  and  O_2
REMARK    2  A    between atoms: O_2  and  C_3
REMARK    3  A    between atoms: C_3  and  C_5
REMARK    4  A    between atoms: C_10  and  C_11
REMARK    5  A    between atoms: C_14  and  C_16
REMARK    6  A    between atoms: N_20  and  C_24
REMARK    7  A    between atoms: C_24  and  C_25
REMARK                            x       y       z     vdW  Elec       q    Type
REMARK                         _______ _______ _______ _____ _____    ______ ____
ROOT
ATOM      1  C   UNL     1       1.763   5.166   4.676  0.00  0.00    +0.074 C 
ATOM      2  C   UNL     1       1.196   4.787   3.494  0.00  0.00    +0.101 C 
ATOM      3  C   UNL     1       1.886   4.339   2.279  0.00  0.00    +0.269 C 
ATOM      4  O   UNL     1       3.088   4.230   2.118  0.00  0.00    -0.268 OA
ATOM      5  N   UNL     1       0.921   4.073   1.375  0.00  0.00    -0.216 N 
ATOM      6  C   UNL     1      -0.284   4.318   1.911  0.00  0.00    +0.313 C 
ATOM      7  O   UNL     1      -1.341   4.173   1.327  0.00  0.00    -0.252 OA
ATOM      8  N   UNL     1      -0.168   4.742   3.182  0.00  0.00    -0.265 N 
ATOM      9  H   UNL     1      -0.898   4.979   3.775  0.00  0.00    +0.157 HD
ENDROOT
BRANCH   1  13
ATOM     10  C   UNL     1      -0.840   6.061   6.943  0.00  0.00    +0.136 A 
ATOM     11  C   UNL     1       0.253   6.288   7.751  0.00  0.00    +0.050 A 
ATOM     12  C   UNL     1       1.388   5.974   7.001  0.00  0.00    +0.050 A 
ATOM     13  C   UNL     1       0.945   5.572   5.753  0.00  0.00    +0.131 A 
ATOM     14  O   UNL     1      -0.403   5.631   5.744  0.00  0.00    -0.455 OA
BRANCH  10  20
ATOM     15  C   UNL     1      -3.113   7.003   6.498  0.00  0.00    +0.070 A 
ATOM     16  C   UNL     1      -4.446   7.173   6.873  0.00  0.00    +0.016 A 
ATOM     17  C   UNL     1      -4.907   6.622   8.050  0.00  0.00    +0.001 A 
ATOM     18  C   UNL     1      -4.057   5.892   8.866  0.00  0.00    +0.001 A 
ATOM     19  C   UNL     1      -2.737   5.706   8.512  0.00  0.00    +0.012 A 
ATOM     20  C   UNL     1      -2.248   6.255   7.325  0.00  0.00    +0.031 A 
BRANCH  15  21
ATOM     21  C   UNL     1      -2.612   7.595   5.245  0.00  0.00    +0.340 C 
ATOM     22  O   UNL     1      -1.452   7.440   4.920  0.00  0.00    -0.245 OA
BRANCH  21  24
ATOM     23  C   UNL     1      -2.881   8.862   3.239  0.00  0.00    +0.280 C 
ATOM     24  O   UNL     1      -3.442   8.308   4.458  0.00  0.00    -0.464 OA
ENDBRANCH  21  24
ENDBRANCH  15  21
ENDBRANCH  10  20
ENDBRANCH   1  13
BRANCH   5  25
ATOM     25  C   UNL     1       1.155   3.595   0.010  0.00  0.00    +0.156 C 
BRANCH  25  26
ATOM     26  C   UNL     1       1.173   2.088   0.002  0.00  0.00    +0.006 A 
ATOM     27  C   UNL     1       2.379   1.412  -0.013  0.00  0.00    +0.008 A 
ATOM     28  C   UNL     1       2.396   0.029  -0.020  0.00  0.00    +0.000 A 
ATOM     29  C   UNL     1       1.208  -0.678  -0.013  0.00  0.00    +0.003 A 
ATOM     30  C   UNL     1       0.002  -0.004   0.002  0.00  0.00    +0.038 A 
ATOM     31  C   UNL     1      -0.017   1.381   0.010  0.00  0.00    +0.128 A 
ATOM     32  F   UNL     1      -1.196   2.041   0.019  0.00  0.00    -0.205 F 
ENDBRANCH  25  26
ENDBRANCH   5  25
TORSDOF 6
