REMARK  Name = ZINC63399419
REMARK  8 active torsions:
REMARK  status: ('A' for Active; 'I' for Inactive)
REMARK    1  A    between atoms: C_4  and  O_5
REMARK    2  A    between atoms: C_6  and  C_17
REMARK    3  A    between atoms: N_9  and  C_10
REMARK    4  A    between atoms: C_17  and  O_19
REMARK    5  A    between atoms: O_19  and  C_20
REMARK    6  A    between atoms: C_20  and  C_22
REMARK    7  A    between atoms: C_20  and  C_23
REMARK    8  A    between atoms: C_23  and  C_25
REMARK                            x       y       z     vdW  Elec       q    Type
REMARK                         _______ _______ _______ _____ _____    ______ ____
ROOT
ATOM      1  C   UNL     1       0.176   1.418  -0.424  0.00  0.00    +0.035 C 
ATOM      2  C   UNL     1       0.070   0.102  -0.205  0.00  0.00    +0.046 C 
ATOM      3  C   UNL     1      -1.243  -0.564  -0.045  0.00  0.00    +0.067 C 
ATOM      4  C   UNL     1      -1.275  -1.897   0.037  0.00  0.00    +0.125 C 
ATOM      5  C   UNL     1      -0.021  -2.722  -0.015  0.00  0.00    +0.247 C 
ATOM      6  N   UNL     1       1.072  -1.987  -0.660  0.00  0.00    -0.215 NA
ATOM      7  N   UNL     1       1.202  -0.734  -0.118  0.00  0.00    -0.235 N 
ATOM      8  H   UNL     1       0.933  -1.933  -1.658  0.00  0.00    +0.146 HD
ENDROOT
BRANCH   7   9
ATOM      9  C   UNL     1       2.389  -0.314   0.490  0.00  0.00    +0.050 A 
ATOM     10  C   UNL     1       2.352   0.317   1.727  0.00  0.00    +0.026 A 
ATOM     11  C   UNL     1       3.526   0.731   2.325  0.00  0.00    +0.022 A 
ATOM     12  C   UNL     1       4.738   0.517   1.693  0.00  0.00    +0.041 A 
ATOM     13  C   UNL     1       4.778  -0.111   0.461  0.00  0.00    +0.022 A 
ATOM     14  C   UNL     1       3.608  -0.532  -0.140  0.00  0.00    +0.026 A 
ATOM     15 CL   UNL     1       6.212   1.039   2.447  0.00  0.00    -0.084 Cl
ENDBRANCH   7   9
BRANCH   4  16
ATOM     16  O   UNL     1      -2.470  -2.520   0.170  0.00  0.00    -0.509 OA
ATOM     17  H   UNL     1      -3.227  -1.919   0.195  0.00  0.00    +0.292 HD
ENDBRANCH   4  16
BRANCH   5  18
ATOM     18  C   UNL     1      -0.293  -3.984  -0.793  0.00  0.00    +0.334 C 
ATOM     19  O   UNL     1       0.338  -4.223  -1.796  0.00  0.00    -0.248 OA
BRANCH  18  20
ATOM     20  O   UNL     1      -1.235  -4.842  -0.373  0.00  0.00    -0.452 OA
BRANCH  20  21
ATOM     21  C   UNL     1      -1.439  -6.018  -1.159  0.00  0.00    +0.244 C 
ATOM     22  C   UNL     1      -0.525  -7.135  -0.653  0.00  0.00    +0.061 C 
BRANCH  21  23
ATOM     23  C   UNL     1      -2.877  -6.455  -1.045  0.00  0.00    +0.201 C 
ATOM     24  O   UNL     1      -3.581  -6.004  -0.165  0.00  0.00    -0.288 OA
BRANCH  23  25
ATOM     25  C   UNL     1      -3.405  -7.389  -1.962  0.00  0.00    +0.027 C 
ATOM     26  C   UNL     1      -4.695  -7.886  -1.999  0.00  0.00    +0.006 A 
ATOM     27  C   UNL     1      -5.840  -7.654  -1.200  0.00  0.00    +0.010 A 
ATOM     28  C   UNL     1      -7.000  -8.293  -1.470  0.00  0.00    +0.001 A 
ATOM     29  C   UNL     1      -7.131  -9.201  -2.533  0.00  0.00    +0.002 A 
ATOM     30  C   UNL     1      -6.099  -9.493  -3.355  0.00  0.00    +0.026 A 
ATOM     31  C   UNL     1      -4.799  -8.840  -3.131  0.00  0.00    +0.043 A 
ATOM     32  N   UNL     1      -3.660  -8.934  -3.755  0.00  0.00    -0.380 N 
ATOM     33  C   UNL     1      -2.681  -8.051  -3.113  0.00  0.00    +0.152 C 
ATOM     34  H   UNL     1      -3.487  -9.496  -4.527  0.00  0.00    +0.160 HD
ENDBRANCH  23  25
ENDBRANCH  21  23
ENDBRANCH  20  21
ENDBRANCH  18  20
ENDBRANCH   5  18
TORSDOF 7
