REMARK  Name = ZINC25588395
REMARK  7 active torsions:
REMARK  status: ('A' for Active; 'I' for Inactive)
REMARK    1  A    between atoms: C_1  and  C_2
REMARK    2  A    between atoms: C_3  and  C_8
REMARK    3  A    between atoms: C_5  and  C_7
REMARK    4  A    between atoms: C_11  and  S_13
REMARK    5  A    between atoms: S_13  and  C_14
REMARK    6  A    between atoms: C_14  and  C_15
REMARK    7  A    between atoms: N_17  and  C_18
REMARK                            x       y       z     vdW  Elec       q    Type
REMARK                         _______ _______ _______ _____ _____    ______ ____
ROOT
ATOM      1  C   UNL     1       1.280   1.979   0.018  0.00  0.00    +0.175 C 
ENDROOT
BRANCH   1   2
ATOM      2  C   UNL     1      -0.015   1.208   0.015  0.00  0.00    +0.228 C 
ATOM      3  O   UNL     1       0.001  -0.004   0.004  0.00  0.00    -0.275 OA
ATOM      4  N   UNL     1      -1.191   1.867   0.018  0.00  0.00    -0.284 N 
ATOM      5  H   UNL     1      -1.207   2.963   0.102  0.00  0.00    +0.155 HD
BRANCH   4   6
ATOM      6  C   UNL     1      -2.393   1.154  -0.086  0.00  0.00    +0.056 A 
ATOM      7  C   UNL     1      -2.510  -0.099   0.499  0.00  0.00    +0.074 A 
ATOM      8  C   UNL     1      -3.698  -0.803   0.396  0.00  0.00    +0.168 A 
ATOM      9  C   UNL     1      -4.774  -0.252  -0.295  0.00  0.00    +0.168 A 
ATOM     10  C   UNL     1      -4.654   0.999  -0.878  0.00  0.00    +0.071 A 
ATOM     11  C   UNL     1      -3.470   1.704  -0.770  0.00  0.00    +0.066 A 
ATOM     12 CL   UNL     1      -3.325   3.275  -1.495  0.00  0.00    -0.082 Cl
ATOM     13  O   UNL     1      -5.817  -1.133  -0.253  0.00  0.00    -0.453 OA
ATOM     14  C   UNL     1      -5.237  -2.397   0.118  0.00  0.00    +0.466 C 
ATOM     15  O   UNL     1      -4.066  -2.029   0.871  0.00  0.00    -0.453 OA
ENDBRANCH   4   6
ENDBRANCH   1   2
BRANCH   1  16
ATOM     16  S   UNL     1       2.672   0.821   0.005  0.00  0.00    -0.056 S 
BRANCH  16  20
ATOM     17  C   UNL     1       5.999   2.817   0.014  0.00  0.00    +0.258 A 
ATOM     18  N   UNL     1       5.106   3.780   0.025  0.00  0.00    -0.106 NA
ATOM     19  N   UNL     1       3.926   3.268   0.024  0.00  0.00    -0.101 NA
ATOM     20  C   UNL     1       4.017   1.959   0.012  0.00  0.00    +0.278 A 
ATOM     21  O   UNL     1       5.327   1.644   0.011  0.00  0.00    -0.410 OA
BRANCH  17  24
ATOM     22  C   UNL     1       7.559   5.491   0.021  0.00  0.00    +0.067 C 
ATOM     23  C   UNL     1       8.214   4.134   0.014  0.00  0.00    +0.058 A 
ATOM     24  C   UNL     1       7.461   2.984   0.012  0.00  0.00    +0.098 A 
ATOM     25  S   UNL     1       8.752   1.749  -0.003  0.00  0.00    -0.067 S 
ATOM     26  C   UNL     1      10.105   2.837   0.003  0.00  0.00    +0.076 A 
ATOM     27  N   UNL     1       9.521   4.014   0.015  0.00  0.00    -0.249 NA
ATOM     28  C   UNL     1      11.577   2.513  -0.005  0.00  0.00    +0.073 C 
ENDBRANCH  17  24
ENDBRANCH  16  20
ENDBRANCH   1  16
TORSDOF 5
