REMARK  Name = ZINC20557084
REMARK  5 active torsions:
REMARK  status: ('A' for Active; 'I' for Inactive)
REMARK    1  A    between atoms: C_1  and  C_2
REMARK    2  A    between atoms: C_2  and  C_4
REMARK    3  A    between atoms: C_2  and  N_15
REMARK    4  A    between atoms: C_4  and  C_5
REMARK    5  A    between atoms: C_16  and  C_18
REMARK                            x       y       z     vdW  Elec       q    Type
REMARK                         _______ _______ _______ _____ _____    ______ ____
ROOT
ATOM      1  C   UNL     1      -2.462   1.235  -2.924  0.00  0.00    +0.078 C 
ATOM      2  C   UNL     1      -3.042   2.637  -2.715  0.00  0.00    +0.031 C 
ATOM      3  C   UNL     1      -3.819   3.054  -3.966  0.00  0.00    +0.107 C 
ATOM      4  N   UNL     1      -4.897   2.090  -4.219  0.00  0.00    -0.313 N 
ATOM      5  C   UNL     1      -4.361   0.746  -4.470  0.00  0.00    +0.107 C 
ATOM      6  C   UNL     1      -3.601   0.260  -3.233  0.00  0.00    +0.031 C 
ATOM      7  C   UNL     1      -5.699   2.507  -5.267  0.00  0.00    +0.152 A 
ATOM      8  C   UNL     1      -6.325   3.765  -5.238  0.00  0.00    +0.148 A 
ATOM      9  C   UNL     1      -7.124   4.134  -6.332  0.00  0.00    +0.166 A 
ATOM     10  N   UNL     1      -7.265   3.285  -7.345  0.00  0.00    -0.216 NA
ATOM     11  C   UNL     1      -6.663   2.114  -7.327  0.00  0.00    +0.225 A 
ATOM     12  N   UNL     1      -5.900   1.724  -6.322  0.00  0.00    -0.218 NA
ATOM     13  N   UNL     1      -7.606   5.385  -6.043  0.00  0.00    -0.312 N 
ATOM     14  C   UNL     1      -7.106   5.749  -4.827  0.00  0.00    +0.112 A 
ATOM     15  N   UNL     1      -6.351   4.795  -4.359  0.00  0.00    -0.227 NA
ATOM     16  C   UNL     1      -7.375   7.066  -4.138  0.00  0.00    +0.074 C 
ATOM     17  C   UNL     1      -8.876   7.362  -4.181  0.00  0.00    +0.008 C 
ATOM     18  C   UNL     1      -9.211   8.118  -5.463  0.00  0.00    +0.002 C 
ATOM     19  C   UNL     1      -8.305   7.661  -6.604  0.00  0.00    +0.022 C 
ATOM     20  C   UNL     1      -8.526   6.171  -6.872  0.00  0.00    +0.125 C 
ENDROOT
BRANCH   1  22
ATOM     21  N   UNL     1      -0.705   1.509  -1.204  0.00  0.00    -0.312 N 
ATOM     22  C   UNL     1      -1.748   0.795  -1.672  0.00  0.00    +0.216 C 
ATOM     23  O   UNL     1      -2.112  -0.203  -1.085  0.00  0.00    -0.276 OA
ATOM     24  H   UNL     1      -0.375   2.413  -1.736  0.00  0.00    +0.149 HD
BRANCH  21  26
ATOM     25  C   UNL     1      -0.746   1.627   1.238  0.00  0.00    +0.028 C 
ATOM     26  C   UNL     1      -0.011   1.081   0.013  0.00  0.00    +0.070 C 
BRANCH  26  27
ATOM     27  C   UNL     1       1.423   1.615  -0.003  0.00  0.00    +0.029 C 
BRANCH  27  28
ATOM     28  C   UNL     1       2.212   0.928  -1.119  0.00  0.00    -0.027 C 
ATOM     29  C   UNL     1       2.122  -0.590  -0.947  0.00  0.00    +0.010 C 
ATOM     30  C   UNL     1       2.911  -1.277  -2.063  0.00  0.00    -0.010 C 
ATOM     31  C   UNL     1       2.324  -0.883  -3.420  0.00  0.00    +0.007 C 
ATOM     32  C   UNL     1       2.413   0.635  -3.592  0.00  0.00    -0.010 C 
ATOM     33  C   UNL     1       1.624   1.322  -2.476  0.00  0.00    +0.010 C 
ATOM     34  C   UNL     1       3.878   1.071  -3.524  0.00  0.00    +0.007 C 
ATOM     35  C   UNL     1       4.465   0.676  -2.168  0.00  0.00    -0.010 C 
ATOM     36  C   UNL     1       4.376  -0.841  -1.995  0.00  0.00    +0.007 C 
ATOM     37  C   UNL     1       3.676   1.364  -1.051  0.00  0.00    +0.010 C 
ENDBRANCH  27  28
ENDBRANCH  26  27
ENDBRANCH  21  26
ENDBRANCH   1  22
TORSDOF 4
