REMARK  Name = ZINC38872559
REMARK  9 active torsions:
REMARK  status: ('A' for Active; 'I' for Inactive)
REMARK    1  A    between atoms: C_1  and  N_2
REMARK    2  A    between atoms: N_2  and  C_3
REMARK    3  A    between atoms: N_2  and  C_28
REMARK    4  A    between atoms: C_3  and  C_4
REMARK    5  A    between atoms: C_4  and  N_5
REMARK    6  A    between atoms: C_6  and  C_8
REMARK    7  A    between atoms: N_11  and  C_14
REMARK    8  A    between atoms: C_14  and  C_15
REMARK    9  A    between atoms: C_17  and  C_20
REMARK                            x       y       z     vdW  Elec       q    Type
REMARK                         _______ _______ _______ _____ _____    ______ ____
ROOT
ATOM      1  C   UNL     1      -2.523  -2.876   4.879  0.00  0.00    +0.071 C 
ATOM      2  C   UNL     1      -1.793  -4.208   4.681  0.00  0.00    -0.006 C 
ATOM      3  C   UNL     1      -1.843  -5.009   5.984  0.00  0.00    -0.077 C 
ATOM      4  N   UNL     1      -3.241  -5.265   6.352  0.00  0.00    +0.386 N 
ATOM      5  C   UNL     1      -3.928  -3.994   6.613  0.00  0.00    -0.077 C 
ATOM      6  C   UNL     1      -3.958  -3.154   5.335  0.00  0.00    -0.006 C 
ATOM      7  H   UNL     1      -3.704  -5.747   5.596  0.00  0.00    -0.081 HD
ENDROOT
BRANCH   1   9
ATOM      8  N   UNL     1      -1.389  -1.760   2.985  0.00  0.00    -0.314 N 
ATOM      9  C   UNL     1      -2.545  -2.115   3.578  0.00  0.00    +0.216 C 
ATOM     10  O   UNL     1      -3.605  -1.824   3.064  0.00  0.00    -0.276 OA
ATOM     11  H   UNL     1      -0.541  -1.993   3.396  0.00  0.00    +0.149 HD
BRANCH   8  12
ATOM     12  C   UNL     1      -1.411  -1.020   1.720  0.00  0.00    +0.123 C 
BRANCH  12  13
ATOM     13  C   UNL     1       0.024  -0.743   1.267  0.00  0.00    +0.123 C 
BRANCH  13  15
ATOM     14  C   UNL     1      -0.018   1.461   0.010  0.00  0.00    +0.129 C 
ATOM     15  N   UNL     1       0.002  -0.004   0.002  0.00  0.00    -0.331 N 
BRANCH  15  16
ATOM     16  C   UNL     1       0.000  -0.696  -1.211  0.00  0.00    +0.029 A 
ATOM     17  C   UNL     1       0.013  -2.085  -1.221  0.00  0.00    +0.023 A 
ATOM     18  C   UNL     1       0.010  -2.766  -2.422  0.00  0.00    +0.002 A 
ATOM     19  C   UNL     1      -0.005  -2.066  -3.615  0.00  0.00    +0.000 A 
ATOM     20  C   UNL     1      -0.018  -0.684  -3.609  0.00  0.00    +0.002 A 
ATOM     21  C   UNL     1      -0.021   0.004  -2.411  0.00  0.00    +0.023 A 
ENDBRANCH  15  16
ENDBRANCH  13  15
ENDBRANCH  12  13
ENDBRANCH   8  12
ENDBRANCH   1   9
BRANCH   4  22
ATOM     22  C   UNL     1      -3.283  -6.100   7.559  0.00  0.00    +0.022 C 
BRANCH  22  23
ATOM     23  C   UNL     1      -4.712  -6.465   7.868  0.00  0.00    +0.211 A 
ATOM     24  N   UNL     1      -5.339  -7.520   7.432  0.00  0.00    -0.193 NA
ATOM     25  C   UNL     1      -6.599  -7.534   7.902  0.00  0.00    +0.203 A 
ATOM     26  N   UNL     1      -6.779  -6.472   8.649  0.00  0.00    -0.056 NA
ATOM     27  O   UNL     1      -5.549  -5.763   8.643  0.00  0.00    -0.340 OA
BRANCH  25  28
ATOM     28  C   UNL     1      -7.616  -8.577   7.621  0.00  0.00    +0.041 A 
ATOM     29  C   UNL     1      -7.297  -9.665   6.811  0.00  0.00    +0.014 A 
ATOM     30  C   UNL     1      -8.246 -10.633   6.553  0.00  0.00    +0.021 A 
ATOM     31  C   UNL     1      -9.515 -10.524   7.097  0.00  0.00    +0.042 A 
ATOM     32  C   UNL     1      -9.838  -9.446   7.901  0.00  0.00    +0.040 A 
ATOM     33  C   UNL     1      -8.894  -8.475   8.171  0.00  0.00    +0.053 A 
ATOM     34 CL   UNL     1      -9.298  -7.126   9.187  0.00  0.00    -0.083 Cl
ATOM     35 CL   UNL     1     -10.704 -11.746   6.767  0.00  0.00    -0.083 Cl
ENDBRANCH  25  28
ENDBRANCH  22  23
ENDBRANCH   4  22
TORSDOF 8
