REMARK  Name = ZINC15822855
REMARK  6 active torsions:
REMARK  status: ('A' for Active; 'I' for Inactive)
REMARK    1  A    between atoms: C_3  and  N_21
REMARK    2  A    between atoms: C_6  and  C_7
REMARK    3  A    between atoms: N_9  and  C_10
REMARK    4  A    between atoms: C_11  and  C_18
REMARK    5  A    between atoms: N_21  and  S_22
REMARK    6  A    between atoms: S_22  and  C_25
REMARK                            x       y       z     vdW  Elec       q    Type
REMARK                         _______ _______ _______ _____ _____    ______ ____
ROOT
ATOM      1  C   UNL     1       3.456  -3.165  -4.348  0.00  0.00    +0.015 A 
ATOM      2  C   UNL     1       2.465  -3.472  -3.444  0.00  0.00    +0.025 A 
ATOM      3  C   UNL     1       2.113  -2.556  -2.457  0.00  0.00    +0.048 A 
ATOM      4  C   UNL     1       2.758  -1.325  -2.384  0.00  0.00    +0.025 A 
ATOM      5  C   UNL     1       3.754  -1.013  -3.281  0.00  0.00    +0.015 A 
ATOM      6  C   UNL     1       4.110  -1.931  -4.274  0.00  0.00    +0.037 A 
ENDROOT
BRANCH   6   7
ATOM      7  C   UNL     1       5.173  -1.599  -5.240  0.00  0.00    +0.249 C 
ATOM      8  O   UNL     1       5.482  -2.398  -6.103  0.00  0.00    -0.270 OA
ATOM      9  N   UNL     1       5.803  -0.409  -5.167  0.00  0.00    -0.275 N 
ATOM     10  H   UNL     1       5.556   0.228  -4.479  0.00  0.00    +0.156 HD
BRANCH   9  11
ATOM     11  C   UNL     1       6.801  -0.097  -6.075  0.00  0.00    +0.085 A 
ATOM     12  C   UNL     1       7.551   1.063  -6.164  0.00  0.00    +0.068 A 
ATOM     13  C   UNL     1       8.557   1.140  -7.223  0.00  0.00    -0.023 A 
ATOM     14  C   UNL     1       8.636   0.056  -8.015  0.00  0.00    -0.004 A 
ATOM     15  S   UNL     1       7.410  -1.060  -7.378  0.00  0.00    -0.077 S 
ATOM     16  C   UNL     1       9.688   0.210  -9.080  0.00  0.00    +0.043 C 
ATOM     17  C   UNL     1      10.571   1.379  -8.588  0.00  0.00    +0.010 C 
ATOM     18  C   UNL     1       9.585   2.166  -7.703  0.00  0.00    +0.037 C 
BRANCH  12  19
ATOM     19  C   UNL     1       7.348   2.173  -5.228  0.00  0.00    +0.244 C 
ATOM     20  O   UNL     1       7.983   2.219  -4.191  0.00  0.00    -0.270 OA
ATOM     21  N   UNL     1       6.457   3.143  -5.516  0.00  0.00    -0.325 N 
ATOM     22  H   UNL     1       5.950   3.106  -6.343  0.00  0.00    +0.145 HD
ATOM     23  H   UNL     1       6.322   3.877  -4.897  0.00  0.00    +0.145 HD
ENDBRANCH  12  19
ENDBRANCH   9  11
ENDBRANCH   6   7
BRANCH   3  24
ATOM     24  N   UNL     1       1.111  -2.870  -1.545  0.00  0.00    -0.216 N 
ATOM     25  H   UNL     1       0.238  -2.453  -1.621  0.00  0.00    +0.174 HD
BRANCH  24  26
ATOM     26  S   UNL     1       1.408  -3.954  -0.329  0.00  0.00    +0.072 S 
ATOM     27  O   UNL     1       1.972  -5.106  -0.941  0.00  0.00    -0.150 OA
ATOM     28  O   UNL     1       0.228  -4.012   0.461  0.00  0.00    -0.150 OA
BRANCH  26  29
ATOM     29  C   UNL     1       2.665  -3.261   0.693  0.00  0.00    +0.109 A 
ATOM     30  C   UNL     1       2.326  -2.375   1.699  0.00  0.00    +0.030 A 
ATOM     31  C   UNL     1       3.312  -1.831   2.501  0.00  0.00    +0.022 A 
ATOM     32  C   UNL     1       4.637  -2.172   2.296  0.00  0.00    +0.041 A 
ATOM     33  C   UNL     1       4.975  -3.058   1.288  0.00  0.00    +0.022 A 
ATOM     34  C   UNL     1       3.989  -3.602   0.487  0.00  0.00    +0.030 A 
ATOM     35 CL   UNL     1       5.875  -1.489   3.303  0.00  0.00    -0.084 Cl
ENDBRANCH  26  29
ENDBRANCH  24  26
ENDBRANCH   3  24
TORSDOF 6
