REMARK  Name = ZINC19367621
REMARK  9 active torsions:
REMARK  status: ('A' for Active; 'I' for Inactive)
REMARK    1  A    between atoms: C_1  and  C_2
REMARK    2  A    between atoms: C_6  and  N_8
REMARK    3  A    between atoms: C_9  and  C_11
REMARK    4  A    between atoms: C_11  and  O_12
REMARK    5  A    between atoms: O_12  and  C_13
REMARK    6  A    between atoms: C_13  and  C_15
REMARK    7  A    between atoms: C_19  and  S_21
REMARK    8  A    between atoms: S_21  and  N_24
REMARK    9  A    between atoms: N_24  and  C_25
REMARK                            x       y       z     vdW  Elec       q    Type
REMARK                         _______ _______ _______ _____ _____    ______ ____
ROOT
ATOM      1  C   UNL     1      -4.836   1.249   0.032  0.00  0.00    +0.340 C 
ATOM      2  O   UNL     1      -4.979   0.043   0.026  0.00  0.00    -0.245 OA
ENDROOT
BRANCH   1   3
ATOM      3  C   UNL     1      -6.020   2.133   0.042  0.00  0.00    +0.061 A 
ATOM      4  C   UNL     1      -5.859   3.520   0.055  0.00  0.00    +0.015 A 
ATOM      5  C   UNL     1      -6.968   4.340   0.059  0.00  0.00    +0.003 A 
ATOM      6  C   UNL     1      -8.239   3.790   0.062  0.00  0.00    +0.028 A 
ATOM      7  C   UNL     1      -8.405   2.417   0.055  0.00  0.00    +0.106 A 
ATOM      8  C   UNL     1      -7.304   1.585   0.045  0.00  0.00    +0.043 A 
BRANCH   7   9
ATOM      9  S   UNL     1     -10.027   1.728   0.059  0.00  0.00    +0.059 S 
ATOM     10  O   UNL     1     -10.890   2.718  -0.482  0.00  0.00    -0.153 OA
ATOM     11  O   UNL     1      -9.916   0.426  -0.499  0.00  0.00    -0.153 OA
BRANCH   9  12
ATOM     12  N   UNL     1     -10.470   1.528   1.642  0.00  0.00    -0.187 NA
ATOM     13  H   UNL     1     -10.471   0.517   2.076  0.00  0.00    +0.148 HD
BRANCH  12  14
ATOM     14  C   UNL     1     -10.643   2.697   2.507  0.00  0.00    +0.077 C 
ATOM     15  C   UNL     1     -10.275   2.543   3.985  0.00  0.00    +0.022 C 
ATOM     16  C   UNL     1     -11.744   2.634   3.568  0.00  0.00    +0.022 C 
ENDBRANCH  12  14
ENDBRANCH   9  12
ENDBRANCH   7   9
ENDBRANCH   1   3
BRANCH   1  17
ATOM     17  O   UNL     1      -3.598   1.781   0.029  0.00  0.00    -0.452 OA
BRANCH  17  18
ATOM     18  C   UNL     1      -2.482   0.853   0.018  0.00  0.00    +0.328 C 
BRANCH  18  20
ATOM     19  N   UNL     1      -0.011   0.966   0.007  0.00  0.00    -0.266 N 
ATOM     20  C   UNL     1      -1.187   1.624   0.017  0.00  0.00    +0.256 C 
ATOM     21  O   UNL     1      -1.204   2.836   0.023  0.00  0.00    -0.272 OA
ATOM     22  H   UNL     1       0.004  -0.134   0.006  0.00  0.00    +0.156 HD
BRANCH  19  28
ATOM     23  C   UNL     1       2.188   5.221   0.009  0.00  0.00    +0.067 C 
ATOM     24  C   UNL     1       2.272   3.716   0.000  0.00  0.00    +0.059 A 
ATOM     25  C   UNL     1       3.510   3.102  -0.015  0.00  0.00    +0.063 A 
ATOM     26  C   UNL     1       3.580   1.715  -0.023  0.00  0.00    +0.045 A 
ATOM     27  C   UNL     1       2.398   0.994  -0.010  0.00  0.00    +0.082 A 
ATOM     28  C   UNL     1       1.187   1.680  -0.000  0.00  0.00    +0.144 A 
ATOM     29  N   UNL     1       1.162   3.003   0.007  0.00  0.00    -0.234 NA
ATOM     30 CL   UNL     1       2.425  -0.742  -0.012  0.00  0.00    -0.080 Cl
ATOM     31 CL   UNL     1       4.962   4.054  -0.025  0.00  0.00    -0.082 Cl
ENDBRANCH  19  28
ENDBRANCH  18  20
ENDBRANCH  17  18
ENDBRANCH   1  17
TORSDOF 8
