REMARK  Name = ZINC38937178
REMARK  9 active torsions:
REMARK  status: ('A' for Active; 'I' for Inactive)
REMARK    1  A    between atoms: C_1  and  C_2
REMARK    2  A    between atoms: C_2  and  C_3
REMARK    3  A    between atoms: C_3  and  C_4
REMARK    4  A    between atoms: C_4  and  O_5
REMARK    5  A    between atoms: O_5  and  C_6
REMARK    6  A    between atoms: C_9  and  C_12
REMARK    7  A    between atoms: C_14  and  C_18
REMARK    8  A    between atoms: N_20  and  N_21
REMARK    9  A    between atoms: C_22  and  C_23
REMARK                            x       y       z     vdW  Elec       q    Type
REMARK                         _______ _______ _______ _____ _____    ______ ____
ROOT
ATOM      1  C   UNL     1       1.844  -8.043  -3.112  0.00  0.00    +0.092 C 
ATOM      2  C   UNL     1       2.450  -8.646  -4.153  0.00  0.00    +0.041 C 
ATOM      3  C   UNL     1       2.293 -10.127  -3.857  0.00  0.00    +0.240 C 
ATOM      4  N   UNL     1       1.558 -10.139  -2.582  0.00  0.00    -0.170 NA
ATOM      5  N   UNL     1       1.359  -8.970  -2.244  0.00  0.00    -0.153 NA
ENDROOT
BRANCH   1   9
ATOM      6  C   UNL     1       1.514  -3.833  -2.603  0.00  0.00    +0.121 A 
ATOM      7  C   UNL     1       0.978  -4.690  -1.651  0.00  0.00    +0.046 A 
ATOM      8  C   UNL     1       1.084  -6.055  -1.814  0.00  0.00    +0.013 A 
ATOM      9  C   UNL     1       1.728  -6.575  -2.935  0.00  0.00    +0.002 A 
ATOM     10  C   UNL     1       2.265  -5.712  -3.889  0.00  0.00    +0.013 A 
ATOM     11  C   UNL     1       2.152  -4.347  -3.724  0.00  0.00    +0.046 A 
BRANCH   6  12
ATOM     12  O   UNL     1       1.408  -2.488  -2.441  0.00  0.00    -0.492 OA
BRANCH  12  13
ATOM     13  C   UNL     1       0.739  -2.027  -1.265  0.00  0.00    +0.229 C 
BRANCH  13  14
ATOM     14  C   UNL     1       0.718  -0.497  -1.257  0.00  0.00    +0.041 C 
BRANCH  14  16
ATOM     15  C   UNL     1      -0.019   1.526   0.010  0.00  0.00    +0.004 C 
ATOM     16  C   UNL     1       0.002  -0.004   0.002  0.00  0.00    -0.000 C 
ENDBRANCH  14  16
ENDBRANCH  13  14
ENDBRANCH  12  13
ENDBRANCH   6  12
ENDBRANCH   1   9
BRANCH   3  17
ATOM     17  C   UNL     1       1.496 -10.805  -4.941  0.00  0.00    +0.263 C 
ATOM     18  O   UNL     1       0.319 -11.041  -4.771  0.00  0.00    -0.271 OA
ATOM     19  N   UNL     1       2.091 -11.149  -6.101  0.00  0.00    -0.205 N 
ATOM     20  H   UNL     1       3.033 -10.961  -6.237  0.00  0.00    +0.177 HD
BRANCH  19  21
ATOM     21  N   UNL     1       1.350 -11.780  -7.109  0.00  0.00    -0.188 NA
ATOM     22  C   UNL     1       1.928 -12.114  -8.235  0.00  0.00    +0.136 C 
BRANCH  22  23
ATOM     23  C   UNL     1       1.186 -12.745  -9.243  0.00  0.00    +0.000 C 
ATOM     24  C   UNL     1       1.646 -13.168 -10.488  0.00  0.00    +0.004 A 
ATOM     25  C   UNL     1       2.915 -13.109 -11.107  0.00  0.00    +0.010 A 
ATOM     26  C   UNL     1       3.077 -13.611 -12.357  0.00  0.00    +0.001 A 
ATOM     27  C   UNL     1       2.015 -14.190 -13.058  0.00  0.00    +0.002 A 
ATOM     28  C   UNL     1       0.772 -14.280 -12.527  0.00  0.00    +0.026 A 
ATOM     29  C   UNL     1       0.523 -13.777 -11.222  0.00  0.00    +0.043 A 
ATOM     30  N   UNL     1      -0.574 -13.744 -10.496  0.00  0.00    -0.380 N 
ATOM     31  C   UNL     1      -0.281 -13.114  -9.205  0.00  0.00    +0.150 C 
ATOM     32  H   UNL     1      -1.439 -14.086 -10.770  0.00  0.00    +0.160 HD
ENDBRANCH  22  23
ENDBRANCH  19  21
ENDBRANCH   3  17
TORSDOF 8
