REMARK  Name = ZINC40479560
REMARK  4 active torsions:
REMARK  status: ('A' for Active; 'I' for Inactive)
REMARK    1  A    between atoms: C_4  and  C_7
REMARK    2  A    between atoms: C_4  and  N_19
REMARK    3  A    between atoms: N_9  and  C_10
REMARK    4  A    between atoms: C_10  and  C_16
REMARK                            x       y       z     vdW  Elec       q    Type
REMARK                         _______ _______ _______ _____ _____    ______ ____
ROOT
ATOM      1  C   UNL     1       2.883  -0.467  -0.009  0.00  0.00    +0.202 C 
ATOM      2  O   UNL     1       2.847   0.193  -1.026  0.00  0.00    -0.277 OA
ATOM      3  N   UNL     1       3.554  -1.636   0.011  0.00  0.00    -0.301 N 
ATOM      4  H   UNL     1       3.582  -2.164   0.825  0.00  0.00    +0.150 HD
ENDROOT
BRANCH   1   8
ATOM      5  C   UNL     1      -0.275   1.089   0.036  0.00  0.00    -0.000 C 
ATOM      6  C   UNL     1       1.065   1.813  -0.105  0.00  0.00    -0.001 C 
ATOM      7  C   UNL     1       1.933   1.525   1.121  0.00  0.00    -0.004 C 
ATOM      8  C   UNL     1       2.178   0.019   1.231  0.00  0.00    +0.007 C 
ATOM      9  C   UNL     1       0.838  -0.706   1.372  0.00  0.00    -0.004 C 
ATOM     10  C   UNL     1      -0.030  -0.418   0.146  0.00  0.00    -0.001 C 
BRANCH   8  11
ATOM     11  N   UNL     1       3.011  -0.258   2.408  0.00  0.00    +0.388 N 
ATOM     12  H   UNL     1       2.538   0.067   3.239  0.00  0.00    -0.089 HD
ATOM     13  H   UNL     1       3.172  -1.252   2.481  0.00  0.00    -0.089 HD
ATOM     14  H   UNL     1       3.894   0.220   2.315  0.00  0.00    -0.089 HD
ENDBRANCH   8  11
ENDBRANCH   1   8
BRANCH   3  15
ATOM     15  C   UNL     1       4.239  -2.109  -1.194  0.00  0.00    +0.136 C 
ATOM     16  C   UNL     1       3.222  -2.286  -2.323  0.00  0.00    +0.037 C 
ATOM     17  C   UNL     1       2.167  -3.311  -1.902  0.00  0.00    +0.003 C 
ATOM     18  C   UNL     1       2.845  -4.651  -1.611  0.00  0.00    +0.000 C 
ATOM     19  C   UNL     1       3.862  -4.473  -0.482  0.00  0.00    +0.003 C 
ATOM     20  C   UNL     1       4.917  -3.449  -0.903  0.00  0.00    +0.037 C 
BRANCH  15  21
ATOM     21  C   UNL     1       5.279  -1.099  -1.609  0.00  0.00    +0.379 C 
ATOM     22  O   UNL     1       5.433  -0.080  -0.958  0.00  0.00    -0.244 OA
ATOM     23  O   UNL     1       5.966  -1.302  -2.595  0.00  0.00    -0.244 OA
ENDBRANCH  15  21
ENDBRANCH   3  15
TORSDOF 4
