REMARK  Name = ZINC03039204
REMARK  10 active torsions:
REMARK  status: ('A' for Active; 'I' for Inactive)
REMARK    1  A    between atoms: C_3  and  C_10
REMARK    2  A    between atoms: C_5  and  N_7
REMARK    3  A    between atoms: C_10  and  C_12
REMARK    4  A    between atoms: C_10  and  O_27
REMARK    5  A    between atoms: C_12  and  N_50
REMARK    6  A    between atoms: C_13  and  C_14
REMARK    7  A    between atoms: C_13  and  N_50
REMARK    8  A    between atoms: C_14  and  C_19
REMARK    9  A    between atoms: C_22  and  O_26
REMARK   10  A    between atoms: C_23  and  O_25
REMARK                            x       y       z     vdW  Elec       q    Type
REMARK                         _______ _______ _______ _____ _____    ______ ____
ROOT
ATOM      1  C   UNL     1      -0.276   1.075   0.127  0.00  0.00    -0.071 C 
ENDROOT
BRANCH   1   2
ATOM      2  C   UNL     1      -0.753   1.593  -1.232  0.00  0.00    -0.019 C 
ATOM      3  C   UNL     1      -2.140   1.014  -1.559  0.00  0.00    +0.010 C 
ATOM      4  C   UNL     1      -1.983   0.200  -2.860  0.00  0.00    +0.001 C 
ATOM      5  C   UNL     1      -0.479  -0.168  -2.898  0.00  0.00    +0.001 C 
ATOM      6  C   UNL     1       0.200   1.110  -2.345  0.00  0.00    +0.010 C 
BRANCH   2   7
ATOM      7  C   UNL     1      -0.810   3.099  -1.218  0.00  0.00    -0.039 A 
ATOM      8  C   UNL     1      -1.339   3.778  -2.300  0.00  0.00    +0.008 A 
ATOM      9  C   UNL     1      -1.399   5.159  -2.290  0.00  0.00    +0.049 A 
ATOM     10  C   UNL     1      -0.918   5.866  -1.199  0.00  0.00    +0.158 A 
ATOM     11  C   UNL     1      -0.381   5.182  -0.113  0.00  0.00    +0.158 A 
ATOM     12  C   UNL     1      -0.329   3.797  -0.127  0.00  0.00    +0.053 A 
BRANCH  11  13
ATOM     13  O   UNL     1       0.092   5.871   0.960  0.00  0.00    -0.503 OA
ATOM     14  H   UNL     1       1.028   6.104   0.896  0.00  0.00    +0.292 HD
ENDBRANCH  11  13
BRANCH  10  15
ATOM     15  O   UNL     1      -0.972   7.225  -1.190  0.00  0.00    -0.503 OA
ATOM     16  H   UNL     1      -0.188   7.652  -1.562  0.00  0.00    +0.292 HD
ENDBRANCH  10  15
ENDBRANCH   2   7
ENDBRANCH   1   2
BRANCH   1  17
ATOM     17  N   UNL     1      -1.200   1.547   1.176  0.00  0.00    +0.381 N 
ATOM     18  H   UNL     1      -1.212   2.574   1.179  0.00  0.00    -0.086 HD
ATOM     19  H   UNL     1      -2.144   1.194   0.980  0.00  0.00    -0.086 HD
BRANCH  17  20
ATOM     20  C   UNL     1      -0.764   1.062   2.499  0.00  0.00    -0.046 C 
BRANCH  20  21
ATOM     21  C   UNL     1      -1.739   1.567   3.564  0.00  0.00    +0.128 C 
BRANCH  21  24
ATOM     22  C   UNL     1      -0.974  -0.459   6.657  0.00  0.00    +0.003 A 
ATOM     23  C   UNL     1      -1.437  -0.103   5.403  0.00  0.00    +0.006 A 
ATOM     24  C   UNL     1      -1.235   1.180   4.930  0.00  0.00    -0.019 A 
ATOM     25  C   UNL     1      -0.566   2.106   5.708  0.00  0.00    +0.038 A 
ATOM     26  C   UNL     1      -0.108   1.752   6.964  0.00  0.00    +0.127 A 
ATOM     27  C   UNL     1      -0.310   0.469   7.437  0.00  0.00    +0.033 A 
BRANCH  26  28
ATOM     28  N   UNL     1       0.604   2.746   7.799  0.00  0.00    +0.056 N 
ATOM     29  O   UNL     1       1.012   2.433   8.903  0.00  0.00    -0.126 OA
ATOM     30  O   UNL     1       0.781   3.876   7.382  0.00  0.00    -0.126 OA
ENDBRANCH  26  28
ENDBRANCH  21  24
BRANCH  21  31
ATOM     31  O   UNL     1      -3.026   0.983   3.348  0.00  0.00    -0.389 OA
ATOM     32  H   UNL     1      -3.031   0.017   3.390  0.00  0.00    +0.210 HD
ENDBRANCH  21  31
ENDBRANCH  20  21
ENDBRANCH  17  20
ENDBRANCH   1  17
TORSDOF 10
