REMARK  Name = ZINC35349459
REMARK  13 active torsions:
REMARK  status: ('A' for Active; 'I' for Inactive)
REMARK    1  A    between atoms: C_1  and  C_2
REMARK    2  A    between atoms: C_2  and  C_4
REMARK    3  A    between atoms: C_2  and  C_35
REMARK    4  A    between atoms: C_4  and  C_5
REMARK    5  A    between atoms: N_15  and  C_24
REMARK    6  A    between atoms: N_17  and  C_18
REMARK    7  A    between atoms: C_24  and  C_25
REMARK    8  A    between atoms: N_27  and  C_28
REMARK    9  A    between atoms: C_28  and  C_29
REMARK   10  A    between atoms: C_35  and  C_36
REMARK   11  A    between atoms: C_36  and  C_37
REMARK   12  A    between atoms: C_36  and  C_38
REMARK   13  A    between atoms: C_36  and  C_39
REMARK                            x       y       z     vdW  Elec       q    Type
REMARK                         _______ _______ _______ _____ _____    ______ ____
ROOT
ATOM      1  C   UNL     1      -2.659  -0.032  -0.821  0.00  0.00    +0.216 C 
ATOM      2  O   UNL     1      -2.624   0.936  -1.551  0.00  0.00    -0.276 OA
ATOM      3  N   UNL     1      -3.753  -0.820  -0.800  0.00  0.00    -0.301 N 
ATOM      4  C   UNL     1      -3.813  -1.993   0.083  0.00  0.00    +0.110 C 
ATOM      5  C   UNL     1      -4.156  -3.226  -0.759  0.00  0.00    +0.054 C 
ATOM      6  C   UNL     1      -5.438  -2.959  -1.548  0.00  0.00    +0.115 C 
ATOM      7  C   UNL     1      -5.242  -1.768  -2.485  0.00  0.00    +0.054 C 
ATOM      8  C   UNL     1      -4.910  -0.518  -1.654  0.00  0.00    +0.110 C 
ATOM      9  C   UNL     1      -5.821  -4.182  -2.341  0.00  0.00    +0.241 C 
ATOM     10  O   UNL     1      -5.145  -4.701  -3.204  0.00  0.00    -0.273 OA
ATOM     11  N   UNL     1      -7.030  -4.606  -1.938  0.00  0.00    -0.275 N 
ATOM     12  C   UNL     1      -7.545  -3.737  -0.880  0.00  0.00    +0.217 C 
ATOM     13  N   UNL     1      -6.547  -2.691  -0.624  0.00  0.00    -0.300 N 
ENDROOT
BRANCH  13  14
ATOM     14  C   UNL     1      -6.634  -1.654   0.308  0.00  0.00    +0.032 A 
ATOM     15  C   UNL     1      -7.788  -1.493   1.064  0.00  0.00    +0.023 A 
ATOM     16  C   UNL     1      -7.871  -0.467   1.985  0.00  0.00    +0.002 A 
ATOM     17  C   UNL     1      -6.807   0.399   2.155  0.00  0.00    +0.000 A 
ATOM     18  C   UNL     1      -5.656   0.241   1.404  0.00  0.00    +0.002 A 
ATOM     19  C   UNL     1      -5.565  -0.786   0.485  0.00  0.00    +0.023 A 
ENDBRANCH  13  14
BRANCH   1  20
ATOM     20  C   UNL     1      -1.481  -0.354   0.060  0.00  0.00    +0.099 C 
BRANCH  20  22
ATOM     21  C   UNL     1      -0.878   2.057   0.316  0.00  0.00    +0.008 C 
ATOM     22  C   UNL     1      -0.382   0.688  -0.155  0.00  0.00    -0.005 C 
BRANCH  22  23
ATOM     23  C   UNL     1       0.861   0.293   0.645  0.00  0.00    +0.010 C 
BRANCH  23  24
ATOM     24  C   UNL     1       2.101   0.919   0.004  0.00  0.00    -0.037 C 
ATOM     25  C   UNL     1       1.902   2.431  -0.122  0.00  0.00    +0.010 C 
ATOM     26  C   UNL     1       3.325   0.636   0.877  0.00  0.00    +0.010 C 
ATOM     27  C   UNL     1       2.316   0.316  -1.386  0.00  0.00    +0.010 C 
ENDBRANCH  23  24
ENDBRANCH  22  23
ENDBRANCH  20  22
ENDBRANCH   1  20
BRANCH  11  28
ATOM     28  C   UNL     1      -7.733  -5.771  -2.481  0.00  0.00    +0.205 C 
BRANCH  28  29
ATOM     29  C   UNL     1      -7.359  -6.997  -1.689  0.00  0.00    +0.230 C 
ATOM     30  O   UNL     1      -6.582  -6.907  -0.762  0.00  0.00    -0.274 OA
ATOM     31  N   UNL     1      -7.888  -8.194  -2.011  0.00  0.00    -0.314 N 
ATOM     32  H   UNL     1      -8.510  -8.267  -2.752  0.00  0.00    +0.149 HD
BRANCH  31  33
ATOM     33  C   UNL     1      -7.525  -9.387  -1.241  0.00  0.00    +0.107 C 
BRANCH  33  34
ATOM     34  C   UNL     1      -8.259 -10.603  -1.808  0.00  0.00    +0.006 C 
ATOM     35  C   UNL     1      -9.765 -10.432  -1.602  0.00  0.00    +0.005 C 
ATOM     36  C   UNL     1     -10.499 -11.649  -2.169  0.00  0.00    +0.000 C 
ATOM     37  C   UNL     1     -10.026 -12.912  -1.447  0.00  0.00    +0.000 C 
ATOM     38  C   UNL     1      -8.519 -13.083  -1.653  0.00  0.00    +0.000 C 
ATOM     39  C   UNL     1      -7.786 -11.867  -1.086  0.00  0.00    +0.005 C 
ENDBRANCH  33  34
ENDBRANCH  31  33
ENDBRANCH  28  29
ENDBRANCH  11  28
TORSDOF 9
