REMARK  Name = ZINC33386983
REMARK  11 active torsions:
REMARK  status: ('A' for Active; 'I' for Inactive)
REMARK    1  A    between atoms: C_1  and  C_2
REMARK    2  A    between atoms: C_3  and  C_19
REMARK    3  A    between atoms: C_4  and  N_12
REMARK    4  A    between atoms: N_5  and  C_11
REMARK    5  A    between atoms: C_8  and  C_9
REMARK    6  A    between atoms: N_15  and  C_18
REMARK    7  A    between atoms: N_23  and  C_27
REMARK    8  A    between atoms: C_27  and  C_28
REMARK    9  A    between atoms: C_28  and  C_29
REMARK   10  A    between atoms: C_32  and  O_35
REMARK   11  A    between atoms: O_35  and  C_36
REMARK                            x       y       z     vdW  Elec       q    Type
REMARK                         _______ _______ _______ _____ _____    ______ ____
ROOT
ATOM      1  C   UNL     1      -0.061  -1.125   0.083  0.00  0.00    +0.046 C 
ATOM      2  C   UNL     1       0.515  -2.518   0.084  0.00  0.00    -0.017 A 
ATOM      3  C   UNL     1       1.905  -2.716   0.117  0.00  0.00    +0.019 A 
ATOM      4  C   UNL     1       2.417  -4.024   0.122  0.00  0.00    +0.111 A 
ATOM      5  N   UNL     1       1.579  -5.092   0.091  0.00  0.00    -0.298 N 
ATOM      6  C   UNL     1       0.245  -4.929   0.054  0.00  0.00    +0.270 A 
ATOM      7  O   UNL     1      -0.483  -5.906   0.027  0.00  0.00    -0.266 OA
ATOM      8  C   UNL     1      -0.323  -3.629   0.047  0.00  0.00    +0.120 A 
ATOM      9  C   UNL     1       2.139  -6.446   0.098  0.00  0.00    +0.154 C 
ENDROOT
BRANCH   4  10
ATOM     10  N   UNL     1       3.766  -4.222   0.158  0.00  0.00    -0.320 N 
ATOM     11  C   UNL     1       4.336  -3.740   1.424  0.00  0.00    +0.088 C 
ATOM     12  C   UNL     1       5.834  -4.053   1.458  0.00  0.00    -0.060 C 
ATOM     13  N   UNL     1       6.491  -3.413   0.311  0.00  0.00    +0.380 N 
ATOM     14  C   UNL     1       5.922  -3.894  -0.955  0.00  0.00    -0.060 C 
ATOM     15  C   UNL     1       4.424  -3.582  -0.989  0.00  0.00    +0.088 C 
ATOM     16  C   UNL     1       7.944  -3.627   0.350  0.00  0.00    -0.096 C 
ATOM     17  H   UNL     1       6.309  -2.330   0.375  0.00  0.00    -0.082 HD
ENDBRANCH   4  10
BRANCH   3  18
ATOM     18  C   UNL     1       2.813  -1.568   0.150  0.00  0.00    +0.032 C 
ATOM     19  C   UNL     1       2.906  -0.741  -0.927  0.00  0.00    +0.077 C 
ATOM     20  C   UNL     1       3.612   0.492  -1.068  0.00  0.00    +0.258 C 
ATOM     21  O   UNL     1       4.256   0.955  -0.144  0.00  0.00    -0.269 OA
ATOM     22  N   UNL     1       3.546   1.116  -2.231  0.00  0.00    -0.255 N 
ATOM     23  C   UNL     1       2.831   0.601  -3.256  0.00  0.00    +0.121 C 
ATOM     24  S   UNL     1       2.614   1.229  -4.834  0.00  0.00    -0.027 S 
ATOM     25  S   UNL     1       2.176  -0.904  -2.551  0.00  0.00    -0.061 S 
BRANCH  22  26
ATOM     26  C   UNL     1       4.258   2.383  -2.413  0.00  0.00    +0.119 C 
BRANCH  26  27
ATOM     27  C   UNL     1       3.341   3.544  -2.023  0.00  0.00    +0.054 C 
BRANCH  27  28
ATOM     28  C   UNL     1       4.073   4.847  -2.210  0.00  0.00    -0.046 A 
ATOM     29  C   UNL     1       4.803   5.384  -1.165  0.00  0.00    +0.007 A 
ATOM     30  C   UNL     1       5.480   6.576  -1.335  0.00  0.00    +0.046 A 
ATOM     31  C   UNL     1       5.418   7.241  -2.552  0.00  0.00    +0.120 A 
ATOM     32  C   UNL     1       4.680   6.703  -3.596  0.00  0.00    +0.046 A 
ATOM     33  C   UNL     1       4.010   5.507  -3.423  0.00  0.00    +0.007 A 
BRANCH  31  34
ATOM     34  O   UNL     1       6.078   8.417  -2.719  0.00  0.00    -0.495 OA
ATOM     35  C   UNL     1       6.817   8.911  -1.601  0.00  0.00    +0.277 C 
ENDBRANCH  31  34
ENDBRANCH  27  28
ENDBRANCH  26  27
ENDBRANCH  22  26
ENDBRANCH   3  18
BRANCH   8  36
ATOM     36  C   UNL     1      -1.744  -3.462   0.007  0.00  0.00    +0.105 C 
ATOM     37  N   UNL     1      -2.872  -3.329  -0.024  0.00  0.00    -0.191 NA
ENDBRANCH   8  36
TORSDOF 7
