REMARK  Name = ZINC12483578
REMARK  9 active torsions:
REMARK  status: ('A' for Active; 'I' for Inactive)
REMARK    1  A    between atoms: C_1  and  C_2
REMARK    2  A    between atoms: C_2  and  N_3
REMARK    3  A    between atoms: N_3  and  C_4
REMARK    4  A    between atoms: C_4  and  C_5
REMARK    5  A    between atoms: N_7  and  C_8
REMARK    6  A    between atoms: C_16  and  C_18
REMARK    7  A    between atoms: C_21  and  N_27
REMARK    8  A    between atoms: C_22  and  N_24
REMARK    9  A    between atoms: C_31  and  C_34
REMARK                            x       y       z     vdW  Elec       q    Type
REMARK                         _______ _______ _______ _____ _____    ______ ____
ROOT
ATOM      1  N   UNL     1       4.668   2.695  -1.217  0.00  0.00    -0.289 N 
ATOM      2  C   UNL     1       3.370   3.053  -1.171  0.00  0.00    +0.247 C 
ATOM      3  O   UNL     1       2.550   2.305  -0.675  0.00  0.00    -0.270 OA
ENDROOT
BRANCH   2   4
ATOM      4  C   UNL     1       2.944   4.353  -1.723  0.00  0.00    +0.039 A 
ATOM      5  C   UNL     1       3.655   5.515  -1.407  0.00  0.00    +0.015 A 
ATOM      6  C   UNL     1       3.254   6.726  -1.923  0.00  0.00    +0.026 A 
ATOM      7  C   UNL     1       2.143   6.795  -2.759  0.00  0.00    +0.060 A 
ATOM      8  C   UNL     1       1.437   5.640  -3.079  0.00  0.00    +0.148 A 
ATOM      9  C   UNL     1       1.828   4.426  -2.562  0.00  0.00    +0.047 A 
BRANCH   7  10
ATOM     10  N   UNL     1       1.741   8.021  -3.278  0.00  0.00    -0.328 N 
ATOM     11  C   UNL     1       1.318   8.933  -2.208  0.00  0.00    +0.105 C 
ATOM     12  C   UNL     1       0.747  10.213  -2.823  0.00  0.00    +0.019 C 
ATOM     13  C   UNL     1       1.819  10.878  -3.692  0.00  0.00    +0.006 C 
ATOM     14  C   UNL     1       2.277   9.890  -4.768  0.00  0.00    +0.003 C 
ATOM     15  C   UNL     1       2.803   8.619  -4.097  0.00  0.00    +0.108 C 
ATOM     16  C   UNL     1       3.390  10.525  -5.604  0.00  0.00    +0.009 C 
ENDBRANCH   7  10
BRANCH   8  17
ATOM     17  N   UNL     1       0.259   5.717  -3.973  0.00  0.00    +0.058 N 
ATOM     18  O   UNL     1      -0.362   4.706  -4.251  0.00  0.00    -0.126 OA
ATOM     19  O   UNL     1      -0.088   6.790  -4.432  0.00  0.00    -0.126 OA
ENDBRANCH   8  17
ENDBRANCH   2   4
BRANCH   1  21
ATOM     20  C   UNL     1       6.363   4.293  -0.470  0.00  0.00    +0.024 C 
ATOM     21  C   UNL     1       5.677   3.652  -1.679  0.00  0.00    +0.105 C 
ENDBRANCH   1  21
BRANCH   1  22
ATOM     22  C   UNL     1       5.071   1.348  -0.805  0.00  0.00    +0.204 C 
BRANCH  22  23
ATOM     23  C   UNL     1       5.036   0.426  -1.996  0.00  0.00    +0.235 C 
ATOM     24  O   UNL     1       4.706   0.852  -3.083  0.00  0.00    -0.274 OA
ATOM     25  N   UNL     1       5.370  -0.872  -1.855  0.00  0.00    -0.282 N 
ATOM     26  H   UNL     1       5.566  -1.229  -0.974  0.00  0.00    +0.155 HD
BRANCH  25  27
ATOM     27  C   UNL     1       5.435  -1.705  -2.978  0.00  0.00    +0.070 A 
ATOM     28  C   UNL     1       4.383  -1.734  -3.885  0.00  0.00    +0.064 A 
ATOM     29  C   UNL     1       4.452  -2.554  -4.996  0.00  0.00    +0.022 A 
ATOM     30  C   UNL     1       5.563  -3.353  -5.199  0.00  0.00    +0.003 A 
ATOM     31  C   UNL     1       6.609  -3.330  -4.296  0.00  0.00    +0.022 A 
ATOM     32  C   UNL     1       6.549  -2.509  -3.186  0.00  0.00    +0.064 A 
ATOM     33 CL   UNL     1       7.863  -2.482  -2.052  0.00  0.00    -0.082 Cl
ATOM     34 CL   UNL     1       2.986  -0.736  -3.628  0.00  0.00    -0.082 Cl
ENDBRANCH  25  27
ENDBRANCH  22  23
ENDBRANCH   1  22
TORSDOF 7
