REMARK  Name = ZINC06509861
REMARK  6 active torsions:
REMARK  status: ('A' for Active; 'I' for Inactive)
REMARK    1  A    between atoms: C_1  and  C_2
REMARK    2  A    between atoms: C_2  and  C_4
REMARK    3  A    between atoms: C_2  and  N_12
REMARK    4  A    between atoms: C_13  and  C_15
REMARK    5  A    between atoms: C_15  and  N_16
REMARK    6  A    between atoms: C_17  and  C_19
REMARK                            x       y       z     vdW  Elec       q    Type
REMARK                         _______ _______ _______ _____ _____    ______ ____
ROOT
ATOM      1  N   UNL     1       4.831   1.749  -0.035  0.00  0.00    -0.307 N 
ATOM      2  C   UNL     1       3.554   2.181  -0.020  0.00  0.00    +0.231 C 
ATOM      3  O   UNL     1       3.316   3.370  -0.011  0.00  0.00    -0.274 OA
ATOM      4  H   UNL     1       5.021   0.798  -0.042  0.00  0.00    +0.149 HD
ENDROOT
BRANCH   1   6
ATOM      5  C   UNL     1       6.217   3.155  -1.478  0.00  0.00    +0.033 C 
ATOM      6  C   UNL     1       5.931   2.716  -0.040  0.00  0.00    +0.102 C 
BRANCH   6   7
ATOM      7  C   UNL     1       7.164   2.077   0.545  0.00  0.00    -0.009 A 
ATOM      8  C   UNL     1       7.313   0.703   0.511  0.00  0.00    +0.008 A 
ATOM      9  C   UNL     1       8.446   0.117   1.043  0.00  0.00    +0.020 A 
ATOM     10  C   UNL     1       9.427   0.904   1.619  0.00  0.00    +0.042 A 
ATOM     11  C   UNL     1       9.276   2.278   1.659  0.00  0.00    +0.040 A 
ATOM     12  C   UNL     1       8.144   2.865   1.122  0.00  0.00    +0.047 A 
ATOM     13 CL   UNL     1       7.953   4.590   1.171  0.00  0.00    -0.083 Cl
ATOM     14 CL   UNL     1      10.847   0.167   2.293  0.00  0.00    -0.083 Cl
ENDBRANCH   6   7
ENDBRANCH   1   6
BRANCH   2  15
ATOM     15  C   UNL     1       2.422   1.186  -0.015  0.00  0.00    +0.200 C 
BRANCH  15  16
ATOM     16  N   UNL     1       1.143   1.901   0.001  0.00  0.00    -0.303 N 
ATOM     17  C   UNL     1      -0.014   1.211   0.009  0.00  0.00    +0.244 C 
ATOM     18  O   UNL     1       0.002  -0.004   0.002  0.00  0.00    -0.270 OA
ATOM     19  H   UNL     1       1.130   2.871   0.007  0.00  0.00    +0.150 HD
BRANCH  17  20
ATOM     20  C   UNL     1      -1.304   1.933   0.019  0.00  0.00    +0.037 A 
ATOM     21  C   UNL     1      -1.326   3.329   0.032  0.00  0.00    +0.014 A 
ATOM     22  C   UNL     1      -2.533   3.996   0.036  0.00  0.00    +0.021 A 
ATOM     23  C   UNL     1      -3.721   3.285   0.038  0.00  0.00    +0.041 A 
ATOM     24  C   UNL     1      -3.706   1.900   0.030  0.00  0.00    +0.021 A 
ATOM     25  C   UNL     1      -2.505   1.221   0.021  0.00  0.00    +0.014 A 
ATOM     26 CL   UNL     1      -5.236   4.132   0.049  0.00  0.00    -0.084 Cl
ENDBRANCH  17  20
ENDBRANCH  15  16
ENDBRANCH   2  15
TORSDOF 5
