REMARK  Name = ZINC05642673
REMARK  7 active torsions:
REMARK  status: ('A' for Active; 'I' for Inactive)
REMARK    1  A    between atoms: C_1  and  C_2
REMARK    2  A    between atoms: C_2  and  C_3
REMARK    3  A    between atoms: C_3  and  C_4
REMARK    4  A    between atoms: C_3  and  N_6
REMARK    5  A    between atoms: C_4  and  C_5
REMARK    6  A    between atoms: C_9  and  O_11
REMARK    7  A    between atoms: C_12  and  C_19
REMARK                            x       y       z     vdW  Elec       q    Type
REMARK                         _______ _______ _______ _____ _____    ______ ____
ROOT
ATOM      1  N   UNL     1       0.945  -2.036   1.095  0.00  0.00    -0.244 N 
ATOM      2  C   UNL     1       2.181  -2.638   1.095  0.00  0.00    +0.132 A 
ATOM      3  C   UNL     1       1.976  -3.965   0.951  0.00  0.00    +0.072 A 
ATOM      4  C   UNL     1       0.580  -4.179   0.862  0.00  0.00    +0.238 A 
ATOM      5  N   UNL     1      -0.025  -3.027   0.955  0.00  0.00    -0.131 NA
ATOM      6  C   UNL     1       2.957  -5.093   0.883  0.00  0.00    +0.115 C 
ATOM      7  S   UNL     1       4.496  -4.648   0.074  0.00  0.00    -0.138 S 
ATOM      8  C   UNL     1       5.304  -3.465   1.161  0.00  0.00    +0.166 C 
ATOM      9  C   UNL     1       4.602  -2.166   1.222  0.00  0.00    +0.228 C 
ATOM     10  O   UNL     1       5.328  -1.195   1.273  0.00  0.00    -0.275 OA
ATOM     11  N   UNL     1       3.331  -1.897   1.232  0.00  0.00    -0.270 N 
ATOM     12  H   UNL     1       3.151  -0.954   1.366  0.00  0.00    +0.156 HD
ENDROOT
BRANCH   6  13
ATOM     13  C   UNL     1       2.329  -6.235   0.127  0.00  0.00    -0.026 A 
ATOM     14  C   UNL     1       1.925  -6.056  -1.183  0.00  0.00    +0.009 A 
ATOM     15  C   UNL     1       1.348  -7.101  -1.881  0.00  0.00    +0.050 A 
ATOM     16  C   UNL     1       1.175  -8.332  -1.269  0.00  0.00    +0.166 A 
ATOM     17  C   UNL     1       1.583  -8.512   0.051  0.00  0.00    +0.167 A 
ATOM     18  C   UNL     1       2.165  -7.462   0.742  0.00  0.00    +0.054 A 
ATOM     19  O   UNL     1       1.307  -9.797   0.420  0.00  0.00    -0.453 OA
ATOM     20  C   UNL     1       0.357 -10.280  -0.548  0.00  0.00    +0.466 C 
ATOM     21  O   UNL     1       0.644  -9.503  -1.725  0.00  0.00    -0.453 OA
ENDBRANCH   6  13
BRANCH   4  22
ATOM     22  O   UNL     1      -0.029  -5.385   0.712  0.00  0.00    -0.491 OA
ATOM     23  H   UNL     1      -0.247  -5.822   1.546  0.00  0.00    +0.294 HD
ENDBRANCH   4  22
BRANCH   1  24
ATOM     24  C   UNL     1       0.691  -0.599   1.227  0.00  0.00    +0.109 C 
BRANCH  24  26
ATOM     25  C   UNL     1       0.853  -0.226  -1.238  0.00  0.00    +0.006 C 
ATOM     26  C   UNL     1      -0.053  -0.097  -0.012  0.00  0.00    +0.023 C 
ENDBRANCH  24  26
BRANCH  24  27
ATOM     27  C   UNL     1      -0.161  -0.344   2.472  0.00  0.00    +0.023 C 
ATOM     28  C   UNL     1       0.631  -0.736   3.721  0.00  0.00    +0.006 C 
ENDBRANCH  24  27
ENDBRANCH   1  24
TORSDOF 5
