REMARK  Name = ZINC04252109
REMARK  7 active torsions:
REMARK  status: ('A' for Active; 'I' for Inactive)
REMARK    1  A    between atoms: C_1  and  C_2
REMARK    2  A    between atoms: C_8  and  N_10
REMARK    3  A    between atoms: C_14  and  C_16
REMARK    4  A    between atoms: C_16  and  S_17
REMARK    5  A    between atoms: S_17  and  C_18
REMARK    6  A    between atoms: C_20  and  C_24
REMARK    7  A    between atoms: N_22  and  N_23
REMARK                            x       y       z     vdW  Elec       q    Type
REMARK                         _______ _______ _______ _____ _____    ______ ____
ROOT
ATOM      1  C   UNL     1      -5.259   0.801   0.057  0.00  0.00    +0.173 C 
ENDROOT
BRANCH   1   6
ATOM      2  N   UNL     1      -8.654   4.204   0.109  0.00  0.00    -0.296 N 
ATOM      3  C   UNL     1      -8.328   2.896   0.099  0.00  0.00    +0.306 C 
ATOM      4  O   UNL     1      -9.203   2.052   0.103  0.00  0.00    -0.252 OA
ATOM      5  N   UNL     1      -7.033   2.524   0.084  0.00  0.00    -0.239 N 
ATOM      6  C   UNL     1      -6.707   1.216   0.074  0.00  0.00    +0.231 C 
ATOM      7  O   UNL     1      -7.580   0.374   0.078  0.00  0.00    -0.274 OA
ATOM      8  H   UNL     1      -7.956   4.877   0.106  0.00  0.00    +0.151 HD
ATOM      9  H   UNL     1      -6.335   3.198   0.081  0.00  0.00    +0.159 HD
BRANCH   2  16
ATOM     10  C   UNL     1      -9.687   5.996  -1.918  0.00  0.00    +0.009 C 
ATOM     11  C   UNL     1     -10.198   6.008  -0.476  0.00  0.00    +0.006 C 
ATOM     12  C   UNL     1     -11.668   6.430  -0.459  0.00  0.00    +0.005 C 
ATOM     13  C   UNL     1     -12.179   6.442   0.983  0.00  0.00    +0.000 C 
ATOM     14  C   UNL     1     -12.044   5.042   1.584  0.00  0.00    +0.002 C 
ATOM     15  C   UNL     1     -10.573   4.620   1.567  0.00  0.00    +0.022 C 
ATOM     16  C   UNL     1     -10.062   4.608   0.125  0.00  0.00    +0.077 C 
ENDBRANCH   2  16
ENDBRANCH   1   6
BRANCH   1  17
ATOM     17  S   UNL     1      -5.150  -1.006   0.046  0.00  0.00    -0.077 S 
BRANCH  17  18
ATOM     18  C   UNL     1      -3.399  -1.206   0.028  0.00  0.00    +0.187 A 
ATOM     19  N   UNL     1      -2.519  -0.235   0.025  0.00  0.00    -0.221 NA
ATOM     20  C   UNL     1      -1.271  -0.766   0.011  0.00  0.00    +0.092 A 
ATOM     21  C   UNL     1      -1.392  -2.116  -0.001  0.00  0.00    +0.138 A 
ATOM     22  N   UNL     1      -2.737  -2.396   0.015  0.00  0.00    -0.251 N 
BRANCH  20  23
ATOM     23  C   UNL     1       0.002  -0.004   0.002  0.00  0.00    +0.002 A 
ATOM     24  C   UNL     1      -0.017   1.390   0.010  0.00  0.00    +0.010 A 
ATOM     25  C   UNL     1       1.170   2.093   0.002  0.00  0.00    +0.001 A 
ATOM     26  C   UNL     1       2.377   1.418  -0.013  0.00  0.00    +0.000 A 
ATOM     27  C   UNL     1       2.402   0.035  -0.021  0.00  0.00    +0.001 A 
ATOM     28  C   UNL     1       1.221  -0.679  -0.013  0.00  0.00    +0.010 A 
ENDBRANCH  20  23
BRANCH  22  29
ATOM     29  N   UNL     1      -3.305  -3.639   0.013  0.00  0.00    -0.296 N 
ATOM     30  H   UNL     1      -3.464  -3.962  -0.929  0.00  0.00    +0.163 HD
ATOM     31  H   UNL     1      -2.740  -4.295   0.531  0.00  0.00    +0.163 HD
ENDBRANCH  22  29
ENDBRANCH  17  18
ENDBRANCH   1  17
TORSDOF 6
