REMARK  Name = ZINC18097881
REMARK  6 active torsions:
REMARK  status: ('A' for Active; 'I' for Inactive)
REMARK    1  A    between atoms: C_1  and  C_2
REMARK    2  A    between atoms: C_2  and  C_3
REMARK    3  A    between atoms: C_8  and  N_9
REMARK    4  A    between atoms: C_19  and  S_20
REMARK    5  A    between atoms: S_20  and  C_21
REMARK    6  A    between atoms: C_21  and  C_22
REMARK                            x       y       z     vdW  Elec       q    Type
REMARK                         _______ _______ _______ _____ _____    ______ ____
ROOT
ATOM      1  N   UNL     1       0.235  -0.011   2.407  0.00  0.00    -0.255 N 
ATOM      2  C   UNL     1       1.453   0.339   2.877  0.00  0.00    +0.270 A 
ATOM      3  O   UNL     1       2.465   0.059   2.259  0.00  0.00    -0.266 OA
ATOM      4  C   UNL     1       1.523   1.040   4.107  0.00  0.00    +0.103 A 
ATOM      5  C   UNL     1       2.580   1.554   4.885  0.00  0.00    +0.149 A 
ATOM      6  N   UNL     1       2.074   2.119   5.945  0.00  0.00    -0.180 NA
ATOM      7  N   UNL     1       0.678   2.005   5.915  0.00  0.00    -0.260 N 
ATOM      8  H   UNL     1       0.074   2.426   6.733  0.00  0.00    +0.191 HD
ATOM      9  C   UNL     1       0.329   1.339   4.782  0.00  0.00    +0.164 A 
ATOM     10  N   UNL     1      -0.842   0.958   4.253  0.00  0.00    -0.204 NA
ATOM     11  C   UNL     1      -0.893   0.314   3.108  0.00  0.00    +0.179 A 
ENDROOT
BRANCH   1  17
ATOM     12  C   UNL     1       0.002  -0.004   0.002  0.00  0.00    -0.024 A 
ATOM     13  C   UNL     1      -0.110  -0.691  -1.192  0.00  0.00    +0.005 A 
ATOM     14  C   UNL     1      -0.085  -2.073  -1.200  0.00  0.00    +0.000 A 
ATOM     15  C   UNL     1       0.040  -2.773  -0.014  0.00  0.00    +0.002 A 
ATOM     16  C   UNL     1       0.146  -2.092   1.183  0.00  0.00    +0.026 A 
ATOM     17  C   UNL     1       0.128  -0.704   1.194  0.00  0.00    +0.055 A 
BRANCH  12  19
ATOM     18  C   UNL     1       1.417   2.032  -0.001  0.00  0.00    +0.009 C 
ATOM     19  C   UNL     1      -0.018   1.503   0.010  0.00  0.00    +0.034 C 
ENDBRANCH  12  19
ENDBRANCH   1  17
BRANCH  11  20
ATOM     20  S   UNL     1      -2.464  -0.152   2.460  0.00  0.00    -0.081 S 
BRANCH  20  21
ATOM     21  C   UNL     1      -3.545   0.510   3.752  0.00  0.00    +0.133 C 
BRANCH  21  22
ATOM     22  C   UNL     1      -4.982   0.220   3.401  0.00  0.00    +0.059 A 
ATOM     23  C   UNL     1      -5.667  -0.780   4.065  0.00  0.00    +0.094 A 
ATOM     24  C   UNL     1      -7.001  -1.027   3.724  0.00  0.00    +0.259 A 
ATOM     25  O   UNL     1      -7.635  -1.901   4.295  0.00  0.00    -0.267 OA
ATOM     26  N   UNL     1      -7.576  -0.288   2.752  0.00  0.00    -0.267 N 
ATOM     27  C   UNL     1      -8.873  -0.520   2.405  0.00  0.00    +0.111 A 
ATOM     28  C   UNL     1      -9.470   0.208   1.434  0.00  0.00    +0.035 A 
ATOM     29  C   UNL     1      -8.756   1.215   0.769  0.00  0.00    +0.020 A 
ATOM     30  C   UNL     1      -7.458   1.455   1.109  0.00  0.00    +0.048 A 
ATOM     31  C   UNL     1      -6.854   0.688   2.122  0.00  0.00    +0.141 A 
ATOM     32  N   UNL     1      -5.586   0.920   2.454  0.00  0.00    -0.233 NA
ATOM     33 BR   UNL     1     -11.271  -0.135   0.971  0.00  0.00    -0.049 Br
ENDBRANCH  21  22
ENDBRANCH  20  21
ENDBRANCH  11  20
TORSDOF 5
