REMARK  Name = ZINC08813394
REMARK  16 active torsions:
REMARK  status: ('A' for Active; 'I' for Inactive)
REMARK    1  A    between atoms: C_1  and  C_2
REMARK    2  A    between atoms: C_2  and  N_3
REMARK    3  A    between atoms: N_3  and  C_4
REMARK    4  A    between atoms: N_3  and  C_30
REMARK    5  A    between atoms: C_4  and  C_5
REMARK    6  A    between atoms: C_5  and  C_6
REMARK    7  A    between atoms: C_6  and  N_7
REMARK    8  A    between atoms: C_8  and  C_10
REMARK    9  A    between atoms: C_13  and  C_16
REMARK   10  A    between atoms: C_16  and  N_17
REMARK   11  A    between atoms: N_17  and  S_18
REMARK   12  A    between atoms: S_18  and  C_21
REMARK   13  A    between atoms: C_22  and  C_29
REMARK   14  A    between atoms: C_24  and  C_28
REMARK   15  A    between atoms: C_26  and  C_27
REMARK   16  A    between atoms: C_34  and  C_36
REMARK                            x       y       z     vdW  Elec       q    Type
REMARK                         _______ _______ _______ _____ _____    ______ ____
ROOT
ATOM      1  C   UNL     1      -2.660   9.062  -0.494  0.00  0.00    +0.075 C 
ATOM      2  C   UNL     1      -2.132   9.245  -1.918  0.00  0.00    +0.013 C 
ATOM      3  C   UNL     1      -0.615   9.434  -1.879  0.00  0.00    +0.005 C 
ATOM      4  C   UNL     1      -0.275  10.671  -1.046  0.00  0.00    +0.005 C 
ATOM      5  C   UNL     1      -0.803  10.487   0.378  0.00  0.00    +0.005 C 
ATOM      6  C   UNL     1      -2.321  10.299   0.340  0.00  0.00    +0.013 C 
ENDROOT
BRANCH   1   8
ATOM      7  N   UNL     1      -2.182   6.635  -0.440  0.00  0.00    -0.315 N 
ATOM      8  C   UNL     1      -2.019   7.847   0.127  0.00  0.00    +0.216 C 
ATOM      9  O   UNL     1      -1.356   7.960   1.136  0.00  0.00    -0.276 OA
ATOM     10  H   UNL     1      -2.713   6.545  -1.247  0.00  0.00    +0.149 HD
BRANCH   7  11
ATOM     11  C   UNL     1      -1.559   5.455   0.163  0.00  0.00    +0.105 C 
BRANCH  11  12
ATOM     12  C   UNL     1      -1.899   4.217  -0.670  0.00  0.00    +0.037 C 
BRANCH  12  13
ATOM     13  C   UNL     1      -1.248   2.984  -0.040  0.00  0.00    +0.106 C 
BRANCH  13  14
ATOM     14  N   UNL     1      -1.573   1.799  -0.838  0.00  0.00    -0.330 N 
BRANCH  14  15
ATOM     15  C   UNL     1      -2.718   1.054  -0.547  0.00  0.00    +0.030 A 
ATOM     16  C   UNL     1      -3.547   1.432   0.501  0.00  0.00    +0.023 A 
ATOM     17  C   UNL     1      -4.681   0.696   0.783  0.00  0.00    +0.002 A 
ATOM     18  C   UNL     1      -4.986  -0.422   0.029  0.00  0.00    +0.003 A 
ATOM     19  C   UNL     1      -4.161  -0.804  -1.013  0.00  0.00    -0.049 A 
ATOM     20  C   UNL     1      -3.028  -0.070  -1.303  0.00  0.00    +0.026 A 
ATOM     21  C   UNL     1      -4.497  -2.024  -1.832  0.00  0.00    +0.044 C 
ENDBRANCH  14  15
BRANCH  14  23
ATOM     22  C   UNL     1      -1.156   2.075  -3.232  0.00  0.00    +0.024 C 
ATOM     23  C   UNL     1      -0.697   1.395  -1.941  0.00  0.00    +0.102 C 
ENDBRANCH  14  23
ENDBRANCH  13  14
ENDBRANCH  12  13
ENDBRANCH  11  12
ENDBRANCH   7  11
ENDBRANCH   1   8
BRANCH   4  24
ATOM     24  C   UNL     1       1.243  10.859  -1.008  0.00  0.00    +0.109 C 
BRANCH  24  25
ATOM     25  N   UNL     1       1.733  11.154  -2.356  0.00  0.00    -0.190 NA
ATOM     26  H   UNL     1       1.165  10.991  -3.125  0.00  0.00    +0.148 HD
BRANCH  25  27
ATOM     27  S   UNL     1       3.257  11.765  -2.568  0.00  0.00    +0.059 S 
ATOM     28  O   UNL     1       3.443  11.916  -3.969  0.00  0.00    -0.153 OA
ATOM     29  O   UNL     1       3.389  12.851  -1.661  0.00  0.00    -0.153 OA
BRANCH  27  30
ATOM     30  C   UNL     1       4.394  10.527  -2.039  0.00  0.00    +0.111 A 
ATOM     31  C   UNL     1       4.990  10.622  -0.796  0.00  0.00    -0.024 A 
ATOM     32  C   UNL     1       5.878   9.648  -0.379  0.00  0.00    +0.008 A 
ATOM     33  C   UNL     1       6.177   8.584  -1.210  0.00  0.00    -0.050 A 
ATOM     34  C   UNL     1       5.585   8.492  -2.456  0.00  0.00    +0.008 A 
ATOM     35  C   UNL     1       4.693   9.464  -2.870  0.00  0.00    -0.024 A 
ATOM     36  C   UNL     1       4.048   9.364  -4.229  0.00  0.00    +0.046 C 
ATOM     37  C   UNL     1       7.149   7.525  -0.758  0.00  0.00    +0.044 C 
ATOM     38  C   UNL     1       4.668  11.784   0.107  0.00  0.00    +0.046 C 
ENDBRANCH  27  30
ENDBRANCH  25  27
ENDBRANCH  24  25
ENDBRANCH   4  24
TORSDOF 11
