REMARK  Name = ZINC21761291
REMARK  7 active torsions:
REMARK  status: ('A' for Active; 'I' for Inactive)
REMARK    1  A    between atoms: C_1  and  C_2
REMARK    2  A    between atoms: C_4  and  N_30
REMARK    3  A    between atoms: C_6  and  S_8
REMARK    4  A    between atoms: S_8  and  C_9
REMARK    5  A    between atoms: C_9  and  C_10
REMARK    6  A    between atoms: C_20  and  S_22
REMARK    7  A    between atoms: S_22  and  N_25
REMARK                            x       y       z     vdW  Elec       q    Type
REMARK                         _______ _______ _______ _____ _____    ______ ____
ROOT
ATOM      1  C   UNL     1      -2.463   5.160   0.336  0.00  0.00    +0.230 C 
ATOM      2  O   UNL     1      -1.442   5.723   0.671  0.00  0.00    -0.274 OA
ATOM      3  N   UNL     1      -2.442   3.845   0.044  0.00  0.00    -0.270 N 
ATOM      4  C   UNL     1      -3.691   3.122  -0.233  0.00  0.00    +0.114 C 
ATOM      5  C   UNL     1      -3.643   1.792   0.530  0.00  0.00    +0.024 C 
ATOM      6  C   UNL     1      -2.485   0.953  -0.011  0.00  0.00    +0.038 C 
ATOM      7  C   UNL     1      -1.212   1.757  -0.027  0.00  0.00    -0.024 A 
ATOM      8  C   UNL     1      -1.230   3.143  -0.000  0.00  0.00    +0.040 A 
ATOM      9  C   UNL     1      -0.036   3.855  -0.020  0.00  0.00    +0.026 A 
ATOM     10  C   UNL     1       1.169   3.182  -0.059  0.00  0.00    +0.030 A 
ATOM     11  C   UNL     1       1.187   1.800  -0.077  0.00  0.00    +0.106 A 
ATOM     12  C   UNL     1       0.001   1.090  -0.058  0.00  0.00    +0.034 A 
ENDROOT
BRANCH  11  13
ATOM     13  S   UNL     1       2.725   0.941  -0.124  0.00  0.00    +0.061 S 
ATOM     14  O   UNL     1       3.699   1.823   0.416  0.00  0.00    -0.153 OA
ATOM     15  O   UNL     1       2.485  -0.352   0.415  0.00  0.00    -0.153 OA
BRANCH  13  16
ATOM     16  N   UNL     1       3.115   0.723  -1.719  0.00  0.00    -0.177 NA
ATOM     17  C   UNL     1       2.740  -0.436  -2.542  0.00  0.00    +0.109 C 
ATOM     18  C   UNL     1       3.340  -0.214  -3.946  0.00  0.00    +0.018 C 
ATOM     19  C   UNL     1       4.502   0.778  -3.672  0.00  0.00    +0.018 C 
ATOM     20  C   UNL     1       3.901   1.656  -2.546  0.00  0.00    +0.109 C 
ENDBRANCH  13  16
ENDBRANCH  11  13
BRANCH   1  21
ATOM     21  C   UNL     1      -3.754   5.932   0.246  0.00  0.00    +0.173 C 
BRANCH  21  22
ATOM     22  S   UNL     1      -3.428   7.689   0.535  0.00  0.00    -0.077 S 
BRANCH  22  28
ATOM     23  C   UNL     1      -6.680  11.640   0.583  0.00  0.00    +0.066 C 
ATOM     24  C   UNL     1      -6.470  10.157   0.412  0.00  0.00    +0.044 A 
ATOM     25  C   UNL     1      -7.540   9.328   0.136  0.00  0.00    +0.066 A 
ATOM     26  C   UNL     1      -7.301   7.960  -0.015  0.00  0.00    +0.121 A 
ATOM     27  N   UNL     1      -6.059   7.504   0.111  0.00  0.00    -0.207 NA
ATOM     28  C   UNL     1      -5.060   8.333   0.376  0.00  0.00    +0.191 A 
ATOM     29  N   UNL     1      -5.258   9.635   0.529  0.00  0.00    -0.227 NA
BRANCH  26  30
ATOM     30  N   UNL     1      -8.343   7.091  -0.292  0.00  0.00    -0.343 N 
ATOM     31  H   UNL     1      -8.146   6.015  -0.410  0.00  0.00    +0.144 HD
ATOM     32  H   UNL     1      -9.368   7.477  -0.396  0.00  0.00    +0.144 HD
ENDBRANCH  26  30
ENDBRANCH  22  28
ENDBRANCH  21  22
ENDBRANCH   1  21
TORSDOF 6
