REMARK  Name = ZINC35106751
REMARK  14 active torsions:
REMARK  status: ('A' for Active; 'I' for Inactive)
REMARK    1  A    between atoms: C_1  and  C_2
REMARK    2  A    between atoms: C_2  and  C_3
REMARK    3  A    between atoms: C_3  and  C_4
REMARK    4  A    between atoms: C_4  and  C_5
REMARK    5  A    between atoms: C_8  and  C_11
REMARK    6  A    between atoms: N_13  and  C_14
REMARK    7  A    between atoms: N_13  and  C_17
REMARK    8  A    between atoms: C_14  and  C_15
REMARK    9  A    between atoms: C_15  and  C_16
REMARK   10  A    between atoms: C_17  and  C_18
REMARK   11  A    between atoms: C_18  and  C_20
REMARK   12  A    between atoms: C_21  and  C_33
REMARK   13  A    between atoms: N_23  and  C_26
REMARK   14  A    between atoms: C_24  and  O_25
REMARK                            x       y       z     vdW  Elec       q    Type
REMARK                         _______ _______ _______ _____ _____    ______ ____
ROOT
ATOM      1  C   UNL     1     -11.138  -3.969  -1.084  0.00  0.00    +0.108 A 
ATOM      2  C   UNL     1     -12.205  -2.959  -1.141  0.00  0.00    +0.107 A 
ATOM      3  N   UNL     1     -13.347  -3.598  -1.055  0.00  0.00    -0.162 NA
ATOM      4  N   UNL     1     -13.106  -4.970  -0.944  0.00  0.00    -0.199 N 
ATOM      5  C   UNL     1     -11.778  -5.202  -0.967  0.00  0.00    +0.227 A 
ENDROOT
BRANCH   4   6
ATOM      6  C   UNL     1     -14.094  -5.956  -0.833  0.00  0.00    +0.070 A 
ATOM      7  C   UNL     1     -13.904  -7.201  -1.418  0.00  0.00    +0.028 A 
ATOM      8  C   UNL     1     -14.880  -8.172  -1.306  0.00  0.00    +0.003 A 
ATOM      9  C   UNL     1     -16.046  -7.906  -0.612  0.00  0.00    +0.020 A 
ATOM     10  C   UNL     1     -16.239  -6.667  -0.027  0.00  0.00    +0.043 A 
ATOM     11  C   UNL     1     -15.263  -5.693  -0.131  0.00  0.00    +0.048 A 
ATOM     12 CL   UNL     1     -17.704  -6.337   0.843  0.00  0.00    -0.083 Cl
ENDBRANCH   4   6
BRANCH   2  13
ATOM     13  C   UNL     1     -12.024  -1.493  -1.272  0.00  0.00    +0.003 A 
ATOM     14  C   UNL     1     -11.097  -0.980  -2.178  0.00  0.00    +0.010 A 
ATOM     15  C   UNL     1     -10.933   0.385  -2.295  0.00  0.00    +0.001 A 
ATOM     16  C   UNL     1     -11.686   1.244  -1.514  0.00  0.00    +0.000 A 
ATOM     17  C   UNL     1     -12.607   0.741  -0.613  0.00  0.00    +0.001 A 
ATOM     18  C   UNL     1     -12.784  -0.622  -0.492  0.00  0.00    +0.010 A 
ENDBRANCH   2  13
BRANCH   1  19
ATOM     19  C   UNL     1      -9.743  -3.736  -1.143  0.00  0.00    +0.188 C 
ATOM     20  O   UNL     1      -9.316  -2.600  -1.144  0.00  0.00    -0.290 OA
BRANCH  19  21
ATOM     21  C   UNL     1      -8.788  -4.900  -1.205  0.00  0.00    +0.187 C 
BRANCH  21  24
ATOM     22  C   UNL     1      -6.698  -4.268  -0.123  0.00  0.00    +0.247 C 
ATOM     23  O   UNL     1      -5.578  -3.796  -0.160  0.00  0.00    -0.270 OA
ATOM     24  N   UNL     1      -7.412  -4.400  -1.258  0.00  0.00    -0.290 N 
BRANCH  22  28
ATOM     25  C   UNL     1      -8.362  -5.499   3.587  0.00  0.00    -0.047 A 
ATOM     26  C   UNL     1      -9.090  -4.678   2.744  0.00  0.00    +0.004 A 
ATOM     27  C   UNL     1      -8.556  -4.275   1.538  0.00  0.00    +0.013 A 
ATOM     28  C   UNL     1      -7.277  -4.696   1.169  0.00  0.00    +0.037 A 
ATOM     29  C   UNL     1      -6.548  -5.524   2.023  0.00  0.00    +0.013 A 
ATOM     30  C   UNL     1      -7.092  -5.916   3.229  0.00  0.00    +0.004 A 
BRANCH  25  31
ATOM     31  C   UNL     1      -8.953  -5.936   4.902  0.00  0.00    +0.035 C 
BRANCH  31  32
ATOM     32  C   UNL     1      -8.590  -4.920   5.987  0.00  0.00    +0.004 C 
BRANCH  32  34
ATOM     33  C   UNL     1      -8.828  -4.346   8.407  0.00  0.00    +0.004 C 
ATOM     34  C   UNL     1      -9.190  -5.363   7.322  0.00  0.00    -0.003 C 
ENDBRANCH  32  34
ENDBRANCH  31  32
ENDBRANCH  25  31
ENDBRANCH  22  28
BRANCH  24  35
ATOM     35  C   UNL     1      -6.812  -4.043  -2.546  0.00  0.00    +0.108 C 
BRANCH  35  36
ATOM     36  C   UNL     1      -6.219  -5.295  -3.197  0.00  0.00    +0.016 C 
ATOM     37  C   UNL     1      -5.592  -4.922  -4.542  0.00  0.00    +0.005 C 
ENDBRANCH  35  36
ENDBRANCH  24  35
ENDBRANCH  21  24
ENDBRANCH  19  21
ENDBRANCH   1  19
BRANCH   5  38
ATOM     38  O   UNL     1     -11.176  -6.410  -0.886  0.00  0.00    -0.492 OA
ATOM     39  H   UNL     1     -10.976  -6.690   0.017  0.00  0.00    +0.294 HD
ENDBRANCH   5  38
TORSDOF 12
