REMARK  Name = ZINC20206152
REMARK  7 active torsions:
REMARK  status: ('A' for Active; 'I' for Inactive)
REMARK    1  A    between atoms: C_1  and  C_2
REMARK    2  A    between atoms: C_5  and  N_8
REMARK    3  A    between atoms: C_9  and  C_30
REMARK    4  A    between atoms: C_11  and  C_14
REMARK    5  A    between atoms: C_12  and  C_13
REMARK    6  A    between atoms: C_25  and  S_26
REMARK    7  A    between atoms: S_26  and  C_29
REMARK                            x       y       z     vdW  Elec       q    Type
REMARK                         _______ _______ _______ _____ _____    ______ ____
ROOT
ATOM      1  C   UNL     1       1.547  -7.012   0.574  0.00  0.00    +0.026 C 
ATOM      2  C   UNL     1       0.976  -8.207   0.962  0.00  0.00    +0.078 C 
ATOM      3  C   UNL     1       1.803  -9.388   1.338  0.00  0.00    +0.117 C 
ATOM      4  N   UNL     1       2.969  -9.294   1.919  0.00  0.00    -0.386 N 
ATOM      5  N   UNL     1       1.198 -10.617   1.006  0.00  0.00    -0.203 N 
ATOM      6  C   UNL     1      -0.173 -10.655   0.861  0.00  0.00    +0.183 C 
ATOM      7  N   UNL     1      -0.994  -9.631   0.902  0.00  0.00    -0.152 NA
ATOM      8  C   UNL     1      -0.494  -8.385   1.032  0.00  0.00    +0.273 C 
ATOM      9  O   UNL     1      -1.232  -7.427   1.200  0.00  0.00    -0.268 OA
ATOM     10  S   UNL     1      -0.484 -12.274   0.611  0.00  0.00    +0.049 S 
ATOM     11  N   UNL     1       1.089 -12.853   0.585  0.00  0.00    -0.174 NA
ATOM     12  C   UNL     1       1.818 -11.805   0.815  0.00  0.00    +0.257 C 
ATOM     13  H   UNL     1       3.383  -8.425   2.038  0.00  0.00    +0.157 HD
ATOM     14  H   UNL     1       3.421 -10.094   2.231  0.00  0.00    +0.157 HD
ENDROOT
BRANCH   1  18
ATOM     15  N   UNL     1      -0.127  -3.944  -0.417  0.00  0.00    -0.317 N 
ATOM     16  C   UNL     1      -0.912  -4.846  -1.081  0.00  0.00    +0.022 A 
ATOM     17  C   UNL     1      -0.456  -6.087  -0.845  0.00  0.00    +0.031 A 
ATOM     18  C   UNL     1       0.709  -5.941   0.038  0.00  0.00    -0.003 A 
ATOM     19  C   UNL     1       0.854  -4.581   0.255  0.00  0.00    +0.028 A 
ATOM     20  C   UNL     1       1.918  -3.927   1.098  0.00  0.00    +0.064 C 
ATOM     21  C   UNL     1      -2.102  -4.501  -1.940  0.00  0.00    +0.064 C 
BRANCH  15  26
ATOM     22  C   UNL     1      -0.873   1.681  -0.500  0.00  0.00    +0.044 C 
ATOM     23  C   UNL     1      -0.675   0.187  -0.478  0.00  0.00    -0.050 A 
ATOM     24  C   UNL     1      -0.341  -0.482  -1.641  0.00  0.00    +0.005 A 
ATOM     25  C   UNL     1      -0.159  -1.851  -1.625  0.00  0.00    +0.026 A 
ATOM     26  C   UNL     1      -0.310  -2.555  -0.438  0.00  0.00    +0.047 A 
ATOM     27  C   UNL     1      -0.645  -1.881   0.729  0.00  0.00    +0.026 A 
ATOM     28  C   UNL     1      -0.822  -0.511   0.706  0.00  0.00    +0.005 A 
ENDBRANCH  15  26
ENDBRANCH   1  18
BRANCH  12  29
ATOM     29  S   UNL     1       3.575 -11.925   0.876  0.00  0.00    +0.026 S 
ATOM     30  O   UNL     1       3.882 -13.113   0.158  0.00  0.00    -0.167 OA
ATOM     31  O   UNL     1       4.041 -10.663   0.420  0.00  0.00    -0.167 OA
ATOM     32  C   UNL     1       3.967 -12.139   2.634  0.00  0.00    +0.203 C 
ENDBRANCH  12  29
TORSDOF 3
