REMARK  Name = ZINC13994165
REMARK  10 active torsions:
REMARK  status: ('A' for Active; 'I' for Inactive)
REMARK    1  A    between atoms: C_1  and  C_2
REMARK    2  A    between atoms: C_7  and  O_8
REMARK    3  A    between atoms: O_8  and  C_9
REMARK    4  A    between atoms: C_9  and  C_11
REMARK    5  A    between atoms: C_9  and  C_12
REMARK    6  A    between atoms: N_14  and  N_15
REMARK    7  A    between atoms: C_16  and  C_18
REMARK    8  A    between atoms: C_18  and  O_19
REMARK    9  A    between atoms: O_19  and  C_20
REMARK   10  A    between atoms: C_21  and  C_28
REMARK                            x       y       z     vdW  Elec       q    Type
REMARK                         _______ _______ _______ _____ _____    ______ ____
ROOT
ATOM      1  N   UNL     1      -1.089   7.477   1.218  0.00  0.00    -0.231 N 
ATOM      2  C   UNL     1      -2.204   8.225   1.333  0.00  0.00    +0.267 C 
ATOM      3  O   UNL     1      -3.268   7.793   0.940  0.00  0.00    -0.271 OA
ATOM      4  H   UNL     1      -0.239   7.823   1.532  0.00  0.00    +0.173 HD
ENDROOT
BRANCH   1   7
ATOM      5  C   UNL     1      -0.043   5.452   0.530  0.00  0.00    +0.270 C 
ATOM      6  O   UNL     1       1.020   5.885   0.922  0.00  0.00    -0.270 OA
ATOM      7  N   UNL     1      -1.158   6.200   0.644  0.00  0.00    -0.231 N 
ATOM      8  H   UNL     1      -2.008   5.855   0.331  0.00  0.00    +0.173 HD
BRANCH   5   9
ATOM      9  C   UNL     1      -0.117   4.079  -0.087  0.00  0.00    +0.257 C 
ATOM     10  C   UNL     1      -0.516   4.202  -1.559  0.00  0.00    +0.062 C 
BRANCH   9  11
ATOM     11  O   UNL     1       1.160   3.445   0.009  0.00  0.00    -0.480 OA
BRANCH  11  18
ATOM     12  C   UNL     1       3.645   2.170   0.435  0.00  0.00    +0.047 C 
ATOM     13  C   UNL     1       2.367   1.404   0.207  0.00  0.00    -0.009 A 
ATOM     14  C   UNL     1       2.380   0.022   0.200  0.00  0.00    +0.007 A 
ATOM     15  C   UNL     1       1.208  -0.680  -0.009  0.00  0.00    +0.000 A 
ATOM     16  C   UNL     1       0.020  -0.003  -0.212  0.00  0.00    +0.004 A 
ATOM     17  C   UNL     1       0.001   1.378  -0.206  0.00  0.00    +0.046 A 
ATOM     18  C   UNL     1       1.176   2.086   0.003  0.00  0.00    +0.124 A 
ENDBRANCH  11  18
ENDBRANCH   9  11
ENDBRANCH   5   9
ENDBRANCH   1   7
BRANCH   2  19
ATOM     19  C   UNL     1      -2.131   9.598   1.949  0.00  0.00    +0.326 C 
BRANCH  19  20
ATOM     20  O   UNL     1      -3.433  10.187   1.958  0.00  0.00    -0.481 OA
BRANCH  20  21
ATOM     21  C   UNL     1      -3.542  11.435   2.485  0.00  0.00    +0.138 A 
ATOM     22  C   UNL     1      -3.391  12.548   1.671  0.00  0.00    -0.007 A 
ATOM     23  C   UNL     1      -3.502  13.816   2.208  0.00  0.00    +0.022 A 
ATOM     24  C   UNL     1      -3.765  13.977   3.557  0.00  0.00    +0.019 A 
ATOM     25  C   UNL     1      -3.916  12.869   4.371  0.00  0.00    +0.034 A 
ATOM     26  C   UNL     1      -3.810  11.598   3.837  0.00  0.00    +0.061 A 
ATOM     27 BR   UNL     1      -4.025  10.083   4.948  0.00  0.00    -0.046 Br
ATOM     28 BR   UNL     1      -3.918  15.714   4.288  0.00  0.00    -0.050 Br
ATOM     29  C   UNL     1      -3.104  12.374   0.202  0.00  0.00    +0.047 C 
ENDBRANCH  20  21
ENDBRANCH  19  20
ENDBRANCH   2  19
TORSDOF 7
