REMARK  Name = ZINC39116592
REMARK  5 active torsions:
REMARK  status: ('A' for Active; 'I' for Inactive)
REMARK    1  A    between atoms: C_1  and  C_2
REMARK    2  A    between atoms: C_4  and  C_13
REMARK    3  A    between atoms: C_5  and  C_9
REMARK    4  A    between atoms: C_6  and  C_8
REMARK    5  A    between atoms: C_9  and  N_10
REMARK                            x       y       z     vdW  Elec       q    Type
REMARK                         _______ _______ _______ _____ _____    ______ ____
ROOT
ATOM      1  C   UNL     1      -0.018   1.503   0.010  0.00  0.00    +0.044 C 
ATOM      2  C   UNL     1       0.002  -0.004   0.002  0.00  0.00    -0.050 A 
ATOM      3  C   UNL     1       0.006  -0.689  -1.199  0.00  0.00    +0.007 A 
ATOM      4  C   UNL     1       0.025  -2.071  -1.206  0.00  0.00    -0.045 A 
ATOM      5  C   UNL     1       0.040  -2.768  -0.013  0.00  0.00    -0.020 A 
ATOM      6  C   UNL     1       0.037  -2.084   1.188  0.00  0.00    -0.045 A 
ATOM      7  C   UNL     1       0.023  -0.702   1.195  0.00  0.00    +0.007 A 
ATOM      8  C   UNL     1       0.054  -2.844   2.489  0.00  0.00    +0.044 C 
ATOM      9  C   UNL     1       0.027  -2.817  -2.516  0.00  0.00    +0.044 C 
ENDROOT
BRANCH   5  10
ATOM     10  C   UNL     1       0.059  -4.275  -0.021  0.00  0.00    +0.184 C 
BRANCH  10  11
ATOM     11  N   UNL     1       1.447  -4.746  -0.032  0.00  0.00    -0.239 N 
ATOM     12  N   UNL     1       1.827  -5.392   0.806  0.00  0.00    -0.192 NA
ATOM     13  N   UNL     1       2.200  -6.024   1.625  0.00  0.00    +0.066 NA
ATOM     14  H   UNL     1       2.037  -4.500  -0.761  0.00  0.00    +0.197 HD
ENDBRANCH  10  11
ENDBRANCH   5  10
TORSDOF 2
