REMARK  Name = ZINC38922142
REMARK  8 active torsions:
REMARK  status: ('A' for Active; 'I' for Inactive)
REMARK    1  A    between atoms: C_1  and  C_2
REMARK    2  A    between atoms: C_2  and  C_3
REMARK    3  A    between atoms: C_2  and  O_4
REMARK    4  A    between atoms: O_4  and  C_5
REMARK    5  A    between atoms: C_8  and  C_11
REMARK    6  A    between atoms: C_13  and  C_16
REMARK    7  A    between atoms: N_21  and  C_23
REMARK    8  A    between atoms: C_23  and  C_24
REMARK                            x       y       z     vdW  Elec       q    Type
REMARK                         _______ _______ _______ _____ _____    ______ ____
ROOT
ATOM      1  C   UNL     1      -4.283  -8.423  -3.038  0.00  0.00    +0.104 C 
ATOM      2  C   UNL     1      -3.969  -9.783  -2.373  0.00  0.00    +0.110 C 
ATOM      3  C   UNL     1      -4.472 -10.807  -3.367  0.00  0.00    +0.217 C 
ATOM      4  O   UNL     1      -4.673 -11.977  -3.118  0.00  0.00    -0.276 OA
ATOM      5  N   UNL     1      -4.665 -10.231  -4.566  0.00  0.00    -0.296 N 
ATOM      6  C   UNL     1      -4.321  -8.804  -4.535  0.00  0.00    +0.121 C 
ENDROOT
BRANCH   1   9
ATOM      7  C   UNL     1      -2.164  -5.622  -2.124  0.00  0.00    +0.202 A 
ATOM      8  N   UNL     1      -3.349  -6.250  -2.221  0.00  0.00    -0.191 NA
ATOM      9  C   UNL     1      -3.189  -7.423  -2.763  0.00  0.00    +0.233 A 
ATOM     10  O   UNL     1      -1.889  -7.592  -3.035  0.00  0.00    -0.337 OA
ATOM     11  N   UNL     1      -1.234  -6.404  -2.617  0.00  0.00    -0.056 NA
BRANCH   7  15
ATOM     12  C   UNL     1      -1.538  -1.739  -0.505  0.00  0.00    +0.121 A 
ATOM     13  C   UNL     1      -0.462  -2.466  -0.996  0.00  0.00    +0.046 A 
ATOM     14  C   UNL     1      -0.662  -3.725  -1.521  0.00  0.00    +0.015 A 
ATOM     15  C   UNL     1      -1.946  -4.268  -1.559  0.00  0.00    +0.023 A 
ATOM     16  C   UNL     1      -3.024  -3.535  -1.065  0.00  0.00    +0.015 A 
ATOM     17  C   UNL     1      -2.817  -2.279  -0.536  0.00  0.00    +0.046 A 
BRANCH  12  18
ATOM     18  O   UNL     1      -1.339  -0.499   0.012  0.00  0.00    -0.489 OA
BRANCH  18  20
ATOM     19  C   UNL     1      -1.982   1.169   1.638  0.00  0.00    +0.051 C 
ATOM     20  C   UNL     1      -2.466   0.143   0.612  0.00  0.00    +0.167 C 
ATOM     21  C   UNL     1      -3.284   0.851  -0.470  0.00  0.00    +0.051 C 
ENDBRANCH  18  20
ENDBRANCH  12  18
ENDBRANCH   7  15
ENDBRANCH   1   9
BRANCH   5  22
ATOM     22  C   UNL     1      -5.157 -10.937  -5.752  0.00  0.00    +0.143 C 
BRANCH  22  23
ATOM     23  C   UNL     1      -6.661 -10.863  -5.793  0.00  0.00    -0.026 A 
ATOM     24  C   UNL     1      -7.417 -11.841  -5.175  0.00  0.00    +0.009 A 
ATOM     25  C   UNL     1      -8.797 -11.778  -5.209  0.00  0.00    +0.050 A 
ATOM     26  C   UNL     1      -9.427 -10.732  -5.864  0.00  0.00    +0.166 A 
ATOM     27  C   UNL     1      -8.666  -9.746  -6.487  0.00  0.00    +0.167 A 
ATOM     28  C   UNL     1      -7.283  -9.813  -6.444  0.00  0.00    +0.054 A 
ATOM     29  O   UNL     1      -9.510  -8.836  -7.056  0.00  0.00    -0.453 OA
ATOM     30  C   UNL     1     -10.790  -9.492  -7.125  0.00  0.00    +0.466 C 
ATOM     31  O   UNL     1     -10.749 -10.440  -6.043  0.00  0.00    -0.453 OA
ENDBRANCH  22  23
ENDBRANCH   5  22
TORSDOF 6
