REMARK  Name = ZINC44592661
REMARK  5 active torsions:
REMARK  status: ('A' for Active; 'I' for Inactive)
REMARK    1  A    between atoms: C_6  and  C_20
REMARK    2  A    between atoms: C_11  and  CA_13
REMARK    3  A    between atoms: CA_13  and  CB_15
REMARK    4  A    between atoms: CA_13  and  N_19
REMARK    5  A    between atoms: CB_15  and  CG_16
REMARK                            x       y       z     vdW  Elec       q    Type
REMARK                         _______ _______ _______ _____ _____    ______ ____
ROOT
ATOM      1  C   UNK A   2      -0.017   1.390   0.010  0.00  0.00    +0.014 A 
ATOM      2  C   UNK A   2       1.145   2.082   0.002  0.00  0.00    +0.046 A 
ATOM      3  S   UNK A   2       2.356   0.769  -0.017  0.00  0.00    -0.101 S 
ATOM      4  C   UNK A   2       1.226  -0.598  -0.017  0.00  0.00    -0.003 A 
ATOM      5  C   UNK A   2       0.002  -0.004   0.002  0.00  0.00    -0.006 A 
ATOM      6  C   UNK A   2      -1.264  -0.858   0.019  0.00  0.00    +0.220 C 
ATOM      7  N   UNK A   2      -0.879  -2.239  -0.305  0.00  0.00    -0.285 N 
ATOM      8  C   UNK A   2       0.278  -2.837   0.378  0.00  0.00    +0.114 C 
ATOM      9  C   UNK A   2       1.537  -2.060  -0.036  0.00  0.00    +0.062 C 
ATOM     10  C   ASN A   1      -1.577  -2.947  -1.215  0.00  0.00    +0.202 C 
ATOM     11  O   ASN A   1      -2.530  -2.445  -1.773  0.00  0.00    -0.277 OA
ENDROOT
BRANCH   6  12
ATOM     12  C   UNK A   2      -1.894  -0.811   1.387  0.00  0.00    +0.381 C 
ATOM     13  O   UNK A   2      -2.421   0.216   1.780  0.00  0.00    -0.244 OA
ATOM     14  O   UNK A   2      -1.877  -1.799   2.101  0.00  0.00    -0.244 OA
ENDBRANCH   6  12
BRANCH  10  15
ATOM     15  CA  ASN A   1      -1.173  -4.362  -1.540  0.00  0.00    +0.022 C 
BRANCH  15  16
ATOM     16  N   ASN A   1      -1.736  -4.746  -2.841  0.00  0.00    +0.386 N 
ATOM     17  H1  ASN A   1      -2.742  -4.684  -2.804  0.00  0.00    -0.089 HD
ATOM     18  H2  ASN A   1      -1.387  -4.124  -3.555  0.00  0.00    -0.089 HD
ATOM     19  H3  ASN A   1      -1.465  -5.693  -3.058  0.00  0.00    -0.089 HD
ENDBRANCH  15  16
BRANCH  15  20
ATOM     20  CB  ASN A   1      -1.702  -5.304  -0.457  0.00  0.00    +0.088 C 
BRANCH  20  21
ATOM     21  CG  ASN A   1      -1.195  -6.700  -0.714  0.00  0.00    +0.209 C 
ATOM     22  OD1 ASN A   1      -0.481  -6.919  -1.670  0.00  0.00    -0.276 OA
ATOM     23  ND2 ASN A   1      -1.535  -7.705   0.117  0.00  0.00    -0.329 N 
ATOM     24 HD21 ASN A   1      -2.106  -7.529   0.881  0.00  0.00    +0.145 HD
ATOM     25 HD22 ASN A   1      -1.209  -8.603  -0.049  0.00  0.00    +0.145 HD
ENDBRANCH  20  21
ENDBRANCH  15  20
ENDBRANCH  10  15
TORSDOF 5
