REMARK  Name = ZINC33916930
REMARK  6 active torsions:
REMARK  status: ('A' for Active; 'I' for Inactive)
REMARK    1  A    between atoms: C_3  and  N_10
REMARK    2  A    between atoms: C_5  and  N_7
REMARK    3  A    between atoms: C_15  and  C_33
REMARK    4  A    between atoms: C_18  and  C_23
REMARK    5  A    between atoms: C_18  and  C_30
REMARK    6  A    between atoms: C_23  and  C_24
REMARK                            x       y       z     vdW  Elec       q    Type
REMARK                         _______ _______ _______ _____ _____    ______ ____
ROOT
ATOM      1  N   UNL     1       3.788   1.947   0.090  0.00  0.00    -0.210 N 
ATOM      2  C   UNL     1       5.071   1.461   0.029  0.00  0.00    +0.229 C 
ATOM      3  O   UNL     1       5.420   0.320  -0.188  0.00  0.00    -0.275 OA
ATOM      4  C   UNL     1       5.911   2.606   0.278  0.00  0.00    +0.078 C 
ATOM      5  C   UNL     1       7.294   3.068   0.070  0.00  0.00    -0.020 C 
ATOM      6  N   UNL     1       7.199   4.523   0.439  0.00  0.00    +0.396 N 
ATOM      7  C   UNL     1       5.774   4.942   0.280  0.00  0.00    +0.048 C 
ATOM      8  C   UNL     1       5.091   3.760  -0.424  0.00  0.00    +0.086 C 
ATOM      9  C   UNL     1       3.740   3.312   0.060  0.00  0.00    +0.229 C 
ATOM     10  O   UNL     1       2.802   4.018   0.364  0.00  0.00    -0.275 OA
ATOM     11  H   UNL     1       7.488   4.652   1.397  0.00  0.00    -0.083 HD
ATOM     12  H   UNL     1       7.786   5.070  -0.173  0.00  0.00    -0.083 HD
ENDROOT
BRANCH   1  15
ATOM     13  C   UNL     1       0.269   0.896   0.298  0.00  0.00    +0.004 A 
ATOM     14  C   UNL     1       1.387   1.703   0.221  0.00  0.00    +0.024 A 
ATOM     15  C   UNL     1       2.651   1.131   0.169  0.00  0.00    +0.046 A 
ATOM     16  C   UNL     1       2.787  -0.251   0.194  0.00  0.00    +0.056 A 
ATOM     17  C   UNL     1       1.665  -1.052   0.271  0.00  0.00    +0.128 A 
ATOM     18  C   UNL     1       0.407  -0.479   0.323  0.00  0.00    +0.033 A 
BRANCH  17  19
ATOM     19  N   UNL     1       1.808  -2.525   0.297  0.00  0.00    +0.056 N 
ATOM     20  O   UNL     1       2.908  -3.026   0.251  0.00  0.00    -0.126 OA
ATOM     21  O   UNL     1       0.827  -3.227   0.364  0.00  0.00    -0.126 OA
ENDBRANCH  17  19
ENDBRANCH   1  15
BRANCH   5  22
ATOM     22  C   UNL     1       8.248   2.342   0.983  0.00  0.00    -0.022 A 
ATOM     23  C   UNL     1       9.067   1.299   0.706  0.00  0.00    +0.011 A 
ATOM     24  C   UNL     1       9.864   0.787   1.713  0.00  0.00    +0.028 A 
ATOM     25  C   UNL     1       9.803   1.345   2.948  0.00  0.00    +0.078 A 
ATOM     26  S   UNL     1       8.597   2.639   2.708  0.00  0.00    -0.083 S 
ATOM     27 CL   UNL     1      10.677   0.916   4.385  0.00  0.00    -0.076 Cl
ENDBRANCH   5  22
BRANCH   7  28
ATOM     28  C   UNL     1       5.685   6.172  -0.585  0.00  0.00    +0.346 C 
ATOM     29  O   UNL     1       6.691   6.629  -1.101  0.00  0.00    -0.248 OA
ATOM     30  O   UNL     1       4.607   6.711  -0.770  0.00  0.00    -0.248 OA
ENDBRANCH   7  28
BRANCH   7  31
ATOM     31  C   UNL     1       5.145   5.210   1.649  0.00  0.00    +0.003 C 
BRANCH  31  32
ATOM     32  C   UNL     1       6.014   6.202   2.424  0.00  0.00    -0.012 C 
ATOM     33  C   UNL     1       5.501   6.316   3.861  0.00  0.00    +0.003 C 
ATOM     34  C   UNL     1       6.370   7.308   4.636  0.00  0.00    +0.000 C 
ATOM     35  C   UNL     1       6.304   8.680   3.961  0.00  0.00    +0.000 C 
ATOM     36  C   UNL     1       6.818   8.566   2.524  0.00  0.00    +0.000 C 
ATOM     37  C   UNL     1       5.949   7.573   1.749  0.00  0.00    +0.003 C 
ENDBRANCH  31  32
ENDBRANCH   7  31
TORSDOF 6
