REMARK  Name = ZINC21343715
REMARK  9 active torsions:
REMARK  status: ('A' for Active; 'I' for Inactive)
REMARK    1  A    between atoms: C_1  and  C_2
REMARK    2  A    between atoms: C_5  and  C_9
REMARK    3  A    between atoms: C_6  and  C_8
REMARK    4  A    between atoms: C_9  and  N_10
REMARK    5  A    between atoms: C_17  and  C_20
REMARK    6  A    between atoms: C_17  and  O_32
REMARK    7  A    between atoms: C_20  and  C_21
REMARK    8  A    between atoms: C_21  and  C_23
REMARK    9  A    between atoms: C_26  and  N_29
REMARK                            x       y       z     vdW  Elec       q    Type
REMARK                         _______ _______ _______ _____ _____    ______ ____
ROOT
ATOM      1  N   UNL     1       1.338  -2.796   1.284  0.00  0.00    -0.264 N 
ATOM      2  C   UNL     1       0.363  -3.124   2.227  0.00  0.00    +0.043 A 
ATOM      3  C   UNL     1      -1.027  -3.035   2.169  0.00  0.00    +0.025 A 
ATOM      4  C   UNL     1      -1.792  -3.428   3.247  0.00  0.00    +0.017 A 
ATOM      5  C   UNL     1      -1.187  -3.912   4.394  0.00  0.00    +0.018 A 
ATOM      6  C   UNL     1       0.193  -4.002   4.459  0.00  0.00    +0.024 A 
ATOM      7  C   UNL     1       0.958  -3.611   3.384  0.00  0.00    +0.016 A 
ATOM      8  C   UNL     1       2.449  -3.584   3.139  0.00  0.00    +0.175 C 
ATOM      9  C   UNL     1       2.581  -3.039   1.733  0.00  0.00    +0.257 C 
ATOM     10  O   UNL     1       3.615  -2.854   1.126  0.00  0.00    -0.272 OA
ATOM     11 BR   UNL     1      -2.243  -4.447   5.869  0.00  0.00    -0.050 Br
ENDROOT
BRANCH   8  12
ATOM     12  O   UNL     1       3.095  -2.722   4.078  0.00  0.00    -0.374 OA
ATOM     13  H   UNL     1       4.186  -2.588   4.040  0.00  0.00    +0.211 HD
ENDBRANCH   8  12
BRANCH   1  14
ATOM     14  C   UNL     1       1.041  -2.255  -0.044  0.00  0.00    +0.149 C 
BRANCH  14  19
ATOM     15  C   UNL     1       1.026   3.519   0.187  0.00  0.00    +0.044 C 
ATOM     16  C   UNL     1       1.030   2.014   0.126  0.00  0.00    -0.050 A 
ATOM     17  C   UNL     1       1.163   1.276   1.288  0.00  0.00    +0.004 A 
ATOM     18  C   UNL     1       1.167  -0.105   1.233  0.00  0.00    +0.006 A 
ATOM     19  C   UNL     1       1.037  -0.749   0.016  0.00  0.00    -0.027 A 
ATOM     20  C   UNL     1       0.903  -0.011  -1.145  0.00  0.00    -0.046 A 
ATOM     21  C   UNL     1       0.899   1.370  -1.090  0.00  0.00    +0.007 A 
ATOM     22  C   UNL     1       0.761  -0.712  -2.471  0.00  0.00    +0.044 C 
ENDBRANCH  14  19
ENDBRANCH   1  14
BRANCH   8  23
ATOM     23  C   UNL     1       3.030  -4.997   3.217  0.00  0.00    +0.129 C 
BRANCH  23  24
ATOM     24  C   UNL     1       4.516  -4.944   2.970  0.00  0.00    +0.167 C 
ATOM     25  O   UNL     1       5.056  -3.880   2.752  0.00  0.00    -0.292 OA
BRANCH  24  26
ATOM     26  C   UNL     1       5.311  -6.182   2.993  0.00  0.00    +0.018 A 
ATOM     27  C   UNL     1       4.692  -7.410   3.249  0.00  0.00    +0.013 A 
ATOM     28  C   UNL     1       5.443  -8.566   3.264  0.00  0.00    +0.033 A 
ATOM     29  C   UNL     1       6.808  -8.512   3.036  0.00  0.00    +0.126 A 
ATOM     30  C   UNL     1       7.428  -7.301   2.787  0.00  0.00    +0.033 A 
ATOM     31  C   UNL     1       6.690  -6.136   2.763  0.00  0.00    +0.013 A 
BRANCH  29  32
ATOM     32  N   UNL     1       7.607  -9.758   3.059  0.00  0.00    +0.056 N 
ATOM     33  O   UNL     1       8.808  -9.714   2.859  0.00  0.00    -0.126 OA
ATOM     34  O   UNL     1       7.064 -10.826   3.279  0.00  0.00    -0.126 OA
ENDBRANCH  29  32
ENDBRANCH  24  26
ENDBRANCH  23  24
ENDBRANCH   8  23
TORSDOF 7
