REMARK  Name = ZINC36637860
REMARK  8 active torsions:
REMARK  status: ('A' for Active; 'I' for Inactive)
REMARK    1  A    between atoms: C_1  and  C_2
REMARK    2  A    between atoms: C_2  and  N_3
REMARK    3  A    between atoms: N_3  and  C_4
REMARK    4  A    between atoms: N_3  and  C_6
REMARK    5  A    between atoms: C_4  and  C_5
REMARK    6  A    between atoms: C_6  and  C_7
REMARK    7  A    between atoms: C_7  and  N_8
REMARK    8  A    between atoms: C_19  and  C_21
REMARK                            x       y       z     vdW  Elec       q    Type
REMARK                         _______ _______ _______ _____ _____    ______ ____
ROOT
ATOM      1  N   UNL     1      -1.059  -3.701  -1.962  0.00  0.00    -0.248 N 
ATOM      2  C   UNL     1      -1.206  -4.585  -0.907  0.00  0.00    +0.168 A 
ATOM      3  N   UNL     1      -1.228  -4.332   0.381  0.00  0.00    -0.224 NA
ATOM      4  C   UNL     1      -1.379  -5.303   1.309  0.00  0.00    +0.080 A 
ATOM      5  C   UNL     1      -1.419  -5.166   2.716  0.00  0.00    +0.030 A 
ATOM      6  C   UNL     1      -1.580  -6.263   3.521  0.00  0.00    +0.017 A 
ATOM      7  C   UNL     1      -1.709  -7.540   2.991  0.00  0.00    +0.019 A 
ATOM      8  C   UNL     1      -1.676  -7.709   1.619  0.00  0.00    +0.032 A 
ATOM      9  C   UNL     1      -1.515  -6.616   0.805  0.00  0.00    +0.042 A 
ATOM     10  S   UNL     1      -1.422  -6.359  -0.951  0.00  0.00    -0.052 S 
ATOM     11 BR   UNL     1      -1.929  -9.031   4.133  0.00  0.00    -0.050 Br
ATOM     12  C   UNL     1      -1.070  -4.159  -3.230  0.00  0.00    +0.254 C 
ATOM     13  O   UNL     1      -1.292  -5.333  -3.451  0.00  0.00    -0.270 OA
ENDROOT
BRANCH  12  14
ATOM     14  C   UNL     1      -0.811  -3.233  -4.351  0.00  0.00    +0.056 A 
ATOM     15  C   UNL     1      -1.613  -2.103  -4.527  0.00  0.00    +0.016 A 
ATOM     16  C   UNL     1      -1.367  -1.242  -5.575  0.00  0.00    +0.021 A 
ATOM     17  C   UNL     1      -0.327  -1.496  -6.454  0.00  0.00    +0.042 A 
ATOM     18  C   UNL     1       0.473  -2.614  -6.287  0.00  0.00    +0.040 A 
ATOM     19  C   UNL     1       0.241  -3.480  -5.237  0.00  0.00    +0.054 A 
ATOM     20 CL   UNL     1       1.248  -4.878  -5.024  0.00  0.00    -0.083 Cl
ATOM     21 CL   UNL     1      -0.024  -0.407  -7.772  0.00  0.00    -0.083 Cl
ENDBRANCH  12  14
BRANCH   1  22
ATOM     22  C   UNL     1      -0.893  -2.269  -1.702  0.00  0.00    +0.097 C 
BRANCH  22  23
ATOM     23  C   UNL     1       0.597  -1.921  -1.698  0.00  0.00    -0.059 C 
BRANCH  23  24
ATOM     24  N   UNL     1       0.763  -0.485  -1.437  0.00  0.00    +0.380 N 
ATOM     25  H   UNL     1       0.228   0.043  -2.109  0.00  0.00    -0.082 HD
BRANCH  24  27
ATOM     26  C   UNL     1       0.332   1.337   0.141  0.00  0.00    -0.017 C 
ATOM     27  C   UNL     1       0.289  -0.176  -0.081  0.00  0.00    -0.082 C 
ENDBRANCH  24  27
BRANCH  24  28
ATOM     28  C   UNL     1       2.184  -0.128  -1.552  0.00  0.00    -0.082 C 
ATOM     29  C   UNL     1       2.641  -0.317  -3.000  0.00  0.00    -0.017 C 
ENDBRANCH  24  28
ENDBRANCH  23  24
ENDBRANCH  22  23
ENDBRANCH   1  22
TORSDOF 6
