REMARK  Name = ZINC60042673
REMARK  5 active torsions:
REMARK  status: ('A' for Active; 'I' for Inactive)
REMARK    1  A    between atoms: N_9  and  C_11
REMARK    2  A    between atoms: C_11  and  C_12
REMARK    3  A    between atoms: C_12  and  C_14
REMARK    4  A    between atoms: C_12  and  O_29
REMARK    5  A    between atoms: C_14  and  N_15
REMARK                            x       y       z     vdW  Elec       q    Type
REMARK                         _______ _______ _______ _____ _____    ______ ____
ROOT
ATOM      1  C   UNL     1       5.939  -2.100   1.067  0.00  0.00    +0.117 C 
ENDROOT
BRANCH   1   2
ATOM      2  O   UNL     1       6.000  -0.711   0.736  0.00  0.00    -0.392 OA
ATOM      3  H   UNL     1       6.219  -0.536  -0.189  0.00  0.00    +0.210 HD
ENDBRANCH   1   2
BRANCH   1   4
ATOM      4  C   UNL     1       4.866  -2.780   0.214  0.00  0.00    -0.045 C 
BRANCH   4  13
ATOM      5  C   UNL     1      -1.367  -1.283   0.465  0.00  0.00    +0.000 A 
ATOM      6  C   UNL     1      -1.086  -1.829  -0.773  0.00  0.00    +0.000 A 
ATOM      7  C   UNL     1       0.187  -2.284  -1.052  0.00  0.00    +0.002 A 
ATOM      8  C   UNL     1       1.188  -2.196  -0.095  0.00  0.00    -0.061 A 
ATOM      9  C   UNL     1       0.907  -1.649   1.139  0.00  0.00    -0.048 A 
ATOM     10  C   UNL     1      -0.372  -1.194   1.418  0.00  0.00    +0.004 A 
ATOM     11  C   UNL     1       1.966  -1.527   2.204  0.00  0.00    +0.017 C 
ATOM     12  C   UNL     1       3.153  -2.428   1.859  0.00  0.00    -0.074 C 
ATOM     13  N   UNL     1       3.563  -2.153   0.474  0.00  0.00    +0.384 N 
ATOM     14  C   UNL     1       2.561  -2.709  -0.440  0.00  0.00    -0.043 C 
ATOM     15  H   UNL     1       3.632  -1.157   0.333  0.00  0.00    -0.081 HD
ENDBRANCH   4  13
ENDBRANCH   1   4
BRANCH   1  16
ATOM     16  C   UNL     1       7.296  -2.750   0.794  0.00  0.00    +0.161 C 
BRANCH  16  17
ATOM     17  N   UNL     1       8.301  -2.181   1.696  0.00  0.00    -0.200 N 
ATOM     18  C   UNL     1       9.039  -1.000   1.510  0.00  0.00    +0.061 A 
ATOM     19  C   UNL     1       8.980  -0.116   0.434  0.00  0.00    +0.025 A 
ATOM     20  C   UNL     1       9.783   1.017   0.400  0.00  0.00    +0.002 A 
ATOM     21  C   UNL     1      10.659   1.323   1.400  0.00  0.00    +0.009 A 
ATOM     22  C   UNL     1      10.754   0.461   2.505  0.00  0.00    -0.014 A 
ATOM     23  C   UNL     1       9.934  -0.686   2.530  0.00  0.00    +0.031 A 
ATOM     24  C   UNL     1      10.001  -1.570   3.614  0.00  0.00    +0.118 A 
ATOM     25  C   UNL     1      10.842  -1.334   4.638  0.00  0.00    +0.029 A 
ATOM     26  C   UNL     1      11.659  -0.197   4.623  0.00  0.00    +0.003 A 
ATOM     27  C   UNL     1      11.625   0.687   3.584  0.00  0.00    +0.009 A 
ATOM     28  S   UNL     1       8.806  -2.798   3.170  0.00  0.00    +0.075 S 
ATOM     29  O   UNL     1       9.506  -4.009   2.917  0.00  0.00    -0.150 OA
ATOM     30  O   UNL     1       7.719  -2.696   4.079  0.00  0.00    -0.150 OA
ENDBRANCH  16  17
ENDBRANCH   1  16
TORSDOF 5
