REMARK  Name = ZINC33085446
REMARK  9 active torsions:
REMARK  status: ('A' for Active; 'I' for Inactive)
REMARK    1  A    between atoms: C_1  and  C_2
REMARK    2  A    between atoms: C_5  and  C_8
REMARK    3  A    between atoms: C_8  and  C_10
REMARK    4  A    between atoms: C_10  and  S_11
REMARK    5  A    between atoms: S_11  and  C_12
REMARK    6  A    between atoms: C_17  and  C_32
REMARK    7  A    between atoms: C_19  and  C_23
REMARK    8  A    between atoms: C_20  and  C_22
REMARK    9  A    between atoms: N_25  and  C_26
REMARK                            x       y       z     vdW  Elec       q    Type
REMARK                         _______ _______ _______ _____ _____    ______ ____
ROOT
ATOM      1  C   UNL     1      -6.754   1.315   0.476  0.00  0.00    +0.211 A 
ATOM      2  N   UNL     1      -6.704   2.635   0.242  0.00  0.00    -0.187 NA
ATOM      3  C   UNL     1      -7.917   3.115   0.194  0.00  0.00    +0.219 A 
ATOM      4  N   UNL     1      -8.784   2.095   0.405  0.00  0.00    -0.219 N 
ATOM      5  N   UNL     1      -8.013   0.945   0.576  0.00  0.00    -0.141 NA
ATOM      6  C   UNL     1     -10.235   2.258   0.430  0.00  0.00    +0.184 C 
ATOM      7  C   UNL     1     -10.594   3.620  -0.101  0.00  0.00    +0.061 C 
ATOM      8  C   UNL     1      -9.691   4.593  -0.294  0.00  0.00    +0.018 C 
ATOM      9  N   UNL     1      -8.355   4.413  -0.031  0.00  0.00    -0.287 N 
ATOM     10  C   UNL     1     -10.158   5.926  -0.818  0.00  0.00    +0.061 C 
ATOM     11  H   UNL     1      -7.641   5.249   0.005  0.00  0.00    +0.155 HD
ENDROOT
BRANCH   6  12
ATOM     12  C   UNL     1     -10.732   2.124   1.846  0.00  0.00    +0.019 A 
ATOM     13  C   UNL     1     -11.610   1.229   2.361  0.00  0.00    +0.013 A 
ATOM     14  C   UNL     1     -11.922   1.294   3.706  0.00  0.00    +0.008 A 
ATOM     15  C   UNL     1     -11.340   2.250   4.471  0.00  0.00    +0.045 A 
ATOM     16  S   UNL     1     -10.310   3.096   3.283  0.00  0.00    -0.099 S 
ENDBRANCH   6  12
BRANCH   7  17
ATOM     17  C   UNL     1     -11.949   3.888  -0.410  0.00  0.00    +0.248 C 
ATOM     18  O   UNL     1     -12.425   3.489  -1.458  0.00  0.00    -0.270 OA
ATOM     19  N   UNL     1     -12.713   4.583   0.456  0.00  0.00    -0.282 N 
ATOM     20  H   UNL     1     -12.265   5.007   1.367  0.00  0.00    +0.155 HD
BRANCH  19  21
ATOM     21  C   UNL     1     -14.075   4.766   0.196  0.00  0.00    +0.034 A 
ATOM     22  C   UNL     1     -14.516   4.946  -1.109  0.00  0.00    +0.023 A 
ATOM     23  C   UNL     1     -15.862   5.121  -1.363  0.00  0.00    +0.002 A 
ATOM     24  C   UNL     1     -16.769   5.128  -0.319  0.00  0.00    +0.000 A 
ATOM     25  C   UNL     1     -16.332   4.954   0.982  0.00  0.00    +0.002 A 
ATOM     26  C   UNL     1     -14.988   4.773   1.242  0.00  0.00    +0.023 A 
ENDBRANCH  19  21
ENDBRANCH   7  17
BRANCH   1  27
ATOM     27  S   UNL     1      -5.360   0.248   0.621  0.00  0.00    -0.076 S 
BRANCH  27  28
ATOM     28  C   UNL     1      -3.938   1.349   0.382  0.00  0.00    +0.157 C 
BRANCH  28  29
ATOM     29  C   UNL     1      -2.663   0.552   0.482  0.00  0.00    +0.173 C 
ATOM     30  O   UNL     1      -2.709  -0.641   0.694  0.00  0.00    -0.291 OA
BRANCH  29  35
ATOM     31  C   UNL     1       2.418   3.165  -0.149  0.00  0.00    +0.044 C 
ATOM     32  C   UNL     1       1.086   2.481   0.019  0.00  0.00    -0.050 A 
ATOM     33  C   UNL     1       1.038   1.119   0.261  0.00  0.00    +0.004 A 
ATOM     34  C   UNL     1      -0.177   0.485   0.416  0.00  0.00    +0.011 A 
ATOM     35  C   UNL     1      -1.362   1.221   0.324  0.00  0.00    +0.018 A 
ATOM     36  C   UNL     1      -1.305   2.598   0.084  0.00  0.00    +0.011 A 
ATOM     37  C   UNL     1      -0.082   3.217  -0.069  0.00  0.00    +0.004 A 
ENDBRANCH  29  35
ENDBRANCH  28  29
ENDBRANCH  27  28
ENDBRANCH   1  27
TORSDOF 7
