REMARK  Name = ZINC33058647
REMARK  8 active torsions:
REMARK  status: ('A' for Active; 'I' for Inactive)
REMARK    1  A    between atoms: N_9  and  C_24
REMARK    2  A    between atoms: C_10  and  S_12
REMARK    3  A    between atoms: S_12  and  C_13
REMARK    4  A    between atoms: C_13  and  C_14
REMARK    5  A    between atoms: N_16  and  C_17
REMARK    6  A    between atoms: C_24  and  C_25
REMARK    7  A    between atoms: C_28  and  C_31
REMARK    8  A    between atoms: N_33  and  C_34
REMARK                            x       y       z     vdW  Elec       q    Type
REMARK                         _______ _______ _______ _____ _____    ______ ____
ROOT
ATOM      1  C   UNL     1       2.381   1.422   0.036  0.00  0.00    +0.001 A 
ATOM      2  C   UNL     1       1.161   2.087   0.051  0.00  0.00    +0.002 A 
ATOM      3  C   UNL     1      -0.017   1.394   0.049  0.00  0.00    +0.028 A 
ATOM      4  C   UNL     1       0.002  -0.004   0.033  0.00  0.00    +0.079 A 
ATOM      5  C   UNL     1       1.246  -0.676   0.018  0.00  0.00    +0.065 A 
ATOM      6  C   UNL     1       2.432   0.056   0.019  0.00  0.00    +0.015 A 
ATOM      7  C   UNL     1       1.240  -2.145   0.001  0.00  0.00    +0.263 A 
ATOM      8  O   UNL     1       2.278  -2.780  -0.013  0.00  0.00    -0.267 OA
ATOM      9  N   UNL     1       0.037  -2.765   0.001  0.00  0.00    -0.283 N 
ATOM     10  C   UNL     1      -1.118  -2.036   0.016  0.00  0.00    +0.173 A 
ATOM     11  N   UNL     1      -1.136  -0.726   0.031  0.00  0.00    -0.223 NA
ENDROOT
BRANCH  10  12
ATOM     12  S   UNL     1      -2.655  -2.897   0.016  0.00  0.00    -0.078 S 
BRANCH  12  13
ATOM     13  C   UNL     1      -3.800  -1.496   0.039  0.00  0.00    +0.173 C 
BRANCH  13  14
ATOM     14  C   UNL     1      -5.218  -2.006   0.043  0.00  0.00    +0.227 C 
ATOM     15  O   UNL     1      -5.433  -3.200   0.030  0.00  0.00    -0.275 OA
ATOM     16  N   UNL     1      -6.248  -1.137   0.059  0.00  0.00    -0.285 N 
ATOM     17  H   UNL     1      -6.054  -0.057   0.147  0.00  0.00    +0.155 HD
BRANCH  16  18
ATOM     18  C   UNL     1      -7.563  -1.606  -0.036  0.00  0.00    +0.033 A 
ATOM     19  C   UNL     1      -8.520  -0.863  -0.714  0.00  0.00    +0.025 A 
ATOM     20  C   UNL     1      -9.816  -1.331  -0.810  0.00  0.00    +0.022 A 
ATOM     21  C   UNL     1     -10.163  -2.535  -0.222  0.00  0.00    +0.041 A 
ATOM     22  C   UNL     1      -9.212  -3.275   0.459  0.00  0.00    +0.022 A 
ATOM     23  C   UNL     1      -7.914  -2.814   0.553  0.00  0.00    +0.025 A 
ATOM     24 CL   UNL     1     -11.794  -3.117  -0.340  0.00  0.00    -0.084 Cl
ENDBRANCH  16  18
ENDBRANCH  13  14
ENDBRANCH  12  13
ENDBRANCH  10  12
BRANCH   9  25
ATOM     25  C   UNL     1      -0.027  -4.229  -0.015  0.00  0.00    +0.162 C 
BRANCH  25  26
ATOM     26  C   UNL     1      -0.058  -4.715  -1.441  0.00  0.00    -0.028 A 
ATOM     27  C   UNL     1      -1.271  -4.890  -2.083  0.00  0.00    +0.006 A 
ATOM     28  C   UNL     1      -1.306  -5.329  -3.391  0.00  0.00    +0.013 A 
ATOM     29  C   UNL     1      -0.114  -5.608  -4.062  0.00  0.00    +0.037 A 
ATOM     30  C   UNL     1       1.106  -5.434  -3.407  0.00  0.00    +0.013 A 
ATOM     31  C   UNL     1       1.127  -4.989  -2.101  0.00  0.00    +0.006 A 
BRANCH  29  32
ATOM     32  C   UNL     1      -0.144  -6.085  -5.461  0.00  0.00    +0.244 C 
ATOM     33  O   UNL     1       0.895  -6.327  -6.043  0.00  0.00    -0.270 OA
ATOM     34  N   UNL     1      -1.324  -6.252  -6.091  0.00  0.00    -0.308 N 
ATOM     35  H   UNL     1      -2.265  -6.032  -5.564  0.00  0.00    +0.149 HD
BRANCH  34  36
ATOM     36  C   UNL     1      -1.354  -6.724  -7.477  0.00  0.00    +0.073 C 
ATOM     37  C   UNL     1      -2.313  -6.024  -8.442  0.00  0.00    +0.024 C 
ATOM     38  C   UNL     1      -2.620  -7.441  -7.952  0.00  0.00    +0.024 C 
ENDBRANCH  34  36
ENDBRANCH  29  32
ENDBRANCH  25  26
ENDBRANCH   9  25
TORSDOF 8
