REMARK  Name = ZINC35991105
REMARK  15 active torsions:
REMARK  status: ('A' for Active; 'I' for Inactive)
REMARK    1  A    between atoms: C_1  and  C_2
REMARK    2  A    between atoms: C_2  and  N_3
REMARK    3  A    between atoms: C_4  and  C_26
REMARK    4  A    between atoms: C_5  and  C_21
REMARK    5  A    between atoms: C_6  and  C_11
REMARK    6  A    between atoms: C_14  and  C_17
REMARK    7  A    between atoms: C_17  and  C_18
REMARK    8  A    between atoms: C_17  and  C_19
REMARK    9  A    between atoms: C_17  and  C_20
REMARK   10  A    between atoms: C_21  and  O_23
REMARK   11  A    between atoms: O_23  and  C_24
REMARK   12  A    between atoms: C_24  and  C_25
REMARK   13  A    between atoms: C_26  and  N_27
REMARK   14  A    between atoms: N_30  and  C_33
REMARK   15  A    between atoms: C_33  and  C_34
REMARK                            x       y       z     vdW  Elec       q    Type
REMARK                         _______ _______ _______ _____ _____    ______ ____
ROOT
ATOM      1  N   UNL     1      -1.742  -0.892  -0.043  0.00  0.00    -0.258 N 
ATOM      2  C   UNL     1      -2.019  -0.791   1.291  0.00  0.00    +0.041 C 
ATOM      3  C   UNL     1      -3.290  -0.837   1.744  0.00  0.00    +0.080 C 
ATOM      4  C   UNL     1      -4.397  -1.004   0.723  0.00  0.00    +0.144 C 
ATOM      5  N   UNL     1      -3.993  -1.103  -0.689  0.00  0.00    -0.288 N 
ATOM      6  C   UNL     1      -2.680  -1.036  -0.987  0.00  0.00    +0.307 C 
ATOM      7  O   UNL     1      -2.337  -1.113  -2.151  0.00  0.00    -0.252 OA
ATOM      8  H   UNL     1      -4.656  -1.212  -1.389  0.00  0.00    +0.151 HD
ENDROOT
BRANCH   4   9
ATOM      9  C   UNL     1      -5.333   0.169   0.857  0.00  0.00    -0.022 A 
ATOM     10  C   UNL     1      -5.009   1.381   0.276  0.00  0.00    +0.006 A 
ATOM     11  C   UNL     1      -5.868   2.458   0.399  0.00  0.00    +0.004 A 
ATOM     12  C   UNL     1      -7.050   2.322   1.101  0.00  0.00    -0.042 A 
ATOM     13  C   UNL     1      -7.375   1.110   1.681  0.00  0.00    +0.004 A 
ATOM     14  C   UNL     1      -6.518   0.032   1.555  0.00  0.00    +0.006 A 
BRANCH  12  15
ATOM     15  C   UNL     1      -7.986   3.496   1.235  0.00  0.00    -0.013 C 
ATOM     16  C   UNL     1      -8.432   3.954  -0.154  0.00  0.00    +0.015 C 
ATOM     17  C   UNL     1      -9.210   3.081   2.053  0.00  0.00    +0.015 C 
ATOM     18  C   UNL     1      -7.264   4.644   1.944  0.00  0.00    +0.015 C 
ENDBRANCH  12  15
ENDBRANCH   4   9
BRANCH   1  20
ATOM     19  C   UNL     1       0.057   0.622  -0.716  0.00  0.00    +0.025 C 
ATOM     20  C   UNL     1      -0.340  -0.834  -0.464  0.00  0.00    +0.111 C 
ENDBRANCH   1  20
BRANCH   3  21
ATOM     21  C   UNL     1      -3.578  -0.734   3.125  0.00  0.00    +0.339 C 
ATOM     22  O   UNL     1      -2.684  -0.500   3.917  0.00  0.00    -0.245 OA
BRANCH  21  23
ATOM     23  O   UNL     1      -4.844  -0.894   3.564  0.00  0.00    -0.462 OA
BRANCH  23  24
ATOM     24  C   UNL     1      -5.062  -0.776   4.971  0.00  0.00    +0.229 C 
ATOM     25  C   UNL     1      -6.546  -0.987   5.277  0.00  0.00    +0.048 C 
ENDBRANCH  23  24
ENDBRANCH  21  23
ENDBRANCH   3  21
BRANCH   2  26
ATOM     26  C   UNL     1      -0.887  -0.626   2.272  0.00  0.00    +0.136 C 
BRANCH  26  27
ATOM     27  N   UNL     1      -0.589  -1.921   2.898  0.00  0.00    -0.300 NA
ATOM     28  C   UNL     1       0.070  -2.827   1.946  0.00  0.00    +0.066 C 
ATOM     29  C   UNL     1       0.309  -4.181   2.616  0.00  0.00    -0.063 C 
ATOM     30  N   UNL     1       1.151  -3.997   3.805  0.00  0.00    +0.384 N 
ATOM     31  C   UNL     1       0.470  -3.110   4.758  0.00  0.00    -0.063 C 
ATOM     32  C   UNL     1       0.232  -1.746   4.104  0.00  0.00    +0.066 C 
ATOM     33  H   UNL     1       2.031  -3.585   3.533  0.00  0.00    -0.081 HD
BRANCH  30  34
ATOM     34  C   UNL     1       1.396  -5.299   4.439  0.00  0.00    -0.043 C 
BRANCH  34  35
ATOM     35  C   UNL     1       2.359  -5.128   5.585  0.00  0.00    -0.064 A 
ATOM     36  C   UNL     1       3.720  -5.232   5.367  0.00  0.00    +0.002 A 
ATOM     37  C   UNL     1       4.603  -5.074   6.419  0.00  0.00    +0.000 A 
ATOM     38  C   UNL     1       4.125  -4.812   7.689  0.00  0.00    +0.000 A 
ATOM     39  C   UNL     1       2.764  -4.706   7.907  0.00  0.00    +0.000 A 
ATOM     40  C   UNL     1       1.881  -4.860   6.855  0.00  0.00    +0.002 A 
ENDBRANCH  34  35
ENDBRANCH  30  34
ENDBRANCH  26  27
ENDBRANCH   2  26
TORSDOF 10
