REMARK  Name = ZINC07860993
REMARK  4 active torsions:
REMARK  status: ('A' for Active; 'I' for Inactive)
REMARK    1  A    between atoms: C_5  and  C_7
REMARK    2  A    between atoms: C_7  and  S_8
REMARK    3  A    between atoms: S_8  and  C_9
REMARK    4  A    between atoms: N_19  and  C_20
REMARK                            x       y       z     vdW  Elec       q    Type
REMARK                         _______ _______ _______ _____ _____    ______ ____
ROOT
ATOM      1  C   UNL     1       1.186  -0.677  -0.106  0.00  0.00    +0.173 A 
ATOM      2  N   UNL     1       2.350  -0.076  -0.120  0.00  0.00    -0.223 NA
ATOM      3  C   UNL     1       2.455   1.265  -0.027  0.00  0.00    +0.079 A 
ATOM      4  C   UNL     1       3.698   1.905  -0.042  0.00  0.00    +0.028 A 
ATOM      5  C   UNL     1       3.758   3.267   0.054  0.00  0.00    +0.002 A 
ATOM      6  C   UNL     1       2.601   4.027   0.167  0.00  0.00    +0.001 A 
ATOM      7  C   UNL     1       1.371   3.430   0.184  0.00  0.00    +0.015 A 
ATOM      8  C   UNL     1       1.280   2.042   0.088  0.00  0.00    +0.065 A 
ATOM      9  C   UNL     1      -0.014   1.346   0.101  0.00  0.00    +0.263 A 
ATOM     10  O   UNL     1      -1.060   1.960   0.193  0.00  0.00    -0.267 OA
ATOM     11  N   UNL     1       0.002  -0.004   0.002  0.00  0.00    -0.284 N 
ENDROOT
BRANCH  11  12
ATOM     12  C   UNL     1      -1.260  -0.749   0.010  0.00  0.00    +0.093 C 
ATOM     13  C   UNL     1      -2.289  -0.384   1.081  0.00  0.00    +0.027 C 
ATOM     14  C   UNL     1      -1.512  -1.698   1.182  0.00  0.00    +0.027 C 
ENDBRANCH  11  12
BRANCH   1  15
ATOM     15  S   UNL     1       1.145  -2.434  -0.232  0.00  0.00    -0.083 S 
BRANCH  15  16
ATOM     16  C   UNL     1       2.918  -2.782  -0.345  0.00  0.00    +0.113 C 
BRANCH  16  21
ATOM     17  C   UNL     1       3.485  -6.402   0.565  0.00  0.00    +0.000 A 
ATOM     18  C   UNL     1       3.524  -6.997  -0.682  0.00  0.00    +0.001 A 
ATOM     19  C   UNL     1       3.366  -6.229  -1.820  0.00  0.00    +0.015 A 
ATOM     20  C   UNL     1       3.170  -4.864  -1.712  0.00  0.00    +0.022 A 
ATOM     21  C   UNL     1       3.131  -4.269  -0.464  0.00  0.00    -0.023 A 
ATOM     22  C   UNL     1       3.294  -5.037   0.674  0.00  0.00    +0.005 A 
ATOM     23 BR   UNL     1       2.956  -3.812  -3.269  0.00  0.00    -0.050 Br
ENDBRANCH  16  21
ENDBRANCH  15  16
ENDBRANCH   1  15
TORSDOF 4
