REMARK  Name = ZINC05010848
REMARK  2 active torsions:
REMARK  status: ('A' for Active; 'I' for Inactive)
REMARK    1  A    between atoms: C_4  and  C_7
REMARK    2  A    between atoms: N_16  and  C_17
REMARK                            x       y       z     vdW  Elec       q    Type
REMARK                         _______ _______ _______ _____ _____    ______ ____
ROOT
ATOM      1  C   UNL     1       0.584   3.471   0.018  0.00  0.00    +0.059 C 
ATOM      2  C   UNL     1      -0.894   3.208   1.921  0.00  0.00    -0.075 C 
ATOM      3  C   UNL     1      -2.107   2.281   2.179  0.00  0.00    -0.020 C 
ATOM      4  C   UNL     1      -1.978   1.223   1.060  0.00  0.00    -0.008 C 
ATOM      5  C   UNL     1      -1.124   1.892  -0.040  0.00  0.00    +0.023 C 
ATOM      6  C   UNL     1       0.220   1.201  -0.105  0.00  0.00    +0.205 C 
ATOM      7  O   UNL     1       0.396   0.004  -0.188  0.00  0.00    -0.277 OA
ATOM      8  N   UNL     1       1.189   2.136  -0.062  0.00  0.00    -0.282 N 
ATOM      9  N   UNL     1      -0.790   3.215   0.440  0.00  0.00    +0.403 N 
ATOM     10  H   UNL     1      -1.424   3.920   0.046  0.00  0.00    -0.077 HD
ENDROOT
BRANCH   8  11
ATOM     11  C   UNL     1       2.564   1.875  -0.090  0.00  0.00    +0.036 A 
ATOM     12  C   UNL     1       3.470   2.923  -0.181  0.00  0.00    +0.025 A 
ATOM     13  C   UNL     1       4.826   2.663  -0.201  0.00  0.00    +0.023 A 
ATOM     14  C   UNL     1       5.283   1.359  -0.143  0.00  0.00    +0.059 A 
ATOM     15  C   UNL     1       4.382   0.310  -0.058  0.00  0.00    +0.061 A 
ATOM     16  C   UNL     1       3.024   0.566  -0.031  0.00  0.00    +0.045 A 
ATOM     17 CL   UNL     1       4.959  -1.325   0.015  0.00  0.00    -0.082 Cl
ATOM     18 CL   UNL     1       6.988   1.035  -0.176  0.00  0.00    -0.082 Cl
ENDBRANCH   8  11
BRANCH   1  22
ATOM     19  C   UNL     1       2.657   5.850   2.897  0.00  0.00    +0.000 A 
ATOM     20  C   UNL     1       2.070   6.449   1.799  0.00  0.00    +0.000 A 
ATOM     21  C   UNL     1       1.400   5.680   0.867  0.00  0.00    +0.003 A 
ATOM     22  C   UNL     1       1.315   4.310   1.034  0.00  0.00    -0.044 A 
ATOM     23  C   UNL     1       1.897   3.711   2.135  0.00  0.00    +0.003 A 
ATOM     24  C   UNL     1       2.572   4.480   3.064  0.00  0.00    +0.000 A 
ENDBRANCH   1  22
TORSDOF 2
