REMARK  Name = ZINC12976802
REMARK  10 active torsions:
REMARK  status: ('A' for Active; 'I' for Inactive)
REMARK    1  A    between atoms: C_1  and  C_2
REMARK    2  A    between atoms: C_3  and  C_29
REMARK    3  A    between atoms: C_7  and  N_18
REMARK    4  A    between atoms: C_9  and  C_11
REMARK    5  A    between atoms: C_11  and  N_65
REMARK    6  A    between atoms: C_14  and  C_17
REMARK    7  A    between atoms: C_24  and  C_25
REMARK    8  A    between atoms: C_24  and  N_67
REMARK    9  A    between atoms: C_25  and  O_27
REMARK   10  A    between atoms: O_27  and  C_28
REMARK                            x       y       z     vdW  Elec       q    Type
REMARK                         _______ _______ _______ _____ _____    ______ ____
ROOT
ATOM      1  C   UNL     1      -2.574   7.846  -6.830  0.00  0.00    +0.045 C 
ATOM      2  C   UNL     1      -2.872   7.651  -5.365  0.00  0.00    -0.028 A 
ATOM      3  C   UNL     1      -4.098   7.905  -4.883  0.00  0.00    -0.008 A 
ATOM      4  S   UNL     1      -3.947   7.532  -3.146  0.00  0.00    -0.074 S 
ATOM      5  C   UNL     1      -2.243   7.045  -3.115  0.00  0.00    +0.114 A 
ATOM      6  C   UNL     1      -1.836   7.186  -4.460  0.00  0.00    +0.051 A 
ATOM      7  C   UNL     1      -0.479   6.853  -4.724  0.00  0.00    +0.133 A 
ATOM      8  N   UNL     1       0.292   6.450  -3.728  0.00  0.00    -0.219 NA
ATOM      9  C   UNL     1      -0.158   6.337  -2.491  0.00  0.00    +0.116 A 
ATOM     10  N   UNL     1      -1.406   6.631  -2.184  0.00  0.00    -0.227 NA
ATOM     11  C   UNL     1      -5.313   8.390  -5.631  0.00  0.00    +0.052 C 
ENDROOT
BRANCH   7  12
ATOM     12  N   UNL     1       0.029   6.953  -6.007  0.00  0.00    -0.316 N 
ATOM     13  C   UNL     1       0.474   5.633  -6.505  0.00  0.00    +0.104 C 
ATOM     14  C   UNL     1       0.398   5.641  -8.012  0.00  0.00    +0.000 C 
ATOM     15  C   UNL     1       1.730   6.059  -8.655  0.00  0.00    -0.076 C 
ATOM     16  C   UNL     1       1.449   8.223  -7.535  0.00  0.00    -0.059 C 
ATOM     17  C   UNL     1       1.008   7.951  -6.082  0.00  0.00    +0.088 C 
ATOM     18  N   UNL     1       2.401   7.173  -7.907  0.00  0.00    +0.388 N 
ATOM     19  H   UNL     1       2.813   6.788  -7.050  0.00  0.00    -0.081 HD
BRANCH  18  20
ATOM     20  C   UNL     1       3.475   7.750  -8.735  0.00  0.00    +0.044 C 
BRANCH  20  21
ATOM     21  C   UNL     1       2.938   8.286 -10.037  0.00  0.00    +0.290 C 
ATOM     22  O   UNL     1       1.757   8.208 -10.281  0.00  0.00    -0.253 OA
BRANCH  21  23
ATOM     23  O   UNL     1       3.771   8.849 -10.925  0.00  0.00    -0.469 OA
ATOM     24  C   UNL     1       3.184   9.344 -12.158  0.00  0.00    +0.280 C 
ENDBRANCH  21  23
ENDBRANCH  20  21
ENDBRANCH  18  20
ENDBRANCH   7  12
BRANCH   9  25
ATOM     25  C   UNL     1       0.777   5.867  -1.407  0.00  0.00    -0.001 C 
BRANCH  25  32
ATOM     26  C   UNL     1       1.421   3.927  -0.110  0.00  0.00    -0.078 C 
ATOM     27  C   UNL     1       1.456   2.397  -0.112  0.00  0.00    -0.016 C 
ATOM     28  C   UNL     1       0.023   1.858  -0.124  0.00  0.00    -0.018 C 
ATOM     29  C   UNL     1      -0.710   2.408  -1.351  0.00  0.00    -0.016 C 
ATOM     30  C   UNL     1      -0.682   3.938  -1.313  0.00  0.00    -0.078 C 
ATOM     31  C   UNL     1       0.051   0.330  -0.188  0.00  0.00    +0.007 C 
ATOM     32  N   UNL     1       0.724   4.392  -1.328  0.00  0.00    +0.384 N 
ATOM     33  H   UNL     1       1.193   3.997  -2.151  0.00  0.00    -0.081 HD
ENDBRANCH  25  32
ENDBRANCH   9  25
TORSDOF 6
