REMARK  Name = ZINC00930934
REMARK  8 active torsions:
REMARK  status: ('A' for Active; 'I' for Inactive)
REMARK    1  A    between atoms: C_4  and  C_7
REMARK    2  A    between atoms: C_7  and  N_8
REMARK    3  A    between atoms: N_8  and  C_9
REMARK    4  A    between atoms: C_9  and  C_11
REMARK    5  A    between atoms: C_9  and  C_18
REMARK    6  A    between atoms: C_14  and  O_17
REMARK    7  A    between atoms: N_20  and  C_21
REMARK    8  A    between atoms: C_27  and  C_29
REMARK                            x       y       z     vdW  Elec       q    Type
REMARK                         _______ _______ _______ _____ _____    ______ ____
ROOT
ATOM      1  N   UNL     1      -0.595   3.832   5.666  0.00  0.00    -0.278 N 
ATOM      2  C   UNL     1      -1.310   4.269   6.721  0.00  0.00    +0.261 C 
ATOM      3  O   UNL     1      -2.438   4.684   6.559  0.00  0.00    -0.271 OA
ENDROOT
BRANCH   2   4
ATOM      4  C   UNL     1      -0.709   4.241   8.103  0.00  0.00    +0.296 C 
ATOM      5  C   UNL     1       0.174   5.480   8.308  0.00  0.00    +0.283 C 
ATOM      6  O   UNL     1       0.718   5.428   9.631  0.00  0.00    -0.484 OA
ATOM      7  C   UNL     1      -0.149   5.127  10.637  0.00  0.00    +0.162 A 
ATOM      8  C   UNL     1       0.207   5.406  11.948  0.00  0.00    +0.049 A 
ATOM      9  C   UNL     1      -0.661   5.103  12.980  0.00  0.00    +0.004 A 
ATOM     10  C   UNL     1      -1.885   4.521  12.709  0.00  0.00    +0.004 A 
ATOM     11  C   UNL     1      -2.246   4.241  11.405  0.00  0.00    +0.049 A 
ATOM     12  C   UNL     1      -1.380   4.544  10.364  0.00  0.00    +0.163 A 
ATOM     13  O   UNL     1      -1.751   4.266   9.084  0.00  0.00    -0.473 OA
ENDBRANCH   2   4
BRANCH   1  14
ATOM     14  C   UNL     1       0.825   3.510   5.826  0.00  0.00    +0.144 C 
BRANCH  14  18
ATOM     15  C   UNL     1       1.271  -0.695   6.433  0.00  0.00    +0.000 A 
ATOM     16  C   UNL     1       0.986  -0.205   5.172  0.00  0.00    +0.000 A 
ATOM     17  C   UNL     1       0.842   1.156   4.976  0.00  0.00    +0.005 A 
ATOM     18  C   UNL     1       0.982   2.026   6.040  0.00  0.00    -0.030 A 
ATOM     19  C   UNL     1       1.272   1.537   7.300  0.00  0.00    +0.005 A 
ATOM     20  C   UNL     1       1.412   0.176   7.497  0.00  0.00    +0.000 A 
ENDBRANCH  14  18
ENDBRANCH   1  14
BRANCH   1  21
ATOM     21  C   UNL     1      -1.238   3.680   4.358  0.00  0.00    +0.193 C 
BRANCH  21  22
ATOM     22  C   UNL     1      -1.741   5.020   3.887  0.00  0.00    -0.018 A 
ATOM     23  C   UNL     1      -0.927   6.134   3.979  0.00  0.00    +0.009 A 
ATOM     24  C   UNL     1      -1.384   7.362   3.542  0.00  0.00    +0.046 A 
ATOM     25  C   UNL     1      -2.664   7.479   3.020  0.00  0.00    +0.117 A 
ATOM     26  C   UNL     1      -3.481   6.361   2.934  0.00  0.00    +0.046 A 
ATOM     27  C   UNL     1      -3.018   5.134   3.368  0.00  0.00    +0.009 A 
BRANCH  25  28
ATOM     28  O   UNL     1      -3.118   8.688   2.595  0.00  0.00    -0.507 OA
ATOM     29  H   UNL     1      -3.563   9.204   3.281  0.00  0.00    +0.292 HD
ENDBRANCH  25  28
ENDBRANCH  21  22
BRANCH  21  30
ATOM     30  C   UNL     1      -0.238   3.141   3.367  0.00  0.00    +0.238 C 
ATOM     31  O   UNL     1       0.935   3.431   3.471  0.00  0.00    -0.273 OA
ATOM     32  N   UNL     1      -0.648   2.338   2.366  0.00  0.00    -0.311 N 
ATOM     33  H   UNL     1      -1.587   2.106   2.283  0.00  0.00    +0.149 HD
BRANCH  32  34
ATOM     34  C   UNL     1       0.323   1.814   1.402  0.00  0.00    +0.073 C 
ATOM     35  C   UNL     1       0.964   0.543   1.963  0.00  0.00    +0.022 C 
ATOM     36  C   UNL     1       1.978  -0.004   0.957  0.00  0.00    +0.002 C 
ATOM     37  C   UNL     1       1.268  -0.328  -0.358  0.00  0.00    +0.000 C 
ATOM     38  C   UNL     1       0.627   0.943  -0.920  0.00  0.00    +0.002 C 
ATOM     39  C   UNL     1      -0.387   1.490   0.087  0.00  0.00    +0.022 C 
ENDBRANCH  32  34
ENDBRANCH  21  30
ENDBRANCH   1  21
TORSDOF 8
