REMARK  Name = ZINC39711001
REMARK  9 active torsions:
REMARK  status: ('A' for Active; 'I' for Inactive)
REMARK    1  A    between atoms: C_1  and  C_2
REMARK    2  A    between atoms: C_4  and  C_36
REMARK    3  A    between atoms: C_9  and  C_14
REMARK    4  A    between atoms: C_14  and  C_16
REMARK    5  A    between atoms: C_14  and  N_25
REMARK    6  A    between atoms: N_20  and  C_21
REMARK    7  A    between atoms: C_21  and  C_22
REMARK    8  A    between atoms: C_22  and  O_23
REMARK    9  A    between atoms: O_23  and  C_24
REMARK                            x       y       z     vdW  Elec       q    Type
REMARK                         _______ _______ _______ _____ _____    ______ ____
ROOT
ATOM      1  C   UNL     1      -1.472  -5.209   3.122  0.00  0.00    +0.018 C 
ENDROOT
BRANCH   1  10
ATOM      2  C   UNL     1       2.037   0.157  -0.025  0.00  0.00    +0.044 C 
ATOM      3  C   UNL     1       1.508  -1.253   0.037  0.00  0.00    -0.050 A 
ATOM      4  C   UNL     1       1.315  -1.962  -1.149  0.00  0.00    +0.008 A 
ATOM      5  C   UNL     1       0.842  -3.236  -1.173  0.00  0.00    -0.028 A 
ATOM      6  C   UNL     1       0.522  -3.901   0.024  0.00  0.00    +0.043 A 
ATOM      7  N   UNL     1       0.060  -5.151  -0.011  0.00  0.00    -0.284 N 
ATOM      8  C   UNL     1      -0.260  -5.834   1.075  0.00  0.00    +0.223 C 
ATOM      9  O   UNL     1      -0.678  -6.972   0.980  0.00  0.00    -0.275 OA
ATOM     10  C   UNL     1      -0.104  -5.194   2.436  0.00  0.00    +0.092 C 
ATOM     11  C   UNL     1       0.422  -3.773   2.482  0.00  0.00    -0.006 C 
ATOM     12  C   UNL     1       0.716  -3.176   1.292  0.00  0.00    -0.007 A 
ATOM     13  C   UNL     1       1.234  -1.809   1.245  0.00  0.00    +0.012 A 
ATOM     14  C   UNL     1       0.658  -3.940  -2.493  0.00  0.00    +0.046 C 
ATOM     15  H   UNL     1      -0.048  -5.580  -0.875  0.00  0.00    +0.155 HD
ENDBRANCH   1  10
BRANCH   1  16
ATOM     16  N   UNL     1      -1.870  -6.598   3.389  0.00  0.00    +0.387 N 
ATOM     17  C   UNL     1      -3.226  -6.617   3.952  0.00  0.00    -0.078 C 
ATOM     18  C   UNL     1      -3.677  -8.064   4.158  0.00  0.00    -0.018 C 
ATOM     19  C   UNL     1      -2.713  -8.762   5.122  0.00  0.00    +0.003 C 
ATOM     20  C   UNL     1      -1.291  -8.671   4.560  0.00  0.00    -0.044 C 
ATOM     21  C   UNL     1      -0.928  -7.201   4.340  0.00  0.00    -0.071 C 
ATOM     22  C   UNL     1      -1.221  -9.420   3.228  0.00  0.00    +0.005 C 
ATOM     23  C   UNL     1      -1.590 -10.888   3.449  0.00  0.00    +0.000 C 
ATOM     24  C   UNL     1      -0.608 -11.516   4.441  0.00  0.00    +0.000 C 
ATOM     25  C   UNL     1      -0.678 -10.767   5.773  0.00  0.00    +0.000 C 
ATOM     26  C   UNL     1      -0.310  -9.298   5.551  0.00  0.00    +0.005 C 
ATOM     27  H   UNL     1      -1.859  -7.122   2.527  0.00  0.00    -0.081 HD
ENDBRANCH   1  16
BRANCH   1  28
ATOM     28  C   UNL     1      -2.492  -4.559   2.223  0.00  0.00    +0.139 A 
ATOM     29  N   UNL     1      -2.899  -4.996   1.056  0.00  0.00    -0.115 NA
ATOM     30  N   UNL     1      -3.773  -4.165   0.603  0.00  0.00    -0.023 NA
ATOM     31  N   UNL     1      -3.935  -3.210   1.450  0.00  0.00    -0.044 NA
ATOM     32  N   UNL     1      -3.166  -3.419   2.465  0.00  0.00    -0.229 N 
BRANCH  32  33
ATOM     33  C   UNL     1      -3.047  -2.574   3.655  0.00  0.00    +0.175 C 
BRANCH  33  34
ATOM     34  C   UNL     1      -2.070  -1.430   3.373  0.00  0.00    +0.183 C 
BRANCH  34  35
ATOM     35  O   UNL     1      -1.865  -0.673   4.567  0.00  0.00    -0.381 OA
ATOM     36  C   UNL     1      -0.965   0.425   4.412  0.00  0.00    +0.194 C 
ENDBRANCH  34  35
ENDBRANCH  33  34
ENDBRANCH  32  33
ENDBRANCH   1  28
TORSDOF 6
