REMARK  Name = ZINC25783020
REMARK  7 active torsions:
REMARK  status: ('A' for Active; 'I' for Inactive)
REMARK    1  A    between atoms: C_1  and  C_2
REMARK    2  A    between atoms: C_2  and  C_25
REMARK    3  A    between atoms: N_3  and  N_4
REMARK    4  A    between atoms: C_5  and  C_7
REMARK    5  A    between atoms: C_8  and  C_18
REMARK    6  A    between atoms: C_18  and  N_19
REMARK    7  A    between atoms: C_25  and  N_26
REMARK                            x       y       z     vdW  Elec       q    Type
REMARK                         _______ _______ _______ _____ _____    ______ ____
ROOT
ATOM      1  C   UNL     1      -1.592   1.432   5.920  0.00  0.00    +0.154 A 
ATOM      2  C   UNL     1      -0.844   1.842   6.993  0.00  0.00    +0.079 A 
ATOM      3  N   UNL     1      -1.514   1.466   8.083  0.00  0.00    -0.135 NA
ATOM      4  N   UNL     1      -2.597   0.868   7.736  0.00  0.00    -0.058 NA
ATOM      5  N   UNL     1      -2.700   0.823   6.454  0.00  0.00    -0.183 N 
ATOM      6  C   UNL     1      -3.753   0.252   5.732  0.00  0.00    +0.241 A 
ATOM      7  C   UNL     1      -4.986  -0.299   6.304  0.00  0.00    +0.206 A 
ATOM      8  N   UNL     1      -5.729  -0.741   5.327  0.00  0.00    -0.032 NA
ATOM      9  O   UNL     1      -5.036  -0.506   4.114  0.00  0.00    -0.239 OA
ATOM     10  N   UNL     1      -3.809   0.123   4.437  0.00  0.00    -0.027 NA
ATOM     11  N   UNL     1      -5.307  -0.343   7.656  0.00  0.00    -0.337 N 
ATOM     12  H   UNL     1      -6.263  -0.780   7.980  0.00  0.00    +0.144 HD
ATOM     13  H   UNL     1      -4.606   0.060   8.401  0.00  0.00    +0.144 HD
ENDROOT
BRANCH   1  15
ATOM     14  N   UNL     1      -0.424   0.767   3.880  0.00  0.00    -0.202 N 
ATOM     15  C   UNL     1      -1.275   1.613   4.494  0.00  0.00    +0.284 C 
ATOM     16  O   UNL     1      -1.782   2.526   3.870  0.00  0.00    -0.267 OA
ATOM     17  H   UNL     1       0.096  -0.008   4.462  0.00  0.00    +0.178 HD
BRANCH  14  20
ATOM     18  C   UNL     1       1.046  -1.188   2.650  0.00  0.00    +0.064 C 
ATOM     19  C   UNL     1       0.529   0.014   1.901  0.00  0.00    +0.052 C 
ATOM     20  N   UNL     1      -0.202   0.876   2.501  0.00  0.00    -0.188 NA
BRANCH  19  21
ATOM     21  C   UNL     1       0.874   0.201   0.446  0.00  0.00    +0.169 C 
BRANCH  21  22
ATOM     22  N   UNL     1       0.257   1.434  -0.048  0.00  0.00    -0.228 N 
ATOM     23  C   UNL     1       0.843   2.644  -0.016  0.00  0.00    +0.254 C 
ATOM     24  O   UNL     1       1.952   2.884   0.419  0.00  0.00    -0.270 OA
ATOM     25  C   UNL     1      -0.084   3.633  -0.606  0.00  0.00    +0.049 A 
ATOM     26  C   UNL     1      -0.025   4.997  -0.838  0.00  0.00    +0.014 A 
ATOM     27  C   UNL     1      -1.101   5.642  -1.427  0.00  0.00    +0.001 A 
ATOM     28  C   UNL     1      -2.233   4.933  -1.784  0.00  0.00    +0.001 A 
ATOM     29  C   UNL     1      -2.307   3.567  -1.558  0.00  0.00    +0.014 A 
ATOM     30  C   UNL     1      -1.238   2.910  -0.970  0.00  0.00    +0.049 A 
ATOM     31  C   UNL     1      -0.973   1.506  -0.589  0.00  0.00    +0.254 C 
ATOM     32  O   UNL     1      -1.735   0.573  -0.744  0.00  0.00    -0.270 OA
ENDBRANCH  21  22
ENDBRANCH  19  21
ENDBRANCH  14  20
ENDBRANCH   1  15
BRANCH   2  33
ATOM     33  C   UNL     1       0.473   2.572   6.950  0.00  0.00    -0.018 C 
BRANCH  33  34
ATOM     34  N   UNL     1       0.230   4.021   6.941  0.00  0.00    +0.383 N 
ATOM     35  C   UNL     1      -0.445   4.434   5.704  0.00  0.00    -0.078 C 
ATOM     36  C   UNL     1      -0.811   5.917   5.792  0.00  0.00    -0.019 C 
ATOM     37  C   UNL     1       0.462   6.741   6.000  0.00  0.00    -0.004 C 
ATOM     38  C   UNL     1       1.171   6.258   7.269  0.00  0.00    -0.019 C 
ATOM     39  C   UNL     1       1.480   4.765   7.138  0.00  0.00    -0.078 C 
ATOM     40  H   UNL     1      -0.437   4.258   7.783  0.00  0.00    -0.081 HD
ENDBRANCH  33  34
ENDBRANCH   2  33
TORSDOF 6
