REMARK  Name = ZINC05010862
REMARK  3 active torsions:
REMARK  status: ('A' for Active; 'I' for Inactive)
REMARK    1  A    between atoms: C_1  and  C_2
REMARK    2  A    between atoms: C_5  and  C_8
REMARK    3  A    between atoms: N_17  and  C_18
REMARK                            x       y       z     vdW  Elec       q    Type
REMARK                         _______ _______ _______ _____ _____    ______ ____
ROOT
ATOM      1  C   UNL     1       2.375   1.139  -0.217  0.00  0.00    +0.059 C 
ATOM      2  C   UNL     1       2.905   2.290  -2.283  0.00  0.00    -0.075 C 
ATOM      3  C   UNL     1       4.149   2.230  -3.226  0.00  0.00    -0.020 C 
ATOM      4  C   UNL     1       4.847   0.925  -2.783  0.00  0.00    -0.008 C 
ATOM      5  C   UNL     1       4.354   0.667  -1.347  0.00  0.00    +0.023 C 
ATOM      6  C   UNL     1       3.471  -0.560  -1.317  0.00  0.00    +0.205 C 
ATOM      7  O   UNL     1       3.745  -1.639  -1.799  0.00  0.00    -0.277 OA
ATOM      8  N   UNL     1       2.330  -0.257  -0.669  0.00  0.00    -0.282 N 
ATOM      9  N   UNL     1       3.442   1.738  -1.016  0.00  0.00    +0.403 N 
ATOM     10  H   UNL     1       3.917   2.476  -0.483  0.00  0.00    -0.077 HD
ENDROOT
BRANCH   8  11
ATOM     11  C   UNL     1       1.263  -1.138  -0.457  0.00  0.00    +0.036 A 
ATOM     12  C   UNL     1       1.269  -2.393  -1.054  0.00  0.00    +0.025 A 
ATOM     13  C   UNL     1       0.217  -3.261  -0.844  0.00  0.00    +0.023 A 
ATOM     14  C   UNL     1      -0.844  -2.884  -0.040  0.00  0.00    +0.059 A 
ATOM     15  C   UNL     1      -0.854  -1.633   0.556  0.00  0.00    +0.061 A 
ATOM     16  C   UNL     1       0.201  -0.763   0.353  0.00  0.00    +0.045 A 
ATOM     17 CL   UNL     1      -2.187  -1.163   1.563  0.00  0.00    -0.082 Cl
ATOM     18 CL   UNL     1      -2.166  -3.978   0.222  0.00  0.00    -0.082 Cl
ENDBRANCH   8  11
BRANCH   1  23
ATOM     19  C   UNL     1      -2.688   3.725  -1.250  0.00  0.00    +0.044 C 
ATOM     20  C   UNL     1      -1.368   3.050  -0.980  0.00  0.00    -0.050 A 
ATOM     21  C   UNL     1      -0.897   2.081  -1.846  0.00  0.00    +0.003 A 
ATOM     22  C   UNL     1       0.312   1.459  -1.597  0.00  0.00    +0.004 A 
ATOM     23  C   UNL     1       1.054   1.813  -0.486  0.00  0.00    -0.044 A 
ATOM     24  C   UNL     1       0.586   2.784   0.379  0.00  0.00    +0.004 A 
ATOM     25  C   UNL     1      -0.626   3.403   0.132  0.00  0.00    +0.003 A 
ENDBRANCH   1  23
TORSDOF 2
