REMARK  Name = ZINC19809893
REMARK  8 active torsions:
REMARK  status: ('A' for Active; 'I' for Inactive)
REMARK    1  A    between atoms: C_1  and  N_2
REMARK    2  A    between atoms: N_2  and  C_3
REMARK    3  A    between atoms: N_2  and  C_4
REMARK    4  A    between atoms: C_4  and  C_5
REMARK    5  A    between atoms: C_5  and  N_6
REMARK    6  A    between atoms: C_7  and  C_9
REMARK    7  A    between atoms: C_12  and  C_14
REMARK    8  A    between atoms: C_20  and  C_22
REMARK                            x       y       z     vdW  Elec       q    Type
REMARK                         _______ _______ _______ _____ _____    ______ ____
ROOT
ATOM      1  C   UNL     1       0.143   0.973  -4.861  0.00  0.00    +0.074 A 
ATOM      2  C   UNL     1      -0.182   1.188  -6.191  0.00  0.00    +0.021 A 
ATOM      3  C   UNL     1       0.643   0.626  -7.134  0.00  0.00    +0.014 A 
ATOM      4  C   UNL     1       1.712  -0.108  -6.728  0.00  0.00    +0.011 A 
ATOM      5  S   UNL     1       1.608  -0.034  -4.999  0.00  0.00    -0.087 S 
ENDROOT
BRANCH   4   6
ATOM      6  C   UNL     1       2.738  -0.815  -7.575  0.00  0.00    +0.113 C 
ATOM      7  C   UNL     1       2.428  -2.326  -7.624  0.00  0.00    +0.029 C 
ATOM      8  C   UNL     1       3.837  -2.972  -7.569  0.00  0.00    +0.021 C 
ATOM      9  C   UNL     1       4.590  -1.999  -6.628  0.00  0.00    +0.109 C 
ATOM     10  N   UNL     1       4.072  -0.659  -6.977  0.00  0.00    -0.289 N 
ATOM     11  C   UNL     1       4.714   0.510  -6.782  0.00  0.00    +0.263 C 
ATOM     12  O   UNL     1       4.186   1.555  -7.111  0.00  0.00    -0.269 OA
BRANCH  11  13
ATOM     13  C   UNL     1       6.049   0.521  -6.172  0.00  0.00    +0.121 C 
ATOM     14  N   UNL     1       6.603  -0.599  -5.825  0.00  0.00    -0.180 NA
ATOM     15  N   UNL     1       7.873  -0.627  -5.239  0.00  0.00    -0.207 N 
ATOM     16  C   UNL     1       8.387   0.483  -4.674  0.00  0.00    +0.233 C 
ATOM     17  O   UNL     1       9.486   0.452  -4.163  0.00  0.00    -0.274 OA
ATOM     18  C   UNL     1       7.591   1.763  -4.678  0.00  0.00    +0.104 C 
ATOM     19  C   UNL     1       6.759   1.832  -5.964  0.00  0.00    +0.071 C 
ATOM     20  H   UNL     1       8.458  -1.558  -5.239  0.00  0.00    +0.177 HD
ENDBRANCH  11  13
ENDBRANCH   4   6
BRANCH   1  22
ATOM     21  N   UNL     1      -0.067   1.120  -2.437  0.00  0.00    -0.313 N 
ATOM     22  C   UNL     1      -0.543   1.446  -3.655  0.00  0.00    +0.251 C 
ATOM     23  O   UNL     1      -1.543   2.133  -3.753  0.00  0.00    -0.270 OA
ATOM     24  H   UNL     1       0.837   0.499  -2.348  0.00  0.00    +0.149 HD
BRANCH  21  25
ATOM     25  C   UNL     1      -0.753   1.593  -1.232  0.00  0.00    +0.086 C 
BRANCH  25  26
ATOM     26  C   UNL     1      -0.013   1.086   0.008  0.00  0.00    -0.061 C 
BRANCH  26  28
ATOM     27  C   UNL     1      -2.034   0.955   1.335  0.00  0.00    -0.097 C 
ATOM     28  N   UNL     1      -0.700   1.560   1.217  0.00  0.00    +0.377 N 
ATOM     29  C   UNL     1       0.104   1.297   2.417  0.00  0.00    -0.097 C 
ATOM     30  H   UNL     1      -0.829   2.648   1.127  0.00  0.00    -0.083 HD
ENDBRANCH  26  28
ENDBRANCH  25  26
ENDBRANCH  21  25
ENDBRANCH   1  22
TORSDOF 6
