REMARK  Name = ZINC20693076
REMARK  7 active torsions:
REMARK  status: ('A' for Active; 'I' for Inactive)
REMARK    1  A    between atoms: C_1  and  N_2
REMARK    2  A    between atoms: N_5  and  S_8
REMARK    3  A    between atoms: S_8  and  C_11
REMARK    4  A    between atoms: C_24  and  C_27
REMARK    5  A    between atoms: C_30  and  O_35
REMARK    6  A    between atoms: C_31  and  O_33
REMARK    7  A    between atoms: O_33  and  C_34
REMARK                            x       y       z     vdW  Elec       q    Type
REMARK                         _______ _______ _______ _____ _____    ______ ____
ROOT
ATOM      1  C   UNL     1       4.968   3.627  -5.054  0.00  0.00    +0.106 A 
ATOM      2  C   UNL     1       5.739   2.516  -4.763  0.00  0.00    +0.030 A 
ATOM      3  C   UNL     1       6.056   2.229  -3.450  0.00  0.00    +0.025 A 
ATOM      4  C   UNL     1       5.602   3.053  -2.428  0.00  0.00    +0.031 A 
ATOM      5  C   UNL     1       4.832   4.170  -2.716  0.00  0.00    -0.018 A 
ATOM      6  C   UNL     1       4.519   4.448  -4.040  0.00  0.00    +0.034 A 
ATOM      7  C   UNL     1       4.325   5.088  -1.650  0.00  0.00    +0.049 C 
ATOM      8  C   UNL     1       2.847   4.888  -1.408  0.00  0.00    -0.023 C 
ATOM      9  C   UNL     1       2.573   5.030  -0.134  0.00  0.00    -0.030 C 
ATOM     10  C   UNL     1       3.847   5.355   0.664  0.00  0.00    +0.033 C 
ATOM     11  C   UNL     1       4.973   4.832  -0.276  0.00  0.00    +0.029 C 
ATOM     12  C   UNL     1       5.106   3.326  -0.034  0.00  0.00    +0.105 C 
ATOM     13  N   UNL     1       5.907   2.740  -1.114  0.00  0.00    -0.336 N 
ATOM     14  H   UNL     1       6.739   2.062  -0.876  0.00  0.00    +0.147 HD
ENDROOT
BRANCH  12  15
ATOM     15  C   UNL     1       3.738   2.693  -0.020  0.00  0.00    -0.023 A 
ATOM     16  C   UNL     1       3.098   2.410  -1.212  0.00  0.00    +0.009 A 
ATOM     17  C   UNL     1       1.843   1.830  -1.205  0.00  0.00    +0.049 A 
ATOM     18  C   UNL     1       1.224   1.533  -0.001  0.00  0.00    +0.158 A 
ATOM     19  C   UNL     1       1.866   1.824   1.198  0.00  0.00    +0.162 A 
ATOM     20  C   UNL     1       3.126   2.399   1.184  0.00  0.00    +0.054 A 
BRANCH  19  21
ATOM     21  O   UNL     1       1.260   1.539   2.382  0.00  0.00    -0.491 OA
ATOM     22  C   UNL     1       1.978   1.865   3.574  0.00  0.00    +0.277 C 
ENDBRANCH  19  21
BRANCH  18  23
ATOM     23  O   UNL     1      -0.011   0.963   0.007  0.00  0.00    -0.503 OA
ATOM     24  H   UNL     1      -0.501   0.727   0.963  0.00  0.00    +0.292 HD
ENDBRANCH  18  23
ENDBRANCH  12  15
BRANCH   1  25
ATOM     25  S   UNL     1       4.559   3.996  -6.727  0.00  0.00    +0.061 S 
ATOM     26  O   UNL     1       4.641   2.772  -7.445  0.00  0.00    -0.153 OA
ATOM     27  O   UNL     1       3.374   4.780  -6.692  0.00  0.00    -0.153 OA
BRANCH  25  32
ATOM     28  C   UNL     1       9.356   7.095  -6.923  0.00  0.00    -0.096 C 
ATOM     29  N   UNL     1       8.104   6.474  -7.375  0.00  0.00    +0.380 N 
ATOM     30  C   UNL     1       8.194   5.009  -7.326  0.00  0.00    -0.062 C 
ATOM     31  C   UNL     1       6.945   4.402  -7.972  0.00  0.00    +0.091 C 
ATOM     32  N   UNL     1       5.757   4.974  -7.320  0.00  0.00    -0.180 NA
ATOM     33  C   UNL     1       5.658   6.437  -7.214  0.00  0.00    +0.091 C 
ATOM     34  C   UNL     1       6.961   6.965  -6.593  0.00  0.00    -0.062 C 
ATOM     35  H   UNL     1       7.940   6.764  -8.424  0.00  0.00    -0.082 HD
ENDBRANCH  25  32
ENDBRANCH   1  25
TORSDOF 5
