REMARK  Name = ZINC16312933
REMARK  16 active torsions:
REMARK  status: ('A' for Active; 'I' for Inactive)
REMARK    1  A    between atoms: C_1  and  C_2
REMARK    2  A    between atoms: C_2  and  C_3
REMARK    3  A    between atoms: C_3  and  C_4
REMARK    4  A    between atoms: C_4  and  N_5
REMARK    5  A    between atoms: N_5  and  C_6
REMARK    6  A    between atoms: C_7  and  N_19
REMARK    7  A    between atoms: N_8  and  C_15
REMARK    8  A    between atoms: C_15  and  C_16
REMARK    9  A    between atoms: C_16  and  C_17
REMARK   10  A    between atoms: C_16  and  C_18
REMARK   11  A    between atoms: C_20  and  C_22
REMARK   12  A    between atoms: C_22  and  N_23
REMARK   13  A    between atoms: N_23  and  C_24
REMARK   14  A    between atoms: N_23  and  C_25
REMARK   15  A    between atoms: C_25  and  C_26
REMARK   16  A    between atoms: C_28  and  N_33
REMARK                            x       y       z     vdW  Elec       q    Type
REMARK                         _______ _______ _______ _____ _____    ______ ____
ROOT
ATOM      1  N   UNL     1       1.420  -2.502  -2.465  0.00  0.00    -0.263 N 
ATOM      2  C   UNL     1       0.627  -2.825  -3.508  0.00  0.00    +0.234 C 
ATOM      3  O   UNL     1       1.109  -3.319  -4.506  0.00  0.00    -0.274 OA
ENDROOT
BRANCH   1   4
ATOM      4  C   UNL     1       2.820  -2.633  -2.576  0.00  0.00    +0.140 A 
ATOM      5  C   UNL     1       3.501  -3.555  -1.808  0.00  0.00    +0.127 A 
ATOM      6  N   UNL     1       4.867  -3.660  -1.938  0.00  0.00    -0.280 N 
ATOM      7  C   UNL     1       5.530  -2.873  -2.804  0.00  0.00    +0.331 A 
ATOM      8  O   UNL     1       6.737  -2.980  -2.904  0.00  0.00    -0.246 OA
ATOM      9  N   UNL     1       4.883  -1.969  -3.561  0.00  0.00    -0.273 N 
ATOM     10  H   UNL     1       5.385  -1.413  -4.178  0.00  0.00    +0.173 HD
ATOM     11  C   UNL     1       3.546  -1.830  -3.476  0.00  0.00    +0.277 A 
ATOM     12  O   UNL     1       2.968  -1.011  -4.170  0.00  0.00    -0.266 OA
BRANCH   5  13
ATOM     13  N   UNL     1       2.824  -4.359  -0.922  0.00  0.00    -0.343 N 
ATOM     14  H   UNL     1       1.872  -4.231  -0.782  0.00  0.00    +0.144 HD
ATOM     15  H   UNL     1       3.297  -5.053  -0.438  0.00  0.00    +0.144 HD
ENDBRANCH   5  13
BRANCH   6  16
ATOM     16  C   UNL     1       5.603  -4.635  -1.129  0.00  0.00    +0.131 C 
BRANCH  16  17
ATOM     17  C   UNL     1       5.684  -5.964  -1.881  0.00  0.00    +0.003 C 
ATOM     18  C   UNL     1       6.517  -5.782  -3.151  0.00  0.00    +0.009 C 
ATOM     19  C   UNL     1       6.342  -7.017  -0.986  0.00  0.00    +0.009 C 
ENDBRANCH  16  17
ENDBRANCH   6  16
ENDBRANCH   1   4
BRANCH   1  20
ATOM     20  C   UNL     1       0.826  -2.014  -1.218  0.00  0.00    +0.114 C 
BRANCH  20  21
ATOM     21  C   UNL     1       0.816  -0.484  -1.221  0.00  0.00    +0.019 C 
BRANCH  21  23
ATOM     22  C   UNL     1       0.186   1.555   0.078  0.00  0.00    +0.004 C 
ATOM     23  C   UNL     1       0.196   0.025   0.082  0.00  0.00    -0.002 C 
ENDBRANCH  21  23
ENDBRANCH  20  21
ENDBRANCH   1  20
BRANCH   2  24
ATOM     24  C   UNL     1      -0.857  -2.572  -3.434  0.00  0.00    +0.181 C 
BRANCH  24  25
ATOM     25  N   UNL     1      -1.491  -3.007  -4.686  0.00  0.00    -0.293 NA
ATOM     26  C   UNL     1      -1.392  -4.464  -4.847  0.00  0.00    +0.105 C 
BRANCH  25  27
ATOM     27  C   UNL     1      -2.890  -2.564  -4.748  0.00  0.00    +0.121 C 
BRANCH  27  28
ATOM     28  C   UNL     1      -3.433  -2.809  -6.133  0.00  0.00    -0.013 A 
ATOM     29  C   UNL     1      -4.308  -3.855  -6.357  0.00  0.00    +0.039 A 
ATOM     30  C   UNL     1      -4.805  -4.080  -7.627  0.00  0.00    +0.127 A 
ATOM     31  C   UNL     1      -4.428  -3.259  -8.674  0.00  0.00    +0.034 A 
ATOM     32  C   UNL     1      -3.553  -2.212  -8.450  0.00  0.00    +0.022 A 
ATOM     33  C   UNL     1      -3.059  -1.983  -7.178  0.00  0.00    +0.046 A 
ATOM     34 CL   UNL     1      -1.966  -0.664  -6.896  0.00  0.00    -0.083 Cl
BRANCH  30  35
ATOM     35  N   UNL     1      -5.742  -5.200  -7.867  0.00  0.00    +0.056 N 
ATOM     36  O   UNL     1      -6.072  -5.918  -6.952  0.00  0.00    -0.126 OA
ATOM     37  O   UNL     1      -6.177  -5.397  -8.978  0.00  0.00    -0.126 OA
ENDBRANCH  30  35
ENDBRANCH  27  28
ENDBRANCH  25  27
ENDBRANCH  24  25
ENDBRANCH   2  24
TORSDOF 12
