REMARK  Name = ZINC34759310
REMARK  11 active torsions:
REMARK  status: ('A' for Active; 'I' for Inactive)
REMARK    1  A    between atoms: C_1  and  C_2
REMARK    2  A    between atoms: C_5  and  C_36
REMARK    3  A    between atoms: C_6  and  C_8
REMARK    4  A    between atoms: C_8  and  N_9
REMARK    5  A    between atoms: C_17  and  C_35
REMARK    6  A    between atoms: C_18  and  C_34
REMARK    7  A    between atoms: C_22  and  S_24
REMARK    8  A    between atoms: S_24  and  C_25
REMARK    9  A    between atoms: C_25  and  C_26
REMARK   10  A    between atoms: C_28  and  C_33
REMARK   11  A    between atoms: C_31  and  C_32
REMARK                            x       y       z     vdW  Elec       q    Type
REMARK                         _______ _______ _______ _____ _____    ______ ____
ROOT
ATOM      1  N   UNL     1       3.013  -3.667   1.493  0.00  0.00    +0.384 N 
ATOM      2  C   UNL     1       4.240  -4.450   1.686  0.00  0.00    -0.059 C 
ATOM      3  C   UNL     1       4.265  -5.016   3.110  0.00  0.00    +0.088 C 
ATOM      4  N   UNL     1       4.098  -3.903   4.057  0.00  0.00    -0.318 N 
ATOM      5  C   UNL     1       2.983  -2.969   3.840  0.00  0.00    +0.088 C 
ATOM      6  C   UNL     1       3.019  -2.499   2.382  0.00  0.00    -0.059 C 
ATOM      7  C   UNL     1       4.966  -3.739   5.122  0.00  0.00    +0.134 A 
ATOM      8  C   UNL     1       4.773  -4.474   6.325  0.00  0.00    +0.051 A 
ATOM      9  C   UNL     1       3.746  -5.444   6.665  0.00  0.00    -0.028 A 
ATOM     10  C   UNL     1       3.763  -6.018   7.877  0.00  0.00    -0.008 A 
ATOM     11  S   UNL     1       5.185  -5.286   8.665  0.00  0.00    -0.073 S 
ATOM     12  C   UNL     1       5.718  -4.228   7.345  0.00  0.00    +0.115 A 
ATOM     13  N   UNL     1       6.706  -3.372   7.177  0.00  0.00    -0.215 NA
ATOM     14  C   UNL     1       6.836  -2.715   6.033  0.00  0.00    +0.191 A 
ATOM     15  N   UNL     1       5.986  -2.903   5.030  0.00  0.00    -0.206 NA
ATOM     16  C   UNL     1       2.807  -7.039   8.438  0.00  0.00    +0.052 C 
ATOM     17  C   UNL     1       2.674  -5.800   5.668  0.00  0.00    +0.045 C 
ATOM     18  H   UNL     1       2.212  -4.245   1.703  0.00  0.00    -0.081 HD
ENDROOT
BRANCH   1  19
ATOM     19  C   UNL     1       2.937  -3.217   0.097  0.00  0.00    -0.043 C 
BRANCH  19  25
ATOM     20  C   UNL     1       5.006  -6.524  -3.038  0.00  0.00    +0.044 C 
ATOM     21  C   UNL     1       3.797  -5.995  -2.311  0.00  0.00    -0.050 A 
ATOM     22  C   UNL     1       2.568  -6.607  -2.477  0.00  0.00    +0.003 A 
ATOM     23  C   UNL     1       1.459  -6.122  -1.810  0.00  0.00    +0.004 A 
ATOM     24  C   UNL     1       1.578  -5.024  -0.977  0.00  0.00    -0.049 A 
ATOM     25  C   UNL     1       2.807  -4.413  -0.811  0.00  0.00    -0.061 A 
ATOM     26  C   UNL     1       3.917  -4.901  -1.474  0.00  0.00    +0.005 A 
ATOM     27  C   UNL     1       0.369  -4.495  -0.251  0.00  0.00    +0.044 C 
ENDBRANCH  19  25
ENDBRANCH   1  19
BRANCH  14  28
ATOM     28  S   UNL     1       8.166  -1.576   5.835  0.00  0.00    -0.081 S 
BRANCH  28  29
ATOM     29  C   UNL     1       9.048  -1.653   7.419  0.00  0.00    +0.112 C 
BRANCH  29  30
ATOM     30  C   UNL     1      10.226  -0.713   7.384  0.00  0.00    -0.034 A 
ATOM     31  C   UNL     1      11.454  -1.161   6.936  0.00  0.00    +0.008 A 
ATOM     32  C   UNL     1      12.534  -0.299   6.904  0.00  0.00    -0.050 A 
ATOM     33  C   UNL     1      12.386   1.011   7.320  0.00  0.00    +0.003 A 
ATOM     34  C   UNL     1      11.157   1.459   7.768  0.00  0.00    +0.004 A 
ATOM     35  C   UNL     1      10.076   0.598   7.795  0.00  0.00    -0.046 A 
ATOM     36  C   UNL     1       8.735   1.088   8.278  0.00  0.00    +0.044 C 
ATOM     37  C   UNL     1      13.874  -0.787   6.416  0.00  0.00    +0.044 C 
ENDBRANCH  29  30
ENDBRANCH  28  29
ENDBRANCH  14  28
TORSDOF 5
