REMARK  Name = ZINC50428360
REMARK  5 active torsions:
REMARK  status: ('A' for Active; 'I' for Inactive)
REMARK    1  A    between atoms: C_3  and  C_9
REMARK    2  A    between atoms: C_9  and  O_10
REMARK    3  A    between atoms: O_10  and  C_11
REMARK    4  A    between atoms: C_16  and  S_17
REMARK    5  A    between atoms: S_17  and  N_20
REMARK                            x       y       z     vdW  Elec       q    Type
REMARK                         _______ _______ _______ _____ _____    ______ ____
ROOT
ATOM      1  C   UNL     1       4.456   4.430  -0.019  0.00  0.00    +0.147 A 
ATOM      2  C   UNL     1       5.746   3.919  -0.041  0.00  0.00    +0.049 A 
ATOM      3  C   UNL     1       6.828   4.778  -0.047  0.00  0.00    +0.019 A 
ATOM      4  C   UNL     1       6.626   6.146  -0.033  0.00  0.00    +0.020 A 
ATOM      5  C   UNL     1       5.340   6.658  -0.011  0.00  0.00    +0.047 A 
ATOM      6  C   UNL     1       4.256   5.802  -0.010  0.00  0.00    +0.147 A 
ATOM      7 BR   UNL     1       8.108   7.320  -0.042  0.00  0.00    -0.050 Br
ENDROOT
BRANCH   6   8
ATOM      8  S   UNL     1       2.619   6.454   0.009  0.00  0.00    +0.059 S 
ATOM      9  O   UNL     1       1.920   5.767   1.038  0.00  0.00    -0.153 OA
ATOM     10  O   UNL     1       2.745   7.869  -0.012  0.00  0.00    -0.153 OA
BRANCH   8  11
ATOM     11  N   UNL     1       1.903   6.021  -1.420  0.00  0.00    -0.203 NA
ATOM     12  H   UNL     1       0.944   5.881  -1.459  0.00  0.00    +0.144 HD
ATOM     13  H   UNL     1       2.442   5.909  -2.219  0.00  0.00    +0.144 HD
ENDBRANCH   8  11
ENDBRANCH   6   8
BRANCH   1  14
ATOM     14  O   UNL     1       3.390   3.586  -0.013  0.00  0.00    -0.485 OA
BRANCH  14  15
ATOM     15  C   UNL     1       3.671   2.185  -0.023  0.00  0.00    +0.266 C 
BRANCH  15  18
ATOM     16  C   UNL     1      -0.017   1.379   0.010  0.00  0.00    +0.020 A 
ATOM     17  C   UNL     1       1.171   2.087   0.002  0.00  0.00    +0.010 A 
ATOM     18  C   UNL     1       2.377   1.413  -0.013  0.00  0.00    +0.008 A 
ATOM     19  C   UNL     1       2.397   0.029  -0.021  0.00  0.00    +0.049 A 
ATOM     20  C   UNL     1       1.210  -0.679  -0.013  0.00  0.00    +0.040 A 
ATOM     21  C   UNL     1       0.002  -0.004   0.002  0.00  0.00    +0.042 A 
ATOM     22 CL   UNL     1      -1.489  -0.893   0.012  0.00  0.00    -0.083 Cl
ATOM     23 CL   UNL     1       3.913  -0.817  -0.041  0.00  0.00    -0.083 Cl
ENDBRANCH  15  18
ENDBRANCH  14  15
ENDBRANCH   1  14
TORSDOF 5
