REMARK  Name = ZINC06309051
REMARK  9 active torsions:
REMARK  status: ('A' for Active; 'I' for Inactive)
REMARK    1  A    between atoms: C_1  and  C_2
REMARK    2  A    between atoms: C_5  and  C_31
REMARK    3  A    between atoms: C_9  and  C_10
REMARK    4  A    between atoms: C_9  and  N_61
REMARK    5  A    between atoms: N_14  and  C_15
REMARK    6  A    between atoms: C_15  and  C_16
REMARK    7  A    between atoms: C_16  and  C_17
REMARK    8  A    between atoms: N_25  and  C_30
REMARK    9  A    between atoms: N_28  and  C_29
REMARK                            x       y       z     vdW  Elec       q    Type
REMARK                         _______ _______ _______ _____ _____    ______ ____
ROOT
ATOM      1  C   UNL     1       3.221   3.180   0.027  0.00  0.00    +0.096 A 
ATOM      2  N   UNL     1       2.289   2.262  -0.008  0.00  0.00    -0.216 NA
ATOM      3  C   UNL     1       1.085   2.839   0.030  0.00  0.00    +0.168 A 
ATOM      4  C   UNL     1       1.288   4.212   0.093  0.00  0.00    +0.152 A 
ATOM      5  N   UNL     1       2.656   4.401   0.089  0.00  0.00    -0.323 N 
ATOM      6  C   UNL     1       0.169   5.072   0.143  0.00  0.00    +0.282 A 
ATOM      7  O   UNL     1       0.322   6.279   0.198  0.00  0.00    -0.265 OA
ATOM      8  N   UNL     1      -1.071   4.540   0.129  0.00  0.00    -0.262 N 
ATOM      9  C   UNL     1      -1.253   3.210   0.063  0.00  0.00    +0.333 A 
ATOM     10  O   UNL     1      -2.385   2.767   0.047  0.00  0.00    -0.246 OA
ATOM     11  N   UNL     1      -0.213   2.355   0.018  0.00  0.00    -0.280 N 
ATOM     12  C   UNL     1      -0.455   0.912  -0.048  0.00  0.00    +0.155 C 
ATOM     13  C   UNL     1      -2.236   5.426   0.180  0.00  0.00    +0.157 C 
ENDROOT
BRANCH   1  14
ATOM     14  C   UNL     1       4.704   2.911   0.000  0.00  0.00    -0.003 C 
BRANCH  14  22
ATOM     15  C   UNL     1       4.719   1.003  -4.533  0.00  0.00    +0.005 C 
ATOM     16  C   UNL     1       5.167   2.180  -3.664  0.00  0.00    -0.031 C 
ATOM     17  C   UNL     1       6.690   2.321  -3.740  0.00  0.00    +0.003 C 
ATOM     18  C   UNL     1       7.135   3.462  -2.822  0.00  0.00    -0.031 C 
ATOM     19  C   UNL     1       6.665   3.175  -1.394  0.00  0.00    -0.075 C 
ATOM     20  C   UNL     1       4.754   1.930  -2.212  0.00  0.00    -0.075 C 
ATOM     21  C   UNL     1       6.521   4.777  -3.306  0.00  0.00    +0.005 C 
ATOM     22  N   UNL     1       5.191   3.075  -1.385  0.00  0.00    +0.385 N 
ATOM     23  H   UNL     1       4.796   3.938  -1.777  0.00  0.00    -0.081 HD
ENDBRANCH  14  22
ENDBRANCH   1  14
BRANCH   5  24
ATOM     24  C   UNL     1       3.358   5.685   0.143  0.00  0.00    +0.128 C 
BRANCH  24  25
ATOM     25  C   UNL     1       3.519   6.118   1.602  0.00  0.00    +0.057 C 
BRANCH  25  26
ATOM     26  C   UNL     1       4.344   7.378   1.664  0.00  0.00    -0.046 A 
ATOM     27  C   UNL     1       5.719   7.298   1.783  0.00  0.00    +0.004 A 
ATOM     28  C   UNL     1       6.476   8.454   1.836  0.00  0.00    +0.000 A 
ATOM     29  C   UNL     1       5.857   9.689   1.779  0.00  0.00    +0.000 A 
ATOM     30  C   UNL     1       4.481   9.768   1.665  0.00  0.00    +0.000 A 
ATOM     31  C   UNL     1       3.725   8.612   1.608  0.00  0.00    +0.004 A 
ENDBRANCH  25  26
ENDBRANCH  24  25
ENDBRANCH   5  24
TORSDOF 5
