REMARK  Name = ZINC20753119
REMARK  7 active torsions:
REMARK  status: ('A' for Active; 'I' for Inactive)
REMARK    1  A    between atoms: C_1  and  C_2
REMARK    2  A    between atoms: C_2  and  C_3
REMARK    3  A    between atoms: C_3  and  C_5
REMARK    4  A    between atoms: C_3  and  N_6
REMARK    5  A    between atoms: N_6  and  S_7
REMARK    6  A    between atoms: S_7  and  C_10
REMARK    7  A    between atoms: C_23  and  C_26
REMARK                            x       y       z     vdW  Elec       q    Type
REMARK                         _______ _______ _______ _____ _____    ______ ____
ROOT
ATOM      1  C   UNL     1       3.619   1.496   0.891  0.00  0.00    +0.106 A 
ATOM      2  C   UNL     1       4.021   2.511   0.043  0.00  0.00    +0.030 A 
ATOM      3  C   UNL     1       3.111   3.076  -0.828  0.00  0.00    +0.025 A 
ATOM      4  C   UNL     1       1.797   2.624  -0.850  0.00  0.00    +0.031 A 
ATOM      5  C   UNL     1       1.390   1.606  -0.003  0.00  0.00    -0.018 A 
ATOM      6  C   UNL     1       2.314   1.046   0.869  0.00  0.00    +0.034 A 
ATOM      7  C   UNL     1      -0.013   1.086   0.008  0.00  0.00    +0.049 C 
ATOM      8  C   UNL     1      -0.773   1.574   1.218  0.00  0.00    -0.023 C 
ATOM      9  C   UNL     1      -2.008   1.824   0.927  0.00  0.00    -0.030 C 
ATOM     10  C   UNL     1      -2.270   1.530  -0.537  0.00  0.00    +0.033 C 
ATOM     11  C   UNL     1      -0.853   1.597  -1.179  0.00  0.00    +0.029 C 
ATOM     12  C   UNL     1      -0.547   3.058  -1.460  0.00  0.00    +0.111 C 
ATOM     13  N   UNL     1       0.885   3.209  -1.736  0.00  0.00    -0.336 N 
ATOM     14  H   UNL     1       1.219   3.771  -2.620  0.00  0.00    +0.147 HD
ENDROOT
BRANCH  12  15
ATOM     15  C   UNL     1      -0.918   3.878  -0.251  0.00  0.00    +0.010 A 
ATOM     16  C   UNL     1      -2.026   4.628  -0.036  0.00  0.00    +0.013 A 
ATOM     17  C   UNL     1      -2.156   5.303   1.163  0.00  0.00    +0.008 A 
ATOM     18  C   UNL     1      -1.171   5.196   2.088  0.00  0.00    +0.045 A 
ATOM     19  S   UNL     1      -0.015   4.108   1.271  0.00  0.00    -0.100 S 
ENDBRANCH  12  15
BRANCH   1  20
ATOM     20  S   UNL     1       4.777   0.773   2.005  0.00  0.00    +0.059 S 
ATOM     21  O   UNL     1       4.291  -0.528   2.308  0.00  0.00    -0.153 OA
ATOM     22  O   UNL     1       6.066   0.995   1.451  0.00  0.00    -0.153 OA
BRANCH  20  23
ATOM     23  N   UNL     1       4.710   1.643   3.413  0.00  0.00    -0.187 NA
ATOM     24  H   UNL     1       5.524   2.344   3.650  0.00  0.00    +0.148 HD
BRANCH  23  25
ATOM     25  C   UNL     1       3.486   1.642   4.217  0.00  0.00    +0.073 C 
ATOM     26  C   UNL     1       3.594   0.576   5.309  0.00  0.00    +0.025 C 
BRANCH  25  28
ATOM     27  C   UNL     1       3.067   4.064   3.773  0.00  0.00    +0.005 C 
ATOM     28  C   UNL     1       3.299   3.016   4.863  0.00  0.00    +0.017 C 
ENDBRANCH  25  28
ENDBRANCH  23  25
ENDBRANCH  20  23
ENDBRANCH   1  20
TORSDOF 5
