REMARK  Name = ZINC13639333
REMARK  8 active torsions:
REMARK  status: ('A' for Active; 'I' for Inactive)
REMARK    1  A    between atoms: C_1  and  C_2
REMARK    2  A    between atoms: C_3  and  C_24
REMARK    3  A    between atoms: C_12  and  C_17
REMARK    4  A    between atoms: C_22  and  O_23
REMARK    5  A    between atoms: C_27  and  O_32
REMARK    6  A    between atoms: C_28  and  O_30
REMARK    7  A    between atoms: O_30  and  C_31
REMARK    8  A    between atoms: O_32  and  C_33
REMARK                            x       y       z     vdW  Elec       q    Type
REMARK                         _______ _______ _______ _____ _____    ______ ____
ROOT
ATOM      1  C   UNL     1       2.248  -0.040  -2.340  0.00  0.00    +0.068 C 
ATOM      2  C   UNL     1       2.964   0.255  -1.047  0.00  0.00    +0.070 A 
ATOM      3  C   UNL     1       2.479   1.070  -0.015  0.00  0.00    +0.051 A 
ATOM      4  C   UNL     1       3.446   1.082   0.993  0.00  0.00    +0.186 A 
ATOM      5  N   UNL     1       3.511   1.676   2.190  0.00  0.00    -0.128 NA
ATOM      6  N   UNL     1       4.532   1.520   2.957  0.00  0.00    -0.142 NA
ATOM      7  C   UNL     1       5.574   0.750   2.589  0.00  0.00    +0.150 A 
ATOM      8  C   UNL     1       5.565   0.113   1.365  0.00  0.00    +0.076 A 
ATOM      9  N   UNL     1       4.477   0.280   0.560  0.00  0.00    -0.214 N 
ATOM     10  N   UNL     1       4.141  -0.209  -0.704  0.00  0.00    -0.169 NA
ATOM     11  C   UNL     1       6.710  -0.741   0.901  0.00  0.00    +0.066 C 
ATOM     12  C   UNL     1       7.537  -1.246   2.081  0.00  0.00    +0.036 C 
ATOM     13  C   UNL     1       7.977  -0.052   2.940  0.00  0.00    +0.090 C 
ATOM     14  C   UNL     1       6.723   0.590   3.496  0.00  0.00    +0.185 C 
ATOM     15  O   UNL     1       6.668   0.961   4.650  0.00  0.00    -0.290 OA
ENDROOT
BRANCH  12  16
ATOM     16  C   UNL     1       8.755  -1.971   1.567  0.00  0.00    -0.002 A 
ATOM     17  C   UNL     1       9.671  -1.309   0.773  0.00  0.00    +0.007 A 
ATOM     18  C   UNL     1      10.787  -1.974   0.302  0.00  0.00    +0.001 A 
ATOM     19  C   UNL     1      10.991  -3.303   0.624  0.00  0.00    +0.004 A 
ATOM     20  C   UNL     1      10.078  -3.970   1.418  0.00  0.00    +0.046 A 
ATOM     21  C   UNL     1       8.959  -3.303   1.897  0.00  0.00    +0.120 A 
BRANCH  21  22
ATOM     22  O   UNL     1       8.063  -3.955   2.683  0.00  0.00    -0.506 OA
ATOM     23  H   UNL     1       7.353  -4.391   2.191  0.00  0.00    +0.292 HD
ENDBRANCH  21  22
ENDBRANCH  12  16
BRANCH   3  24
ATOM     24  C   UNL     1       1.185   1.791   0.000  0.00  0.00    -0.009 A 
ATOM     25  C   UNL     1       1.161   3.185   0.008  0.00  0.00    +0.012 A 
ATOM     26  C   UNL     1      -0.045   3.855   0.023  0.00  0.00    +0.050 A 
ATOM     27  C   UNL     1      -1.236   3.145   0.031  0.00  0.00    +0.162 A 
ATOM     28  C   UNL     1      -1.219   1.752   0.017  0.00  0.00    +0.162 A 
ATOM     29  C   UNL     1      -0.013   1.076   0.008  0.00  0.00    +0.058 A 
BRANCH  28  30
ATOM     30  O   UNL     1      -2.388   1.058   0.019  0.00  0.00    -0.491 OA
ATOM     31  C   UNL     1      -2.296  -0.368   0.010  0.00  0.00    +0.277 C 
ENDBRANCH  28  30
BRANCH  27  32
ATOM     32  O   UNL     1      -2.423   3.809   0.046  0.00  0.00    -0.491 OA
ATOM     33  C   UNL     1      -2.367   5.237   0.053  0.00  0.00    +0.277 C 
ENDBRANCH  27  32
ENDBRANCH   3  24
TORSDOF 5
