REMARK  Name = ZINC35377735
REMARK  10 active torsions:
REMARK  status: ('A' for Active; 'I' for Inactive)
REMARK    1  A    between atoms: C_1  and  C_2
REMARK    2  A    between atoms: C_2  and  C_3
REMARK    3  A    between atoms: C_2  and  N_4
REMARK    4  A    between atoms: C_5  and  C_7
REMARK    5  A    between atoms: C_7  and  C_8
REMARK    6  A    between atoms: C_11  and  N_14
REMARK    7  A    between atoms: N_23  and  C_26
REMARK    8  A    between atoms: C_26  and  C_27
REMARK    9  A    between atoms: N_29  and  C_30
REMARK   10  A    between atoms: C_30  and  C_31
REMARK                            x       y       z     vdW  Elec       q    Type
REMARK                         _______ _______ _______ _____ _____    ______ ____
ROOT
ATOM      1  N   UNL     1      -2.822  -1.397   7.954  0.00  0.00    -0.228 N 
ATOM      2  C   UNL     1      -2.903  -0.354   8.809  0.00  0.00    +0.269 A 
ATOM      3  O   UNL     1      -2.216   0.637   8.651  0.00  0.00    -0.266 OA
ATOM      4  C   UNL     1      -3.846  -0.448   9.937  0.00  0.00    +0.064 A 
ATOM      5  C   UNL     1      -3.988   0.585  10.861  0.00  0.00    +0.015 A 
ATOM      6  C   UNL     1      -4.885   0.449  11.899  0.00  0.00    +0.001 A 
ATOM      7  C   UNL     1      -5.642  -0.706  12.026  0.00  0.00    +0.002 A 
ATOM      8  C   UNL     1      -5.510  -1.738  11.118  0.00  0.00    +0.027 A 
ATOM      9  C   UNL     1      -4.614  -1.618  10.066  0.00  0.00    +0.059 A 
ATOM     10  N   UNL     1      -4.452  -2.630   9.131  0.00  0.00    -0.284 N 
ATOM     11  C   UNL     1      -3.580  -2.492   8.117  0.00  0.00    +0.337 A 
ATOM     12  O   UNL     1      -3.472  -3.400   7.316  0.00  0.00    -0.246 OA
ENDROOT
BRANCH   1  16
ATOM     13  C   UNL     1      -0.177  -1.201   4.738  0.00  0.00    -0.038 A 
ATOM     14  C   UNL     1      -1.474  -0.743   4.594  0.00  0.00    +0.006 A 
ATOM     15  C   UNL     1      -2.353  -0.806   5.658  0.00  0.00    +0.027 A 
ATOM     16  C   UNL     1      -1.933  -1.331   6.873  0.00  0.00    +0.054 A 
ATOM     17  C   UNL     1      -0.630  -1.791   7.014  0.00  0.00    +0.027 A 
ATOM     18  C   UNL     1       0.242  -1.729   5.946  0.00  0.00    +0.006 A 
BRANCH  13  19
ATOM     19  C   UNL     1       0.779  -1.130   3.576  0.00  0.00    +0.130 C 
BRANCH  19  21
ATOM     20  N   UNL     1       1.451  -2.560   1.672  0.00  0.00    -0.313 N 
ATOM     21  C   UNL     1       0.682  -2.398   2.768  0.00  0.00    +0.218 C 
ATOM     22  O   UNL     1      -0.088  -3.274   3.103  0.00  0.00    -0.275 OA
ATOM     23  H   UNL     1       2.067  -1.860   1.404  0.00  0.00    +0.149 HD
BRANCH  20  25
ATOM     24  C   UNL     1       0.208  -3.671  -0.117  0.00  0.00    +0.027 C 
ATOM     25  C   UNL     1       1.356  -3.793   0.887  0.00  0.00    +0.067 C 
ATOM     26  C   UNL     1       2.669  -4.021   0.135  0.00  0.00    +0.027 C 
ENDBRANCH  20  25
ENDBRANCH  19  21
ENDBRANCH  13  19
ENDBRANCH   1  16
BRANCH  10  27
ATOM     27  C   UNL     1      -5.241  -3.858   9.247  0.00  0.00    +0.222 C 
BRANCH  27  28
ATOM     28  C   UNL     1      -6.531  -3.701   8.484  0.00  0.00    +0.233 C 
ATOM     29  O   UNL     1      -6.767  -2.664   7.901  0.00  0.00    -0.274 OA
ATOM     30  N   UNL     1      -7.421  -4.712   8.450  0.00  0.00    -0.310 N 
ATOM     31  H   UNL     1      -7.232  -5.541   8.916  0.00  0.00    +0.149 HD
BRANCH  30  32
ATOM     32  C   UNL     1      -8.675  -4.559   7.708  0.00  0.00    +0.139 C 
BRANCH  32  33
ATOM     33  C   UNL     1      -9.487  -5.823   7.827  0.00  0.00    -0.030 A 
ATOM     34  C   UNL     1      -9.327  -6.837   6.902  0.00  0.00    +0.006 A 
ATOM     35  C   UNL     1     -10.071  -7.997   7.011  0.00  0.00    +0.020 A 
ATOM     36  C   UNL     1     -10.977  -8.142   8.046  0.00  0.00    +0.041 A 
ATOM     37  C   UNL     1     -11.138  -7.126   8.972  0.00  0.00    +0.020 A 
ATOM     38  C   UNL     1     -10.389  -5.969   8.865  0.00  0.00    +0.006 A 
ATOM     39 CL   UNL     1     -11.913  -9.597   8.184  0.00  0.00    -0.084 Cl
ENDBRANCH  32  33
ENDBRANCH  30  32
ENDBRANCH  27  28
ENDBRANCH  10  27
TORSDOF 8
