REMARK  Name = ZINC12567740
REMARK  8 active torsions:
REMARK  status: ('A' for Active; 'I' for Inactive)
REMARK    1  A    between atoms: C_1  and  C_2
REMARK    2  A    between atoms: C_5  and  S_24
REMARK    3  A    between atoms: C_7  and  C_8
REMARK    4  A    between atoms: N_10  and  C_11
REMARK    5  A    between atoms: C_11  and  C_12
REMARK    6  A    between atoms: C_12  and  C_14
REMARK    7  A    between atoms: C_12  and  N_63
REMARK    8  A    between atoms: S_24  and  N_27
REMARK                            x       y       z     vdW  Elec       q    Type
REMARK                         _______ _______ _______ _____ _____    ______ ____
ROOT
ATOM      1  C   UNL     1      -3.775  -0.991   3.592  0.00  0.00    +0.244 C 
ATOM      2  O   UNL     1      -4.344  -1.074   4.663  0.00  0.00    -0.270 OA
ATOM      3  N   UNL     1      -3.462  -2.108   2.907  0.00  0.00    -0.312 N 
ATOM      4  H   UNL     1      -3.008  -2.042   2.052  0.00  0.00    +0.149 HD
ENDROOT
BRANCH   1  11
ATOM      5  C   UNL     1      -4.689   1.402   4.938  0.00  0.00    +0.044 C 
ATOM      6  C   UNL     1      -3.861   1.497   3.682  0.00  0.00    -0.038 A 
ATOM      7  C   UNL     1      -3.532   2.733   3.163  0.00  0.00    +0.006 A 
ATOM      8  C   UNL     1      -2.768   2.822   2.014  0.00  0.00    +0.029 A 
ATOM      9  C   UNL     1      -2.337   1.675   1.371  0.00  0.00    +0.106 A 
ATOM     10  C   UNL     1      -2.659   0.433   1.879  0.00  0.00    +0.041 A 
ATOM     11  C   UNL     1      -3.426   0.336   3.042  0.00  0.00    +0.041 A 
BRANCH   9  12
ATOM     12  S   UNL     1      -1.370   1.800  -0.096  0.00  0.00    +0.061 S 
ATOM     13  O   UNL     1      -0.629   0.591  -0.198  0.00  0.00    -0.153 OA
ATOM     14  O   UNL     1      -0.745   3.076  -0.064  0.00  0.00    -0.153 OA
BRANCH  12  15
ATOM     15  N   UNL     1      -2.421   1.820  -1.376  0.00  0.00    -0.172 NA
ATOM     16  C   UNL     1      -2.838   0.571  -2.033  0.00  0.00    +0.137 C 
ATOM     17  C   UNL     1      -4.372   0.565  -2.121  0.00  0.00    +0.177 C 
ATOM     18  O   UNL     1      -4.811   1.781  -2.732  0.00  0.00    -0.377 OA
ATOM     19  C   UNL     1      -4.485   2.959  -1.991  0.00  0.00    +0.177 C 
ATOM     20  C   UNL     1      -2.961   3.087  -1.893  0.00  0.00    +0.137 C 
ENDBRANCH  12  15
ENDBRANCH   9  12
ENDBRANCH   1  11
BRANCH   3  21
ATOM     21  C   UNL     1      -3.808  -3.423   3.452  0.00  0.00    +0.097 C 
BRANCH  21  22
ATOM     22  C   UNL     1      -3.345  -4.514   2.484  0.00  0.00    +0.016 C 
BRANCH  22  28
ATOM     23  C   UNL     1      -5.380  -4.166   1.219  0.00  0.00    -0.078 C 
ATOM     24  C   UNL     1      -5.926  -3.761  -0.152  0.00  0.00    -0.019 C 
ATOM     25  C   UNL     1      -5.511  -4.807  -1.190  0.00  0.00    -0.004 C 
ATOM     26  C   UNL     1      -3.985  -4.924  -1.204  0.00  0.00    -0.019 C 
ATOM     27  C   UNL     1      -3.494  -5.295   0.198  0.00  0.00    -0.078 C 
ATOM     28  N   UNL     1      -3.905  -4.237   1.145  0.00  0.00    +0.387 N 
ATOM     29  H   UNL     1      -3.544  -3.334   0.814  0.00  0.00    -0.081 HD
ENDBRANCH  22  28
BRANCH  22  30
ATOM     30  C   UNL     1      -3.809  -5.858   2.984  0.00  0.00    +0.093 A 
ATOM     31  C   UNL     1      -3.040  -6.779   3.592  0.00  0.00    +0.043 A 
ATOM     32  C   UNL     1      -3.877  -7.880   3.889  0.00  0.00    +0.041 A 
ATOM     33  C   UNL     1      -5.107  -7.565   3.446  0.00  0.00    +0.195 A 
ATOM     34  O   UNL     1      -5.061  -6.337   2.903  0.00  0.00    -0.469 OA
ENDBRANCH  22  30
ENDBRANCH  21  22
ENDBRANCH   3  21
TORSDOF 7
