REMARK  Name = ZINC59874740
REMARK  7 active torsions:
REMARK  status: ('A' for Active; 'I' for Inactive)
REMARK    1  A    between atoms: C_1  and  C_2
REMARK    2  A    between atoms: C_2  and  C_4
REMARK    3  A    between atoms: C_2  and  N_21
REMARK    4  A    between atoms: N_6  and  C_7
REMARK    5  A    between atoms: N_6  and  C_15
REMARK    6  A    between atoms: C_7  and  C_8
REMARK    7  A    between atoms: C_28  and  N_32
REMARK                            x       y       z     vdW  Elec       q    Type
REMARK                         _______ _______ _______ _____ _____    ______ ____
ROOT
ATOM      1  C   UNL     1      -2.126   0.079  -0.503  0.00  0.00    +0.237 C 
ATOM      2  O   UNL     1      -1.081   0.643  -0.749  0.00  0.00    -0.274 OA
ATOM      3  N   UNL     1      -2.370  -0.375   0.742  0.00  0.00    -0.293 N 
ENDROOT
BRANCH   3   4
ATOM      4  C   UNL     1      -1.439  -0.065   1.830  0.00  0.00    +0.076 C 
ATOM      5  C   UNL     1      -1.240   1.450   1.915  0.00  0.00    +0.022 C 
ATOM      6  C   UNL     1      -0.268   1.773   3.052  0.00  0.00    +0.002 C 
ATOM      7  C   UNL     1       1.077   1.097   2.780  0.00  0.00    +0.000 C 
ATOM      8  C   UNL     1       0.878  -0.418   2.695  0.00  0.00    +0.002 C 
ATOM      9  C   UNL     1      -0.094  -0.742   1.559  0.00  0.00    +0.022 C 
ENDBRANCH   3   4
BRANCH   1  11
ATOM     10  C   UNL     1      -3.240  -1.600  -1.949  0.00  0.00    +0.038 C 
ATOM     11  C   UNL     1      -3.151  -0.115  -1.590  0.00  0.00    +0.167 C 
BRANCH  11  12
ATOM     12  N   UNL     1      -2.758   0.651  -2.775  0.00  0.00    -0.222 N 
ATOM     13  C   UNL     1      -1.613   0.465  -3.456  0.00  0.00    +0.255 C 
ATOM     14  O   UNL     1      -0.754  -0.353  -3.190  0.00  0.00    -0.270 OA
ATOM     15  C   UNL     1      -1.574   1.421  -4.583  0.00  0.00    +0.052 A 
ATOM     16  C   UNL     1      -0.666   1.687  -5.595  0.00  0.00    +0.014 A 
ATOM     17  C   UNL     1      -0.941   2.681  -6.521  0.00  0.00    +0.003 A 
ATOM     18  C   UNL     1      -2.113   3.409  -6.439  0.00  0.00    +0.033 A 
ATOM     19  C   UNL     1      -3.030   3.155  -5.432  0.00  0.00    +0.139 A 
ATOM     20  C   UNL     1      -2.769   2.163  -4.500  0.00  0.00    +0.080 A 
ATOM     21  C   UNL     1      -3.497   1.629  -3.329  0.00  0.00    +0.257 C 
ATOM     22  O   UNL     1      -4.579   2.011  -2.933  0.00  0.00    -0.269 OA
BRANCH  19  23
ATOM     23  N   UNL     1      -4.284   3.938  -5.352  0.00  0.00    +0.057 N 
ATOM     24  O   UNL     1      -4.509   4.803  -6.167  0.00  0.00    -0.126 OA
ATOM     25  O   UNL     1      -5.082   3.714  -4.472  0.00  0.00    -0.126 OA
ENDBRANCH  19  23
ENDBRANCH  11  12
ENDBRANCH   1  11
BRANCH   3  26
ATOM     26  C   UNL     1      -3.566  -1.179   1.008  0.00  0.00    +0.143 C 
BRANCH  26  27
ATOM     27  C   UNL     1      -3.156  -2.536   1.518  0.00  0.00    -0.030 A 
ATOM     28  C   UNL     1      -2.590  -3.457   0.656  0.00  0.00    +0.008 A 
ATOM     29  C   UNL     1      -2.213  -4.701   1.123  0.00  0.00    +0.038 A 
ATOM     30  C   UNL     1      -2.402  -5.027   2.455  0.00  0.00    +0.123 A 
ATOM     31  C   UNL     1      -2.969  -4.104   3.318  0.00  0.00    +0.038 A 
ATOM     32  C   UNL     1      -3.340  -2.858   2.850  0.00  0.00    +0.008 A 
ATOM     33  F   UNL     1      -2.035  -6.244   2.913  0.00  0.00    -0.205 F 
ENDBRANCH  26  27
ENDBRANCH   3  26
TORSDOF 6
