REMARK  Name = ZINC09462887
REMARK  13 active torsions:
REMARK  status: ('A' for Active; 'I' for Inactive)
REMARK    1  A    between atoms: C_1  and  C_2
REMARK    2  A    between atoms: C_9  and  N_30
REMARK    3  A    between atoms: C_10  and  C_13
REMARK    4  A    between atoms: N_17  and  C_21
REMARK    5  A    between atoms: C_21  and  C_23
REMARK    6  A    between atoms: C_21  and  C_24
REMARK    7  A    between atoms: N_30  and  C_31
REMARK    8  A    between atoms: C_31  and  C_32
REMARK    9  A    between atoms: C_32  and  C_33
REMARK   10  A    between atoms: C_33  and  O_34
REMARK   11  A    between atoms: O_34  and  C_35
REMARK   12  A    between atoms: C_35  and  C_36
REMARK   13  A    between atoms: C_35  and  C_37
REMARK                            x       y       z     vdW  Elec       q    Type
REMARK                         _______ _______ _______ _____ _____    ______ ____
ROOT
ATOM      1  C   UNL     1       1.974   2.953  -1.760  0.00  0.00    +0.047 C 
ATOM      2  C   UNL     1       0.599   2.344  -1.857  0.00  0.00    -0.007 A 
ATOM      3  C   UNL     1       0.451   1.038  -2.219  0.00  0.00    +0.008 A 
ATOM      4  C   UNL     1      -0.835   0.486  -2.304  0.00  0.00    +0.019 A 
ATOM      5  C   UNL     1      -1.919   1.247  -2.035  0.00  0.00    +0.096 A 
ATOM      6  N   UNL     1      -1.781   2.553  -1.667  0.00  0.00    -0.267 N 
ATOM      7  C   UNL     1      -0.540   3.119  -1.574  0.00  0.00    +0.145 A 
ATOM      8  N   UNL     1      -0.386   4.396  -1.221  0.00  0.00    -0.214 NA
ATOM      9  C   UNL     1      -1.424   5.171  -0.944  0.00  0.00    +0.134 A 
ATOM     10  C   UNL     1      -2.732   4.639  -1.022  0.00  0.00    +0.081 A 
ATOM     11  C   UNL     1      -2.885   3.283  -1.398  0.00  0.00    +0.267 A 
ATOM     12  O   UNL     1      -3.994   2.784  -1.479  0.00  0.00    -0.267 OA
ENDROOT
BRANCH  10  13
ATOM     13  C   UNL     1      -3.860   5.442  -0.733  0.00  0.00    +0.037 C 
ATOM     14  C   UNL     1      -4.072   6.597  -1.428  0.00  0.00    +0.077 C 
ATOM     15  C   UNL     1      -5.052   7.610  -1.225  0.00  0.00    +0.259 C 
ATOM     16  O   UNL     1      -5.866   7.522  -0.323  0.00  0.00    -0.269 OA
ATOM     17  N   UNL     1      -5.051   8.650  -2.041  0.00  0.00    -0.248 N 
ATOM     18  C   UNL     1      -4.152   8.744  -3.046  0.00  0.00    +0.121 C 
ATOM     19  S   UNL     1      -3.974   9.983  -4.214  0.00  0.00    -0.027 S 
ATOM     20  S   UNL     1      -3.199   7.246  -2.847  0.00  0.00    -0.061 S 
BRANCH  17  21
ATOM     21  C   UNL     1      -6.042   9.714  -1.856  0.00  0.00    +0.110 C 
ATOM     22  C   UNL     1      -7.064   9.281  -0.803  0.00  0.00    +0.033 C 
BRANCH  21  23
ATOM     23  C   UNL     1      -5.350  10.971  -1.397  0.00  0.00    -0.027 A 
ATOM     24  C   UNL     1      -4.305  10.895  -0.495  0.00  0.00    +0.005 A 
ATOM     25  C   UNL     1      -3.667  12.048  -0.078  0.00  0.00    +0.000 A 
ATOM     26  C   UNL     1      -4.080  13.278  -0.554  0.00  0.00    +0.000 A 
ATOM     27  C   UNL     1      -5.129  13.355  -1.452  0.00  0.00    +0.000 A 
ATOM     28  C   UNL     1      -5.763  12.201  -1.874  0.00  0.00    +0.005 A 
ENDBRANCH  21  23
ENDBRANCH  17  21
ENDBRANCH  10  13
BRANCH   9  29
ATOM     29  N   UNL     1      -1.230   6.486  -0.582  0.00  0.00    -0.328 N 
ATOM     30  H   UNL     1      -1.992   7.051  -0.380  0.00  0.00    +0.147 HD
BRANCH  29  31
ATOM     31  C   UNL     1       0.128   7.032  -0.502  0.00  0.00    +0.105 C 
BRANCH  31  32
ATOM     32  C   UNL     1       0.063   8.502  -0.083  0.00  0.00    +0.047 C 
BRANCH  32  33
ATOM     33  C   UNL     1       1.480   9.071   0.000  0.00  0.00    +0.161 C 
BRANCH  33  34
ATOM     34  O   UNL     1       1.420  10.444   0.392  0.00  0.00    -0.377 OA
BRANCH  34  35
ATOM     35  C   UNL     1       2.697  11.075   0.500  0.00  0.00    +0.112 C 
ATOM     36  C   UNL     1       2.560  12.564   0.179  0.00  0.00    +0.037 C 
ATOM     37  C   UNL     1       3.230  10.907   1.925  0.00  0.00    +0.037 C 
ENDBRANCH  34  35
ENDBRANCH  33  34
ENDBRANCH  32  33
ENDBRANCH  31  32
ENDBRANCH  29  31
ENDBRANCH   9  29
TORSDOF 9
