REMARK  Name = ZINC10646036
REMARK  9 active torsions:
REMARK  status: ('A' for Active; 'I' for Inactive)
REMARK    1  A    between atoms: C_1  and  C_2
REMARK    2  A    between atoms: C_2  and  N_3
REMARK    3  A    between atoms: N_3  and  C_4
REMARK    4  A    between atoms: N_3  and  S_6
REMARK    5  A    between atoms: C_4  and  C_5
REMARK    6  A    between atoms: S_6  and  C_9
REMARK    7  A    between atoms: C_12  and  N_18
REMARK    8  A    between atoms: C_13  and  N_15
REMARK    9  A    between atoms: C_22  and  C_25
REMARK                            x       y       z     vdW  Elec       q    Type
REMARK                         _______ _______ _______ _____ _____    ______ ____
ROOT
ATOM      1  C   UNL     1      -0.017   1.379   0.010  0.00  0.00    +0.108 A 
ATOM      2  C   UNL     1       0.002  -0.004   0.002  0.00  0.00    +0.030 A 
ATOM      3  C   UNL     1       1.206  -0.680  -0.013  0.00  0.00    +0.027 A 
ATOM      4  C   UNL     1       2.400   0.031  -0.021  0.00  0.00    +0.060 A 
ATOM      5  C   UNL     1       2.377   1.420  -0.013  0.00  0.00    +0.149 A 
ATOM      6  C   UNL     1       1.169   2.090   0.002  0.00  0.00    +0.063 A 
ENDROOT
BRANCH   4   7
ATOM      7  N   UNL     1       3.620  -0.649  -0.036  0.00  0.00    -0.327 N 
ATOM      8  C   UNL     1       3.777  -1.419  -1.277  0.00  0.00    +0.105 C 
ATOM      9  C   UNL     1       5.178  -2.031  -1.325  0.00  0.00    +0.020 C 
ATOM     10  C   UNL     1       5.375  -2.941  -0.109  0.00  0.00    +0.014 C 
ATOM     11  C   UNL     1       5.158  -2.126   1.169  0.00  0.00    +0.074 C 
ATOM     12  C   UNL     1       3.757  -1.511   1.145  0.00  0.00    +0.116 C 
BRANCH  11  13
ATOM     13  C   UNL     1       5.292  -3.026   2.370  0.00  0.00    +0.138 A 
ATOM     14  N   UNL     1       4.566  -4.081   2.634  0.00  0.00    -0.134 NA
ATOM     15  N   UNL     1       4.960  -4.613   3.738  0.00  0.00    -0.134 NA
ATOM     16  C   UNL     1       5.954  -3.925   4.223  0.00  0.00    +0.133 A 
ATOM     17  N   UNL     1       6.188  -2.898   3.374  0.00  0.00    -0.314 N 
ATOM     18  C   UNL     1       7.190  -1.844   3.536  0.00  0.00    +0.125 C 
ATOM     19  C   UNL     1       8.370  -2.389   4.345  0.00  0.00    +0.022 C 
ATOM     20  C   UNL     1       8.121  -2.164   5.836  0.00  0.00    +0.002 C 
ATOM     21  C   UNL     1       6.867  -2.908   6.287  0.00  0.00    +0.008 C 
ATOM     22  C   UNL     1       6.726  -4.207   5.487  0.00  0.00    +0.076 C 
ENDBRANCH  11  13
ENDBRANCH   4   7
BRANCH   1  23
ATOM     23  S   UNL     1      -1.556   2.237   0.022  0.00  0.00    +0.061 S 
ATOM     24  O   UNL     1      -1.306   3.525  -0.523  0.00  0.00    -0.153 OA
ATOM     25  O   UNL     1      -2.519   1.350  -0.530  0.00  0.00    -0.153 OA
BRANCH  23  26
ATOM     26  N   UNL     1      -1.976   2.467   1.607  0.00  0.00    -0.177 NA
BRANCH  26  28
ATOM     27  C   UNL     1      -2.652   4.729   2.245  0.00  0.00    +0.022 C 
ATOM     28  C   UNL     1      -1.544   3.677   2.311  0.00  0.00    +0.106 C 
ENDBRANCH  26  28
BRANCH  26  29
ATOM     29  C   UNL     1      -2.780   1.460   2.305  0.00  0.00    +0.106 C 
ATOM     30  C   UNL     1      -1.855   0.509   3.068  0.00  0.00    +0.022 C 
ENDBRANCH  26  29
ENDBRANCH  23  26
ENDBRANCH   1  23
BRANCH   5  31
ATOM     31  N   UNL     1       3.646   2.182  -0.021  0.00  0.00    +0.058 N 
ATOM     32  O   UNL     1       3.626   3.399  -0.014  0.00  0.00    -0.126 OA
ATOM     33  O   UNL     1       4.711   1.590  -0.034  0.00  0.00    -0.126 OA
ENDBRANCH   5  31
TORSDOF 7
