REMARK  Name = ZINC38922152
REMARK  9 active torsions:
REMARK  status: ('A' for Active; 'I' for Inactive)
REMARK    1  A    between atoms: C_1  and  C_2
REMARK    2  A    between atoms: C_2  and  C_3
REMARK    3  A    between atoms: C_2  and  C_4
REMARK    4  A    between atoms: C_4  and  O_5
REMARK    5  A    between atoms: O_5  and  C_6
REMARK    6  A    between atoms: C_9  and  C_12
REMARK    7  A    between atoms: C_14  and  C_17
REMARK    8  A    between atoms: N_22  and  C_24
REMARK    9  A    between atoms: C_24  and  C_25
REMARK                            x       y       z     vdW  Elec       q    Type
REMARK                         _______ _______ _______ _____ _____    ______ ____
ROOT
ATOM      1  C   UNL     1      -6.383  -4.569  -0.144  0.00  0.00    +0.202 A 
ATOM      2  N   UNL     1      -6.571  -5.898  -0.242  0.00  0.00    -0.191 NA
ATOM      3  C   UNL     1      -7.844  -6.172  -0.219  0.00  0.00    +0.233 A 
ATOM      4  O   UNL     1      -8.523  -5.024  -0.104  0.00  0.00    -0.337 OA
ATOM      5  N   UNL     1      -7.554  -3.987  -0.051  0.00  0.00    -0.056 NA
ENDROOT
BRANCH   1   9
ATOM      6  C   UNL     1      -2.619  -2.589  -0.120  0.00  0.00    +0.121 A 
ATOM      7  C   UNL     1      -3.791  -1.852  -0.014  0.00  0.00    +0.046 A 
ATOM      8  C   UNL     1      -5.012  -2.491  -0.022  0.00  0.00    +0.015 A 
ATOM      9  C   UNL     1      -5.071  -3.879  -0.136  0.00  0.00    +0.023 A 
ATOM     10  C   UNL     1      -3.893  -4.617  -0.241  0.00  0.00    +0.015 A 
ATOM     11  C   UNL     1      -2.674  -3.972  -0.239  0.00  0.00    +0.046 A 
BRANCH   6  12
ATOM     12  O   UNL     1      -1.417  -1.957  -0.112  0.00  0.00    -0.492 OA
BRANCH  12  13
ATOM     13  C   UNL     1      -1.433  -0.534   0.013  0.00  0.00    +0.232 C 
BRANCH  13  15
ATOM     14  C   UNL     1      -0.019   1.526   0.010  0.00  0.00    +0.010 C 
ATOM     15  C   UNL     1       0.002  -0.004   0.002  0.00  0.00    +0.020 C 
ATOM     16  C   UNL     1       0.742  -0.511   1.242  0.00  0.00    +0.010 C 
ENDBRANCH  13  15
ENDBRANCH  12  13
ENDBRANCH   6  12
ENDBRANCH   1   9
BRANCH   3  17
ATOM     17  C   UNL     1      -8.450  -7.549  -0.307  0.00  0.00    +0.104 C 
ATOM     18  C   UNL     1      -9.463  -7.634  -1.472  0.00  0.00    +0.110 C 
ATOM     19  C   UNL     1     -10.565  -8.524  -0.942  0.00  0.00    +0.217 C 
ATOM     20  O   UNL     1     -11.407  -9.068  -1.623  0.00  0.00    -0.276 OA
ATOM     21  N   UNL     1     -10.475  -8.623   0.396  0.00  0.00    -0.296 N 
ATOM     22  C   UNL     1      -9.350  -7.835   0.915  0.00  0.00    +0.121 C 
BRANCH  21  23
ATOM     23  C   UNL     1     -11.383  -9.415   1.229  0.00  0.00    +0.143 C 
BRANCH  23  24
ATOM     24  C   UNL     1     -10.840 -10.814   1.374  0.00  0.00    -0.026 A 
ATOM     25  C   UNL     1     -11.191 -11.789   0.459  0.00  0.00    +0.009 A 
ATOM     26  C   UNL     1     -10.695 -13.072   0.587  0.00  0.00    +0.050 A 
ATOM     27  C   UNL     1      -9.844 -13.385   1.635  0.00  0.00    +0.166 A 
ATOM     28  C   UNL     1      -9.491 -12.403   2.557  0.00  0.00    +0.167 A 
ATOM     29  C   UNL     1      -9.987 -11.117   2.419  0.00  0.00    +0.054 A 
ATOM     30  O   UNL     1      -8.653 -12.955   3.483  0.00  0.00    -0.453 OA
ATOM     31  C   UNL     1      -8.822 -14.379   3.354  0.00  0.00    +0.466 C 
ATOM     32  O   UNL     1      -9.228 -14.552   1.983  0.00  0.00    -0.453 OA
ENDBRANCH  23  24
ENDBRANCH  21  23
ENDBRANCH   3  17
TORSDOF 7
