REMARK  Name = ZINC08709360
REMARK  6 active torsions:
REMARK  status: ('A' for Active; 'I' for Inactive)
REMARK    1  A    between atoms: C_1  and  C_2
REMARK    2  A    between atoms: C_2  and  C_34
REMARK    3  A    between atoms: C_13  and  C_15
REMARK    4  A    between atoms: C_15  and  S_16
REMARK    5  A    between atoms: S_16  and  C_17
REMARK    6  A    between atoms: N_21  and  C_22
REMARK                            x       y       z     vdW  Elec       q    Type
REMARK                         _______ _______ _______ _____ _____    ______ ____
ROOT
ATOM      1  S   UNL     1       2.042  -1.903   2.457  0.00  0.00    -0.076 S 
ENDROOT
BRANCH   1   2
ATOM      2  C   UNL     1       0.630  -2.388   3.394  0.00  0.00    +0.198 A 
ATOM      3  N   UNL     1      -0.530  -1.778   3.413  0.00  0.00    -0.120 NA
ATOM      4  N   UNL     1      -1.376  -2.480   4.281  0.00  0.00    -0.112 NA
ATOM      5  C   UNL     1      -0.708  -3.498   4.764  0.00  0.00    +0.225 A 
ATOM      6  N   UNL     1       0.550  -3.473   4.226  0.00  0.00    -0.257 N 
ATOM      7  N   UNL     1      -1.192  -4.440   5.663  0.00  0.00    -0.299 N 
ATOM      8  C   UNL     1      -0.430  -4.401   6.938  0.00  0.00    +0.108 C 
ATOM      9  C   UNL     1      -1.391  -5.080   7.946  0.00  0.00    +0.020 C 
ATOM     10  C   UNL     1      -2.780  -4.574   7.495  0.00  0.00    +0.020 C 
ATOM     11  C   UNL     1      -2.597  -4.155   6.024  0.00  0.00    +0.108 C 
BRANCH   6  12
ATOM     12  C   UNL     1       1.577  -4.394   4.482  0.00  0.00    +0.070 A 
ATOM     13  C   UNL     1       2.462  -4.174   5.529  0.00  0.00    +0.028 A 
ATOM     14  C   UNL     1       3.472  -5.082   5.780  0.00  0.00    +0.002 A 
ATOM     15  C   UNL     1       3.602  -6.210   4.990  0.00  0.00    +0.002 A 
ATOM     16  C   UNL     1       2.722  -6.432   3.947  0.00  0.00    +0.022 A 
ATOM     17  C   UNL     1       1.706  -5.530   3.694  0.00  0.00    +0.065 A 
ATOM     18 CL   UNL     1       0.597  -5.813   2.389  0.00  0.00    -0.081 Cl
ENDBRANCH   6  12
ENDBRANCH   1   2
BRANCH   1  19
ATOM     19  C   UNL     1       1.493  -0.415   1.576  0.00  0.00    +0.173 C 
BRANCH  19  32
ATOM     20  C   UNL     1       4.997   1.094  -0.171  0.00  0.00    +0.042 C 
ATOM     21  C   UNL     1       3.762   1.966  -0.404  0.00  0.00    +0.113 C 
ATOM     22  C   UNL     1       4.020   3.357   0.118  0.00  0.00    +0.241 C 
ATOM     23  O   UNL     1       5.147   3.805   0.095  0.00  0.00    -0.273 OA
ATOM     24  N   UNL     1       3.016   4.107   0.609  0.00  0.00    -0.282 N 
ATOM     25  C   UNL     1       1.716   3.595   0.693  0.00  0.00    +0.055 A 
ATOM     26  C   UNL     1       0.637   4.434   0.921  0.00  0.00    +0.025 A 
ATOM     27  C   UNL     1      -0.638   3.908   1.007  0.00  0.00    +0.002 A 
ATOM     28  C   UNL     1      -0.844   2.548   0.862  0.00  0.00    +0.002 A 
ATOM     29  C   UNL     1       0.227   1.702   0.638  0.00  0.00    +0.025 A 
ATOM     30  C   UNL     1       1.506   2.223   0.549  0.00  0.00    +0.059 A 
ATOM     31  N   UNL     1       2.612   1.392   0.311  0.00  0.00    -0.255 N 
ATOM     32  C   UNL     1       2.621   0.110   0.726  0.00  0.00    +0.231 C 
ATOM     33  O   UNL     1       3.536  -0.622   0.414  0.00  0.00    -0.274 OA
ATOM     34  C   UNL     1       3.454   2.029  -1.901  0.00  0.00    +0.042 C 
ATOM     35  H   UNL     1       3.195   5.012   0.908  0.00  0.00    +0.155 HD
ENDBRANCH  19  32
ENDBRANCH   1  19
TORSDOF 4
