REMARK  Name = ZINC63900049
REMARK  10 active torsions:
REMARK  status: ('A' for Active; 'I' for Inactive)
REMARK    1  A    between atoms: C_1  and  C_2
REMARK    2  A    between atoms: C_4  and  N_27
REMARK    3  A    between atoms: C_7  and  S_8
REMARK    4  A    between atoms: S_8  and  N_11
REMARK    5  A    between atoms: N_11  and  C_12
REMARK    6  A    between atoms: C_12  and  C_13
REMARK    7  A    between atoms: C_13  and  C_14
REMARK    8  A    between atoms: C_17  and  O_25
REMARK    9  A    between atoms: C_22  and  C_24
REMARK   10  A    between atoms: O_25  and  C_26
REMARK                            x       y       z     vdW  Elec       q    Type
REMARK                         _______ _______ _______ _____ _____    ______ ____
ROOT
ATOM      1  S   UNL     1       0.159   0.341   2.723  0.00  0.00    +0.059 S 
ATOM      2  O   UNL     1       0.289  -0.821   3.530  0.00  0.00    -0.153 OA
ATOM      3  O   UNL     1      -0.041   0.273   1.317  0.00  0.00    -0.153 OA
ENDROOT
BRANCH   1  10
ATOM      4  C   UNL     1      -0.135   1.074   5.640  0.00  0.00    +0.046 C 
ATOM      5  C   UNL     1      -1.239   1.549   4.731  0.00  0.00    -0.022 A 
ATOM      6  C   UNL     1      -2.294   2.275   5.248  0.00  0.00    +0.030 A 
ATOM      7  C   UNL     1      -3.311   2.712   4.410  0.00  0.00    +0.060 A 
ATOM      8  C   UNL     1      -3.264   2.417   3.054  0.00  0.00    +0.027 A 
ATOM      9  C   UNL     1      -2.207   1.690   2.543  0.00  0.00    +0.030 A 
ATOM     10  C   UNL     1      -1.193   1.261   3.379  0.00  0.00    +0.108 A 
BRANCH   7  11
ATOM     11  N   UNL     1      -4.381   3.448   4.931  0.00  0.00    -0.144 N 
ATOM     12  C   UNL     1      -4.815   3.420   6.200  0.00  0.00    +0.240 C 
ATOM     13  O   UNL     1      -4.255   2.737   7.032  0.00  0.00    -0.274 OA
ATOM     14  C   UNL     1      -6.007   4.251   6.567  0.00  0.00    +0.122 C 
ATOM     15  C   UNL     1      -6.200   5.346   5.484  0.00  0.00    +0.198 C 
ATOM     16  S   UNL     1      -5.343   4.524   4.082  0.00  0.00    +0.052 S 
ATOM     17  O   UNL     1      -4.444   5.418   3.440  0.00  0.00    -0.155 OA
ATOM     18  O   UNL     1      -6.249   3.723   3.336  0.00  0.00    -0.155 OA
ENDBRANCH   7  11
ENDBRANCH   1  10
BRANCH   1  19
ATOM     19  N   UNL     1       1.528   1.241   2.963  0.00  0.00    -0.190 NA
ATOM     20  H   UNL     1       2.234   0.905   3.536  0.00  0.00    +0.148 HD
BRANCH  19  21
ATOM     21  C   UNL     1       1.671   2.545   2.311  0.00  0.00    +0.110 C 
BRANCH  21  22
ATOM     22  C   UNL     1       2.784   3.339   2.998  0.00  0.00    +0.050 C 
BRANCH  22  23
ATOM     23  C   UNL     1       2.930   4.681   2.327  0.00  0.00    -0.037 C 
ATOM     24  C   UNL     1       2.211   5.150   1.283  0.00  0.00    +0.003 A 
ATOM     25  C   UNL     1       1.120   4.577   0.487  0.00  0.00    +0.055 A 
ATOM     26  C   UNL     1       0.581   5.299  -0.524  0.00  0.00    +0.121 A 
ATOM     27  C   UNL     1       1.031   6.592  -0.846  0.00  0.00    +0.047 A 
ATOM     28  C   UNL     1       2.029   7.203  -0.173  0.00  0.00    +0.029 A 
ATOM     29  C   UNL     1       2.684   6.512   0.943  0.00  0.00    +0.043 A 
ATOM     30  N   UNL     1       3.656   6.870   1.744  0.00  0.00    -0.378 N 
ATOM     31  C   UNL     1       3.907   5.777   2.691  0.00  0.00    +0.103 C 
ATOM     32  C   UNL     1       3.660   6.249   4.125  0.00  0.00    +0.035 C 
ATOM     33  H   UNL     1       4.128   7.716   1.720  0.00  0.00    +0.160 HD
BRANCH  26  34
ATOM     34  O   UNL     1      -0.429   4.755  -1.253  0.00  0.00    -0.495 OA
ATOM     35  C   UNL     1      -0.968   5.552  -2.310  0.00  0.00    +0.277 C 
ENDBRANCH  26  34
ENDBRANCH  22  23
ENDBRANCH  21  22
ENDBRANCH  19  21
ENDBRANCH   1  19
TORSDOF 7
