REMARK  Name = ZINC59305663
REMARK  12 active torsions:
REMARK  status: ('A' for Active; 'I' for Inactive)
REMARK    1  A    between atoms: C_1  and  C_2
REMARK    2  A    between atoms: C_2  and  O_3
REMARK    3  A    between atoms: O_3  and  C_4
REMARK    4  A    between atoms: C_4  and  C_6
REMARK    5  A    between atoms: C_7  and  C_39
REMARK    6  A    between atoms: C_14  and  C_15
REMARK    7  A    between atoms: C_17  and  C_29
REMARK    8  A    between atoms: N_18  and  C_21
REMARK    9  A    between atoms: C_19  and  C_20
REMARK   10  A    between atoms: C_22  and  C_28
REMARK   11  A    between atoms: C_26  and  C_27
REMARK   12  A    between atoms: C_31  and  C_33
REMARK                            x       y       z     vdW  Elec       q    Type
REMARK                         _______ _______ _______ _____ _____    ______ ____
ROOT
ATOM      1  C   UNL     1       2.295  -2.804  -2.366  0.00  0.00    +0.085 C 
ATOM      2  C   UNL     1       2.456  -4.106  -2.749  0.00  0.00    +0.053 C 
ATOM      3  N   UNL     1       2.982  -4.402  -3.930  0.00  0.00    -0.228 NA
ATOM      4  C   UNL     1       3.383  -3.520  -4.812  0.00  0.00    +0.178 A 
ATOM      5  N   UNL     1       3.311  -2.159  -4.627  0.00  0.00    -0.275 N 
ATOM      6  C   UNL     1       3.755  -1.355  -5.602  0.00  0.00    +0.268 A 
ATOM      7  O   UNL     1       3.712  -0.144  -5.483  0.00  0.00    -0.266 OA
ATOM      8  C   UNL     1       4.294  -1.974  -6.816  0.00  0.00    +0.081 A 
ATOM      9  C   UNL     1       4.801  -1.388  -7.934  0.00  0.00    +0.030 C 
ATOM     10  S   UNL     1       4.106  -3.708  -6.430  0.00  0.00    -0.046 S 
ATOM     11  C   UNL     1       2.728  -1.721  -3.328  0.00  0.00    +0.162 C 
ATOM     12  C   UNL     1       2.033  -5.215  -1.821  0.00  0.00    +0.066 C 
ENDROOT
BRANCH   9  13
ATOM     13  C   UNL     1       4.710   0.065  -8.105  0.00  0.00    -0.003 A 
ATOM     14  C   UNL     1       3.554   0.920  -7.806  0.00  0.00    +0.031 A 
ATOM     15  C   UNL     1       3.917   2.177  -8.113  0.00  0.00    +0.022 A 
ATOM     16  N   UNL     1       5.202   2.173  -8.577  0.00  0.00    -0.317 N 
ATOM     17  C   UNL     1       5.698   0.910  -8.573  0.00  0.00    +0.028 A 
ATOM     18  C   UNL     1       7.081   0.500  -9.008  0.00  0.00    +0.064 C 
ATOM     19  C   UNL     1       3.045   3.397  -7.968  0.00  0.00    +0.064 C 
BRANCH  16  20
ATOM     20  C   UNL     1       5.908   3.310  -8.992  0.00  0.00    +0.052 A 
ATOM     21  C   UNL     1       5.849   3.721 -10.317  0.00  0.00    -0.026 A 
ATOM     22  C   UNL     1       6.546   4.842 -10.723  0.00  0.00    +0.005 A 
ATOM     23  C   UNL     1       7.302   5.555  -9.811  0.00  0.00    +0.001 A 
ATOM     24  C   UNL     1       7.364   5.149  -8.491  0.00  0.00    +0.005 A 
ATOM     25  C   UNL     1       6.664   4.032  -8.078  0.00  0.00    -0.026 A 
ATOM     26  C   UNL     1       6.726   3.593  -6.638  0.00  0.00    +0.046 C 
ATOM     27  C   UNL     1       5.025   2.944 -11.311  0.00  0.00    +0.046 C 
ENDBRANCH  16  20
ENDBRANCH   9  13
BRANCH  11  28
ATOM     28  C   UNL     1       3.752  -0.863  -2.631  0.00  0.00    -0.020 A 
ATOM     29  C   UNL     1       5.065  -1.285  -2.547  0.00  0.00    +0.006 A 
ATOM     30  C   UNL     1       6.005  -0.498  -1.907  0.00  0.00    +0.000 A 
ATOM     31  C   UNL     1       5.630   0.711  -1.352  0.00  0.00    +0.000 A 
ATOM     32  C   UNL     1       4.317   1.133  -1.437  0.00  0.00    +0.000 A 
ATOM     33  C   UNL     1       3.378   0.349  -2.080  0.00  0.00    +0.006 A 
ENDBRANCH  11  28
BRANCH   1  34
ATOM     34  C   UNL     1       1.739  -2.481  -1.118  0.00  0.00    +0.339 C 
ATOM     35  O   UNL     1       1.310  -3.363  -0.396  0.00  0.00    -0.245 OA
BRANCH  34  36
ATOM     36  O   UNL     1       1.680  -1.192  -0.718  0.00  0.00    -0.462 OA
BRANCH  36  38
ATOM     37  C   UNL     1       1.121   0.568   0.841  0.00  0.00    +0.048 C 
ATOM     38  C   UNL     1       1.101  -0.936   0.563  0.00  0.00    +0.229 C 
ENDBRANCH  36  38
ENDBRANCH  34  36
ENDBRANCH   1  34
TORSDOF 6
