REMARK  Name = ZINC05027681
REMARK  7 active torsions:
REMARK  status: ('A' for Active; 'I' for Inactive)
REMARK    1  A    between atoms: C_3  and  C_6
REMARK    2  A    between atoms: C_9  and  C_28
REMARK    3  A    between atoms: C_15  and  C_17
REMARK    4  A    between atoms: N_19  and  C_20
REMARK    5  A    between atoms: C_20  and  C_21
REMARK    6  A    between atoms: C_21  and  C_22
REMARK    7  A    between atoms: C_22  and  N_23
REMARK                            x       y       z     vdW  Elec       q    Type
REMARK                         _______ _______ _______ _____ _____    ______ ____
ROOT
ATOM      1  C   UNL     1       3.599   0.625  -0.029  0.00  0.00    +0.149 C 
ATOM      2  C   UNL     1       4.084   0.383  -1.459  0.00  0.00    +0.065 C 
ATOM      3  C   UNL     1       3.585  -0.985  -1.951  0.00  0.00    +0.202 C 
ATOM      4  N   UNL     1       3.981  -1.978  -0.946  0.00  0.00    -0.226 N 
ATOM      5  C   UNL     1       4.215  -1.647   0.383  0.00  0.00    +0.114 C 
ATOM      6  N   UNL     1       4.067  -0.444   0.861  0.00  0.00    -0.362 N 
ATOM      7  C   UNL     1       4.624  -2.879   1.055  0.00  0.00    +0.072 C 
ATOM      8  C   UNL     1       4.597  -3.869   0.130  0.00  0.00    +0.110 C 
ATOM      9  N   UNL     1       4.197  -3.344  -1.089  0.00  0.00    -0.258 N 
ATOM     10  H   UNL     1       4.085  -3.848  -1.909  0.00  0.00    +0.170 HD
ATOM     11  H   UNL     1       4.265  -0.258   1.792  0.00  0.00    +0.162 HD
ENDROOT
BRANCH   1  14
ATOM     12  C   UNL     1      -0.016   1.341   0.009  0.00  0.00    +0.041 A 
ATOM     13  C   UNL     1       1.331   1.769  -0.001  0.00  0.00    +0.047 A 
ATOM     14  C   UNL     1       2.092   0.660  -0.014  0.00  0.00    +0.127 A 
ATOM     15  O   UNL     1       1.282  -0.411  -0.012  0.00  0.00    -0.466 OA
ATOM     16  C   UNL     1       0.002  -0.004   0.002  0.00  0.00    +0.195 A 
ENDBRANCH   1  14
BRANCH   8  17
ATOM     17  C   UNL     1       4.940  -5.286   0.380  0.00  0.00    +0.259 C 
ATOM     18  O   UNL     1       4.882  -6.095  -0.525  0.00  0.00    -0.269 OA
ATOM     19  N   UNL     1       5.317  -5.680   1.612  0.00  0.00    -0.310 N 
ATOM     20  H   UNL     1       5.364  -5.035   2.335  0.00  0.00    +0.149 HD
BRANCH  19  21
ATOM     21  C   UNL     1       5.658  -7.084   1.860  0.00  0.00    +0.106 C 
BRANCH  21  22
ATOM     22  C   UNL     1       6.049  -7.262   3.329  0.00  0.00    +0.040 C 
BRANCH  22  23
ATOM     23  C   UNL     1       6.404  -8.727   3.588  0.00  0.00    +0.124 C 
BRANCH  23  24
ATOM     24  N   UNL     1       6.779  -8.898   4.994  0.00  0.00    -0.338 N 
ATOM     25  C   UNL     1       8.037  -8.776   5.520  0.00  0.00    +0.104 A 
ATOM     26  C   UNL     1       7.931  -9.012   6.841  0.00  0.00    +0.101 A 
ATOM     27  N   UNL     1       6.643  -9.269   7.115  0.00  0.00    -0.352 N 
ATOM     28  C   UNL     1       5.946  -9.198   6.014  0.00  0.00    +0.173 A 
ATOM     29  H   UNL     1       6.286  -9.473   7.994  0.00  0.00    +0.166 HD
ENDBRANCH  23  24
ENDBRANCH  22  23
ENDBRANCH  21  22
ENDBRANCH  19  21
ENDBRANCH   8  17
BRANCH   3  30
ATOM     30  C   UNL     1       4.228  -1.321  -3.298  0.00  0.00    +0.410 C 
ATOM     31  F   UNL     1       5.619  -1.361  -3.154  0.00  0.00    -0.169 F 
ATOM     32  F   UNL     1       3.768  -2.567  -3.736  0.00  0.00    -0.169 F 
ATOM     33  F   UNL     1       3.885  -0.341  -4.236  0.00  0.00    -0.169 F 
ENDBRANCH   3  30
TORSDOF 7
