REMARK  Name = ZINC08958676
REMARK  10 active torsions:
REMARK  status: ('A' for Active; 'I' for Inactive)
REMARK    1  A    between atoms: C_1  and  C_2
REMARK    2  A    between atoms: C_5  and  S_8
REMARK    3  A    between atoms: S_8  and  N_11
REMARK    4  A    between atoms: N_11  and  C_12
REMARK    5  A    between atoms: C_17  and  C_18
REMARK    6  A    between atoms: C_18  and  N_20
REMARK    7  A    between atoms: N_22  and  C_31
REMARK    8  A    between atoms: C_31  and  C_32
REMARK    9  A    between atoms: C_32  and  O_33
REMARK   10  A    between atoms: O_33  and  C_34
REMARK                            x       y       z     vdW  Elec       q    Type
REMARK                         _______ _______ _______ _____ _____    ______ ____
ROOT
ATOM      1  C   UNL     1       0.354   1.449  -0.319  0.00  0.00    +0.060 A 
ATOM      2  C   UNL     1      -0.782   2.243  -0.410  0.00  0.00    +0.025 A 
ATOM      3  C   UNL     1      -0.660   3.610  -0.554  0.00  0.00    +0.002 A 
ATOM      4  C   UNL     1       0.593   4.199  -0.620  0.00  0.00    +0.001 A 
ATOM      5  C   UNL     1       1.730   3.426  -0.537  0.00  0.00    +0.015 A 
ATOM      6  C   UNL     1       1.623   2.042  -0.385  0.00  0.00    +0.061 A 
ENDROOT
BRANCH   1   7
ATOM      7  N   UNL     1       0.234   0.073  -0.167  0.00  0.00    -0.216 N 
ATOM      8  H   UNL     1       0.868  -0.412   0.383  0.00  0.00    +0.174 HD
BRANCH   7   9
ATOM      9  S   UNL     1      -0.993  -0.740  -0.928  0.00  0.00    +0.072 S 
ATOM     10  O   UNL     1      -0.770  -2.123  -0.693  0.00  0.00    -0.150 OA
ATOM     11  O   UNL     1      -2.201  -0.089  -0.559  0.00  0.00    -0.150 OA
BRANCH   9  16
ATOM     12  C   UNL     1      -0.305   0.133  -6.858  0.00  0.00    +0.044 C 
ATOM     13  C   UNL     1      -0.476  -0.085  -5.377  0.00  0.00    -0.050 A 
ATOM     14  C   UNL     1       0.133  -1.163  -4.762  0.00  0.00    +0.005 A 
ATOM     15  C   UNL     1      -0.025  -1.363  -3.403  0.00  0.00    +0.029 A 
ATOM     16  C   UNL     1      -0.791  -0.485  -2.660  0.00  0.00    +0.109 A 
ATOM     17  C   UNL     1      -1.405   0.590  -3.276  0.00  0.00    +0.029 A 
ATOM     18  C   UNL     1      -1.242   0.793  -4.634  0.00  0.00    +0.005 A 
ENDBRANCH   9  16
ENDBRANCH   7   9
ENDBRANCH   1   7
BRANCH   6  19
ATOM     19  C   UNL     1       2.839   1.208  -0.295  0.00  0.00    +0.271 C 
ATOM     20  O   UNL     1       2.741   0.000  -0.162  0.00  0.00    -0.268 OA
BRANCH  19  21
ATOM     21  N   UNL     1       4.048   1.778  -0.360  0.00  0.00    -0.152 NA
ATOM     22  C   UNL     1       5.141   1.028  -0.279  0.00  0.00    +0.167 A 
ATOM     23  N   UNL     1       6.442   1.425  -0.324  0.00  0.00    -0.318 N 
ATOM     24  C   UNL     1       7.455   0.489  -0.222  0.00  0.00    +0.076 A 
ATOM     25  C   UNL     1       7.023  -0.837  -0.076  0.00  0.00    +0.040 A 
ATOM     26  S   UNL     1       5.254  -0.691  -0.082  0.00  0.00    -0.052 S 
ATOM     27  C   UNL     1       7.899  -1.890   0.040  0.00  0.00    +0.017 A 
ATOM     28  C   UNL     1       9.262  -1.652   0.013  0.00  0.00    +0.003 A 
ATOM     29  C   UNL     1       9.719  -0.353  -0.131  0.00  0.00    +0.022 A 
ATOM     30  C   UNL     1       8.843   0.702  -0.246  0.00  0.00    +0.066 A 
ATOM     31 CL   UNL     1       9.461   2.315  -0.424  0.00  0.00    -0.081 Cl
BRANCH  23  32
ATOM     32  C   UNL     1       6.769   2.844  -0.480  0.00  0.00    +0.152 C 
BRANCH  32  33
ATOM     33  C   UNL     1       7.052   3.457   0.893  0.00  0.00    +0.181 C 
BRANCH  33  34
ATOM     34  O   UNL     1       7.371   4.841   0.740  0.00  0.00    -0.381 OA
ATOM     35  C   UNL     1       7.654   5.511   1.970  0.00  0.00    +0.194 C 
ENDBRANCH  33  34
ENDBRANCH  32  33
ENDBRANCH  23  32
ENDBRANCH  19  21
ENDBRANCH   6  19
TORSDOF 8
