REMARK  Name = ZINC01886236
REMARK  15 active torsions:
REMARK  status: ('A' for Active; 'I' for Inactive)
REMARK    1  A    between atoms: C_1  and  C_2
REMARK    2  A    between atoms: C_2  and  O_3
REMARK    3  A    between atoms: O_3  and  C_4
REMARK    4  A    between atoms: C_4  and  C_6
REMARK    5  A    between atoms: C_7  and  C_36
REMARK    6  A    between atoms: C_8  and  C_30
REMARK    7  A    between atoms: C_10  and  N_11
REMARK    8  A    between atoms: N_11  and  C_12
REMARK    9  A    between atoms: C_13  and  C_14
REMARK   10  A    between atoms: C_13  and  C_16
REMARK   11  A    between atoms: C_18  and  C_21
REMARK   12  A    between atoms: C_24  and  N_27
REMARK   13  A    between atoms: C_30  and  O_32
REMARK   14  A    between atoms: O_32  and  C_33
REMARK   15  A    between atoms: C_33  and  C_34
REMARK                            x       y       z     vdW  Elec       q    Type
REMARK                         _______ _______ _______ _____ _____    ______ ____
ROOT
ATOM      1  N   UNL     1      -0.599  -2.445  -3.934  0.00  0.00    -0.313 N 
ATOM      2  H   UNL     1      -1.171  -2.081  -3.241  0.00  0.00    +0.152 HD
ENDROOT
BRANCH   1   7
ATOM      3  C   UNL     1       1.453  -2.330  -2.525  0.00  0.00    +0.091 A 
ATOM      4  C   UNL     1       2.811  -2.595  -2.515  0.00  0.00    -0.014 A 
ATOM      5  C   UNL     1       3.335  -3.122  -3.683  0.00  0.00    +0.102 A 
ATOM      6  S   UNL     1       1.907  -3.223  -4.743  0.00  0.00    -0.066 S 
ATOM      7  C   UNL     1       0.741  -2.618  -3.696  0.00  0.00    +0.084 A 
ATOM      8  C   UNL     1       3.667  -2.327  -1.305  0.00  0.00    +0.046 C 
BRANCH   3   9
ATOM      9  C   UNL     1       0.779  -1.769  -1.345  0.00  0.00    +0.342 C 
ATOM     10  O   UNL     1       0.312  -2.511  -0.502  0.00  0.00    -0.245 OA
BRANCH   9  11
ATOM     11  O   UNL     1       0.680  -0.433  -1.196  0.00  0.00    -0.461 OA
BRANCH  11  13
ATOM     12  C   UNL     1      -0.001   1.572  -0.031  0.00  0.00    +0.048 C 
ATOM     13  C   UNL     1       0.013   0.042  -0.025  0.00  0.00    +0.229 C 
ENDBRANCH  11  13
ENDBRANCH   9  11
ENDBRANCH   3   9
BRANCH   5  14
ATOM     14  C   UNL     1       4.721  -3.502  -3.975  0.00  0.00    +0.346 C 
ATOM     15  O   UNL     1       5.581  -3.365  -3.126  0.00  0.00    -0.244 OA
BRANCH  14  16
ATOM     16  O   UNL     1       5.042  -4.004  -5.185  0.00  0.00    -0.457 OA
BRANCH  16  17
ATOM     17  C   UNL     1       6.411  -4.353  -5.400  0.00  0.00    +0.259 C 
BRANCH  17  18
ATOM     18  C   UNL     1       6.579  -4.893  -6.797  0.00  0.00    +0.006 C 
ATOM     19  C   UNL     1       7.582  -4.492  -7.538  0.00  0.00    +0.007 C 
ENDBRANCH  17  18
ENDBRANCH  16  17
ENDBRANCH  14  16
ENDBRANCH   5  14
ENDBRANCH   1   7
BRANCH   1  20
ATOM     20  C   UNL     1      -1.114  -2.776  -5.119  0.00  0.00    +0.094 C 
ATOM     21  C   UNL     1      -2.511  -2.704  -5.328  0.00  0.00    +0.098 C 
BRANCH  21  22
ATOM     22  C   UNL     1      -3.344  -2.192  -4.323  0.00  0.00    +0.120 A 
ATOM     23  N   UNL     1      -3.451  -2.587  -3.047  0.00  0.00    -0.238 NA
ATOM     24  C   UNL     1      -4.289  -1.982  -2.260  0.00  0.00    +0.079 A 
ATOM     25  C   UNL     1      -5.076  -0.883  -2.844  0.00  0.00    +0.075 A 
ATOM     26  S   UNL     1      -4.514  -0.851  -4.431  0.00  0.00    -0.074 S 
BRANCH  24  27
ATOM     27  C   UNL     1      -4.445  -2.378  -0.848  0.00  0.00    +0.001 A 
ATOM     28  C   UNL     1      -5.362  -1.710  -0.027  0.00  0.00    +0.012 A 
ATOM     29  C   UNL     1      -5.502  -2.087   1.291  0.00  0.00    +0.033 A 
ATOM     30  C   UNL     1      -4.739  -3.123   1.805  0.00  0.00    +0.126 A 
ATOM     31  C   UNL     1      -3.830  -3.788   0.999  0.00  0.00    +0.033 A 
ATOM     32  C   UNL     1      -3.682  -3.428  -0.323  0.00  0.00    +0.012 A 
BRANCH  30  33
ATOM     33  N   UNL     1      -4.896  -3.520   3.222  0.00  0.00    +0.056 N 
ATOM     34  O   UNL     1      -5.760  -2.889   3.991  0.00  0.00    -0.126 OA
ATOM     35  O   UNL     1      -4.172  -4.504   3.714  0.00  0.00    -0.126 OA
ENDBRANCH  30  33
ENDBRANCH  24  27
ENDBRANCH  21  22
BRANCH  21  36
ATOM     36  C   UNL     1      -3.075  -3.154  -6.565  0.00  0.00    +0.103 C 
ATOM     37  N   UNL     1      -3.521  -3.511  -7.546  0.00  0.00    -0.191 NA
ENDBRANCH  21  36
ENDBRANCH   1  20
TORSDOF 13
