REMARK  Name = ZINC63351506
REMARK  10 active torsions:
REMARK  status: ('A' for Active; 'I' for Inactive)
REMARK    1  A    between atoms: C_1  and  C_2
REMARK    2  A    between atoms: C_2  and  C_37
REMARK    3  A    between atoms: N_20  and  N_23
REMARK    4  A    between atoms: C_24  and  C_25
REMARK    5  A    between atoms: C_27  and  O_35
REMARK    6  A    between atoms: C_28  and  O_33
REMARK    7  A    between atoms: C_29  and  O_31
REMARK    8  A    between atoms: O_31  and  C_32
REMARK    9  A    between atoms: O_33  and  C_34
REMARK   10  A    between atoms: O_35  and  C_36
REMARK                            x       y       z     vdW  Elec       q    Type
REMARK                         _______ _______ _______ _____ _____    ______ ____
ROOT
ATOM      1  C   UNL     1      -0.019   1.522   0.010  0.00  0.00    +0.034 C 
ATOM      2  C   UNL     1       0.002  -0.004   0.002  0.00  0.00    +0.057 C 
ATOM      3  C   UNL     1       0.751  -0.510  -1.237  0.00  0.00    +0.129 C 
ATOM      4  C   UNL     1       0.802  -2.029  -1.108  0.00  0.00    -0.034 C 
ATOM      5  C   UNL     1       0.277  -2.517  -2.223  0.00  0.00    -0.001 A 
ATOM      6  C   UNL     1       0.102  -3.898  -2.703  0.00  0.00    +0.010 A 
ATOM      7  C   UNL     1      -0.488  -4.040  -3.919  0.00  0.00    +0.001 A 
ATOM      8  C   UNL     1      -0.919  -2.960  -4.696  0.00  0.00    +0.002 A 
ATOM      9  C   UNL     1      -0.799  -1.658  -4.334  0.00  0.00    +0.026 A 
ATOM     10  C   UNL     1      -0.189  -1.381  -3.076  0.00  0.00    +0.043 A 
ATOM     11  N   UNL     1       0.059  -0.243  -2.493  0.00  0.00    -0.375 N 
ATOM     12  C   UNL     1       1.348  -2.708   0.125  0.00  0.00    +0.065 C 
ATOM     13  C   UNL     1       0.654  -2.045   1.330  0.00  0.00    +0.168 C 
ATOM     14  N   UNL     1       0.699  -0.582   1.167  0.00  0.00    -0.281 N 
ATOM     15  C   UNL     1       1.395   0.152   2.037  0.00  0.00    +0.236 C 
ATOM     16  O   UNL     1       1.997   1.146   1.726  0.00  0.00    -0.274 OA
ATOM     17  C   UNL     1       1.508  -0.243   3.487  0.00  0.00    +0.230 C 
ATOM     18  N   UNL     1       1.651  -1.688   3.591  0.00  0.00    -0.183 N 
ATOM     19  C   UNL     1       1.298  -2.504   2.597  0.00  0.00    +0.256 C 
ATOM     20  O   UNL     1       1.512  -3.689   2.731  0.00  0.00    -0.272 OA
ATOM     21  C   UNL     1      -1.450  -0.504  -0.043  0.00  0.00    +0.034 C 
ATOM     22  H   UNL     1      -0.177   0.630  -2.847  0.00  0.00    +0.160 HD
ENDROOT
BRANCH  18  23
ATOM     23  N   UNL     1       2.172  -2.233   4.766  0.00  0.00    -0.184 NA
ATOM     24  C   UNL     1       2.521  -1.454   5.744  0.00  0.00    +0.138 C 
BRANCH  24  25
ATOM     25  C   UNL     1       3.071  -2.029   6.984  0.00  0.00    +0.002 A 
ATOM     26  C   UNL     1       3.223  -3.412   7.107  0.00  0.00    +0.059 A 
ATOM     27  C   UNL     1       3.740  -3.949   8.273  0.00  0.00    +0.166 A 
ATOM     28  C   UNL     1       4.108  -3.113   9.322  0.00  0.00    +0.204 A 
ATOM     29  C   UNL     1       3.957  -1.735   9.203  0.00  0.00    +0.166 A 
ATOM     30  C   UNL     1       3.447  -1.191   8.037  0.00  0.00    +0.059 A 
BRANCH  29  31
ATOM     31  O   UNL     1       4.317  -0.920  10.231  0.00  0.00    -0.491 OA
ATOM     32  C   UNL     1       4.136   0.484  10.041  0.00  0.00    +0.277 C 
ENDBRANCH  29  31
BRANCH  28  33
ATOM     33  O   UNL     1       4.616  -3.644  10.467  0.00  0.00    -0.488 OA
ATOM     34  C   UNL     1       6.034  -3.810  10.531  0.00  0.00    +0.277 C 
ENDBRANCH  28  33
BRANCH  27  35
ATOM     35  O   UNL     1       3.888  -5.296   8.393  0.00  0.00    -0.491 OA
ATOM     36  C   UNL     1       3.489  -6.094   7.277  0.00  0.00    +0.277 C 
ENDBRANCH  27  35
ENDBRANCH  24  25
ENDBRANCH  18  23
TORSDOF 5
