REMARK  Name = ZINC60061797
REMARK  7 active torsions:
REMARK  status: ('A' for Active; 'I' for Inactive)
REMARK    1  A    between atoms: C_1  and  C_2
REMARK    2  A    between atoms: C_3  and  N_27
REMARK    3  A    between atoms: C_7  and  S_8
REMARK    4  A    between atoms: S_8  and  N_11
REMARK    5  A    between atoms: C_15  and  N_18
REMARK    6  A    between atoms: C_19  and  C_26
REMARK    7  A    between atoms: C_23  and  C_25
REMARK                            x       y       z     vdW  Elec       q    Type
REMARK                         _______ _______ _______ _____ _____    ______ ____
ROOT
ATOM      1  N   UNL     1       1.625   0.785   3.380  0.00  0.00    -0.178 NA
ATOM      2  C   UNL     1       2.594  -0.018   4.139  0.00  0.00    +0.109 C 
ATOM      3  C   UNL     1       3.902  -0.094   3.345  0.00  0.00    +0.016 C 
ATOM      4  C   UNL     1       4.379   1.323   3.019  0.00  0.00    -0.013 C 
ATOM      5  C   UNL     1       3.331   2.030   2.157  0.00  0.00    -0.052 C 
ATOM      6  C   UNL     1       2.019   2.128   2.932  0.00  0.00    +0.094 C 
ENDROOT
BRANCH   5   7
ATOM      7  N   UNL     1       3.804   3.378   1.818  0.00  0.00    +0.386 N 
ATOM      8  C   UNL     1       5.010   3.284   0.974  0.00  0.00    -0.071 C 
ATOM      9  C   UNL     1       4.695   4.001  -0.355  0.00  0.00    -0.017 C 
ATOM     10  C   UNL     1       3.531   4.952   0.028  0.00  0.00    -0.017 C 
ATOM     11  C   UNL     1       2.757   4.098   1.062  0.00  0.00    -0.071 C 
ATOM     12  C   UNL     1       1.949   4.999   1.999  0.00  0.00    -0.013 C 
ATOM     13  C   UNL     1       6.188   3.966   1.671  0.00  0.00    -0.013 C 
ATOM     14  H   UNL     1       4.023   3.885   2.662  0.00  0.00    -0.081 HD
ENDBRANCH   5   7
BRANCH   1  15
ATOM     15  S   UNL     1       0.122   0.185   3.029  0.00  0.00    +0.061 S 
ATOM     16  O   UNL     1       0.184  -1.218   3.246  0.00  0.00    -0.153 OA
ATOM     17  O   UNL     1      -0.258   0.747   1.781  0.00  0.00    -0.153 OA
BRANCH  15  24
ATOM     18  C   UNL     1       0.292  -0.405   5.991  0.00  0.00    +0.048 C 
ATOM     19  C   UNL     1      -0.832   0.505   5.566  0.00  0.00    +0.006 A 
ATOM     20  C   UNL     1      -1.702   1.017   6.511  0.00  0.00    +0.131 A 
ATOM     21  C   UNL     1      -2.733   1.851   6.121  0.00  0.00    +0.033 A 
ATOM     22  C   UNL     1      -2.894   2.174   4.787  0.00  0.00    +0.004 A 
ATOM     23  C   UNL     1      -2.024   1.662   3.842  0.00  0.00    +0.029 A 
ATOM     24  C   UNL     1      -0.990   0.832   4.232  0.00  0.00    +0.111 A 
BRANCH  20  25
ATOM     25  N   UNL     1      -1.530   0.672   7.940  0.00  0.00    +0.057 N 
ATOM     26  O   UNL     1      -2.366   1.004   8.747  0.00  0.00    -0.126 OA
ATOM     27  O   UNL     1      -0.552   0.057   8.300  0.00  0.00    -0.126 OA
ENDBRANCH  20  25
ENDBRANCH  15  24
ENDBRANCH   1  15
TORSDOF 4
