REMARK  Name = ZINC07005561
REMARK  6 active torsions:
REMARK  status: ('A' for Active; 'I' for Inactive)
REMARK    1  A    between atoms: C_1  and  C_2
REMARK    2  A    between atoms: C_2  and  C_3
REMARK    3  A    between atoms: C_2  and  C_4
REMARK    4  A    between atoms: C_4  and  N_5
REMARK    5  A    between atoms: C_8  and  C_12
REMARK    6  A    between atoms: C_8  and  C_13
REMARK                            x       y       z     vdW  Elec       q    Type
REMARK                         _______ _______ _______ _____ _____    ______ ____
ROOT
ATOM      1  N   UNL     1       1.213   1.869   0.001  0.00  0.00    -0.224 N 
ATOM      2  C   UNL     1       2.164   0.914  -0.014  0.00  0.00    +0.251 C 
ATOM      3  O   UNL     1       3.365   1.077  -0.025  0.00  0.00    -0.272 OA
ATOM      4  C   UNL     1       1.419  -0.406  -0.014  0.00  0.00    +0.136 C 
ATOM      5  N   UNL     1       0.002  -0.004   0.002  0.00  0.00    -0.281 N 
ATOM      6  C   UNL     1      -0.016   1.341   0.009  0.00  0.00    +0.310 C 
ATOM      7  O   UNL     1      -1.036   2.003   0.018  0.00  0.00    -0.252 OA
ATOM      8  C   UNL     1       1.761  -1.221   1.235  0.00  0.00    +0.047 C 
ATOM      9  H   UNL     1      -0.768  -0.594   0.006  0.00  0.00    +0.152 HD
ENDROOT
BRANCH   4  10
ATOM     10  C   UNL     1       1.734  -1.192  -1.260  0.00  0.00    +0.003 A 
ATOM     11  C   UNL     1       0.733  -1.469  -2.173  0.00  0.00    +0.009 A 
ATOM     12  C   UNL     1       1.022  -2.185  -3.320  0.00  0.00    +0.020 A 
ATOM     13  C   UNL     1       2.310  -2.635  -3.549  0.00  0.00    +0.042 A 
ATOM     14  C   UNL     1       3.310  -2.363  -2.633  0.00  0.00    +0.040 A 
ATOM     15  C   UNL     1       3.022  -1.642  -1.488  0.00  0.00    +0.048 A 
ATOM     16 CL   UNL     1       4.276  -1.301  -0.338  0.00  0.00    -0.083 Cl
ATOM     17 CL   UNL     1       2.671  -3.540  -4.985  0.00  0.00    -0.083 Cl
ENDBRANCH   4  10
BRANCH   1  18
ATOM     18  C   UNL     1       1.491   3.307   0.005  0.00  0.00    +0.121 C 
BRANCH  18  20
ATOM     19  C   UNL     1       2.815   3.152   2.118  0.00  0.00    +0.009 C 
ATOM     20  C   UNL     1       1.602   3.801   1.448  0.00  0.00    +0.001 C 
ATOM     21  C   UNL     1       1.768   5.322   1.456  0.00  0.00    +0.009 C 
ENDBRANCH  18  20
ENDBRANCH   1  18
TORSDOF 3
