REMARK  Name = ZINC53007762
REMARK  8 active torsions:
REMARK  status: ('A' for Active; 'I' for Inactive)
REMARK    1  A    between atoms: C_1  and  C_2
REMARK    2  A    between atoms: C_5  and  N_21
REMARK    3  A    between atoms: C_6  and  C_8
REMARK    4  A    between atoms: N_10  and  C_11
REMARK    5  A    between atoms: C_11  and  C_13
REMARK    6  A    between atoms: C_11  and  C_14
REMARK    7  A    between atoms: C_19  and  C_20
REMARK    8  A    between atoms: N_21  and  N_22
REMARK                            x       y       z     vdW  Elec       q    Type
REMARK                         _______ _______ _______ _____ _____    ______ ____
ROOT
ATOM      1  C   UNL     1       0.032  -3.127   2.266  0.00  0.00    +0.246 C 
ATOM      2  O   UNL     1       0.132  -4.329   2.114  0.00  0.00    -0.270 OA
ATOM      3  N   UNL     1      -0.073  -2.612   3.507  0.00  0.00    -0.305 N 
ATOM      4  H   UNL     1      -0.153  -1.653   3.629  0.00  0.00    +0.150 HD
ENDROOT
BRANCH   1  10
ATOM      5  C   UNL     1       0.018   1.479   0.358  0.00  0.00    +0.044 C 
ATOM      6  C   UNL     1       0.019  -0.016   0.168  0.00  0.00    -0.050 A 
ATOM      7  C   UNL     1       0.015  -0.549  -1.111  0.00  0.00    +0.005 A 
ATOM      8  C   UNL     1       0.016  -1.915  -1.299  0.00  0.00    +0.025 A 
ATOM      9  C   UNL     1       0.021  -2.769  -0.203  0.00  0.00    +0.053 A 
ATOM     10  C   UNL     1       0.026  -2.233   1.094  0.00  0.00    +0.059 A 
ATOM     11  C   UNL     1       0.031  -0.846   1.268  0.00  0.00    +0.018 A 
BRANCH   9  12
ATOM     12  N   UNL     1       0.021  -4.145  -0.389  0.00  0.00    -0.282 N 
ATOM     13  H   UNL     1       0.106  -4.738   0.374  0.00  0.00    +0.166 HD
BRANCH  12  14
ATOM     14  N   UNL     1      -0.097  -4.664  -1.648  0.00  0.00    -0.256 NA
ATOM     15  H   UNL     1      -0.081  -5.672  -1.626  0.00  0.00    +0.140 HD
ATOM     16  H   UNL     1      -0.932  -4.325  -2.101  0.00  0.00    +0.140 HD
ENDBRANCH  12  14
ENDBRANCH   9  12
ENDBRANCH   1  10
BRANCH   3  17
ATOM     17  C   UNL     1      -0.067  -3.501   4.672  0.00  0.00    +0.101 C 
ATOM     18  C   UNL     1      -1.484  -4.018   4.926  0.00  0.00    +0.033 C 
BRANCH  17  19
ATOM     19  C   UNL     1       0.413  -2.740   5.881  0.00  0.00    -0.025 A 
ATOM     20  C   UNL     1       0.270  -1.366   5.936  0.00  0.00    +0.006 A 
ATOM     21  C   UNL     1       0.711  -0.669   7.045  0.00  0.00    +0.000 A 
ATOM     22  C   UNL     1       1.295  -1.346   8.100  0.00  0.00    +0.000 A 
ATOM     23  C   UNL     1       1.437  -2.720   8.046  0.00  0.00    +0.004 A 
ATOM     24  C   UNL     1       0.992  -3.418   6.938  0.00  0.00    -0.046 A 
ATOM     25  C   UNL     1       1.143  -4.916   6.881  0.00  0.00    +0.044 C 
ENDBRANCH  17  19
ENDBRANCH   3  17
TORSDOF 5
