REMARK  Name = ZINC38729676
REMARK  8 active torsions:
REMARK  status: ('A' for Active; 'I' for Inactive)
REMARK    1  A    between atoms: C_4  and  C_7
REMARK    2  A    between atoms: C_7  and  C_41
REMARK    3  A    between atoms: C_13  and  C_15
REMARK    4  A    between atoms: C_21  and  C_23
REMARK    5  A    between atoms: N_25  and  C_26
REMARK    6  A    between atoms: C_26  and  C_28
REMARK    7  A    between atoms: C_26  and  C_38
REMARK    8  A    between atoms: C_28  and  C_29
REMARK                            x       y       z     vdW  Elec       q    Type
REMARK                         _______ _______ _______ _____ _____    ______ ____
ROOT
ATOM      1  C   UNL     1       5.820  -4.825   1.667  0.00  0.00    +0.091 C 
ATOM      2  C   UNL     1       4.299  -4.991   1.704  0.00  0.00    +0.040 C 
ATOM      3  C   UNL     1       3.791  -4.785   3.101  0.00  0.00    -0.030 C 
ATOM      4  C   UNL     1       4.537  -4.824   4.157  0.00  0.00    -0.030 C 
ATOM      5  C   UNL     1       6.017  -5.070   4.133  0.00  0.00    +0.040 C 
ATOM      6  C   UNL     1       6.433  -5.676   2.786  0.00  0.00    +0.091 C 
ENDROOT
BRANCH   1  13
ATOM      7  C   UNL     1       7.183  -1.147  -1.421  0.00  0.00    +0.085 C 
ATOM      8  C   UNL     1       6.581  -0.523  -0.160  0.00  0.00    +0.045 C 
ATOM      9  C   UNL     1       7.111  -1.262   1.073  0.00  0.00    +0.109 C 
ATOM     10  N   UNL     1       6.835  -2.697   0.919  0.00  0.00    -0.301 N 
ATOM     11  C   UNL     1       7.290  -3.377  -0.301  0.00  0.00    +0.109 C 
ATOM     12  C   UNL     1       6.759  -2.614  -1.519  0.00  0.00    +0.045 C 
ATOM     13  C   UNL     1       6.176  -3.376   1.879  0.00  0.00    +0.220 C 
ATOM     14  O   UNL     1       5.871  -2.822   2.913  0.00  0.00    -0.275 OA
BRANCH   7  18
ATOM     15  C   UNL     1       5.789   0.968  -4.862  0.00  0.00    +0.000 A 
ATOM     16  C   UNL     1       6.503   1.634  -3.883  0.00  0.00    +0.000 A 
ATOM     17  C   UNL     1       6.954   0.949  -2.770  0.00  0.00    +0.005 A 
ATOM     18  C   UNL     1       6.690  -0.401  -2.635  0.00  0.00    -0.027 A 
ATOM     19  C   UNL     1       5.975  -1.067  -3.612  0.00  0.00    +0.005 A 
ATOM     20  C   UNL     1       5.525  -0.383  -4.726  0.00  0.00    +0.000 A 
ENDBRANCH   7  18
BRANCH   7  21
ATOM     21  C   UNL     1       8.651  -1.064  -1.357  0.00  0.00    +0.074 C 
ATOM     22  N   UNL     1       9.784  -1.000  -1.307  0.00  0.00    -0.196 NA
ENDBRANCH   7  21
ENDBRANCH   1  13
BRANCH   6  23
ATOM     23  C   UNL     1       7.935  -5.671   2.662  0.00  0.00    +0.218 C 
ATOM     24  O   UNL     1       8.467  -5.049   1.767  0.00  0.00    -0.275 OA
ATOM     25  N   UNL     1       8.687  -6.358   3.545  0.00  0.00    -0.303 N 
ATOM     26  H   UNL     1       8.261  -6.855   4.260  0.00  0.00    +0.149 HD
BRANCH  25  27
ATOM     27  C   UNL     1      10.146  -6.353   3.424  0.00  0.00    +0.163 C 
BRANCH  27  28
ATOM     28  C   UNL     1      10.573  -7.420   2.449  0.00  0.00    +0.231 C 
ATOM     29  O   UNL     1       9.740  -8.117   1.909  0.00  0.00    -0.274 OA
ATOM     30  N   UNL     1      11.881  -7.601   2.178  0.00  0.00    -0.328 N 
ATOM     31  H   UNL     1      12.548  -7.044   2.610  0.00  0.00    +0.145 HD
ATOM     32  H   UNL     1      12.156  -8.289   1.551  0.00  0.00    +0.145 HD
ENDBRANCH  27  28
BRANCH  27  33
ATOM     33  C   UNL     1      10.773  -6.631   4.792  0.00  0.00    +0.069 C 
BRANCH  33  34
ATOM     34  C   UNL     1      10.447  -5.500   5.732  0.00  0.00    -0.020 A 
ATOM     35  C   UNL     1       9.230  -5.357   6.535  0.00  0.00    +0.003 A 
ATOM     36  C   UNL     1       8.077  -6.127   6.694  0.00  0.00    +0.010 A 
ATOM     37  C   UNL     1       7.093  -5.708   7.545  0.00  0.00    +0.001 A 
ATOM     38  C   UNL     1       7.231  -4.522   8.253  0.00  0.00    +0.002 A 
ATOM     39  C   UNL     1       8.360  -3.746   8.110  0.00  0.00    +0.026 A 
ATOM     40  C   UNL     1       9.374  -4.154   7.250  0.00  0.00    +0.047 A 
ATOM     41  N   UNL     1      10.592  -3.616   6.898  0.00  0.00    -0.360 N 
ATOM     42  C   UNL     1      11.219  -4.434   5.998  0.00  0.00    +0.087 A 
ATOM     43  H   UNL     1      10.954  -2.784   7.241  0.00  0.00    +0.165 HD
ENDBRANCH  33  34
ENDBRANCH  27  33
ENDBRANCH  25  27
ENDBRANCH   6  23
TORSDOF 8
