REMARK  Name = ZINC12648213
REMARK  9 active torsions:
REMARK  status: ('A' for Active; 'I' for Inactive)
REMARK    1  A    between atoms: C_1  and  C_2
REMARK    2  A    between atoms: C_2  and  O_3
REMARK    3  A    between atoms: O_3  and  C_4
REMARK    4  A    between atoms: C_4  and  C_5
REMARK    5  A    between atoms: C_5  and  N_6
REMARK    6  A    between atoms: C_15  and  C_26
REMARK    7  A    between atoms: N_18  and  C_19
REMARK    8  A    between atoms: C_22  and  C_25
REMARK    9  A    between atoms: N_27  and  C_30
REMARK                            x       y       z     vdW  Elec       q    Type
REMARK                         _______ _______ _______ _____ _____    ______ ____
ROOT
ATOM      1  N   UNL     1       0.716  -7.893   4.427  0.00  0.00    -0.257 N 
ATOM      2  C   UNL     1       0.749  -7.881   3.071  0.00  0.00    +0.283 A 
ATOM      3  O   UNL     1       0.972  -8.891   2.426  0.00  0.00    -0.265 OA
ATOM      4  C   UNL     1       0.511  -6.641   2.448  0.00  0.00    +0.153 A 
ATOM      5  C   UNL     1       0.256  -5.495   3.218  0.00  0.00    +0.170 A 
ATOM      6  N   UNL     1       0.068  -4.483   2.386  0.00  0.00    -0.196 NA
ATOM      7  C   UNL     1       0.190  -4.902   1.146  0.00  0.00    +0.205 A 
ATOM      8  N   UNL     1       0.464  -6.242   1.138  0.00  0.00    -0.306 N 
ATOM      9  C   UNL     1       0.662  -7.027  -0.083  0.00  0.00    +0.130 C 
ATOM     10  C   UNL     1       0.980  -6.074  -1.240  0.00  0.00    +0.024 C 
ATOM     11  C   UNL     1      -0.051  -4.940  -1.273  0.00  0.00    +0.118 C 
ATOM     12  N   UNL     1       0.060  -4.169  -0.021  0.00  0.00    -0.271 N 
ATOM     13  C   UNL     1       0.932  -6.844  -2.562  0.00  0.00    +0.011 C 
ATOM     14  N   UNL     1       0.238  -5.579   4.603  0.00  0.00    -0.280 N 
ATOM     15  C   UNL     1       0.472  -6.793   5.153  0.00  0.00    +0.333 A 
ATOM     16  O   UNL     1       0.460  -6.890   6.365  0.00  0.00    -0.246 OA
ATOM     17  C   UNL     1      -0.024  -4.402   5.435  0.00  0.00    +0.155 C 
ENDROOT
BRANCH  12  18
ATOM     18  C   UNL     1       0.040  -2.771  -0.013  0.00  0.00    +0.036 A 
ATOM     19  C   UNL     1      -0.213  -2.072  -1.187  0.00  0.00    +0.024 A 
ATOM     20  C   UNL     1      -0.233  -0.691  -1.175  0.00  0.00    +0.005 A 
ATOM     21  C   UNL     1      -0.001  -0.004   0.002  0.00  0.00    -0.050 A 
ATOM     22  C   UNL     1       0.258  -0.697   1.171  0.00  0.00    +0.005 A 
ATOM     23  C   UNL     1       0.273  -2.078   1.168  0.00  0.00    +0.024 A 
ATOM     24  C   UNL     1      -0.023   1.503   0.011  0.00  0.00    +0.044 C 
ENDBRANCH  12  18
BRANCH   1  25
ATOM     25  C   UNL     1       0.956  -9.159   5.125  0.00  0.00    +0.158 C 
BRANCH  25  26
ATOM     26  C   UNL     1       2.452  -9.311   5.405  0.00  0.00    +0.181 C 
BRANCH  26  27
ATOM     27  O   UNL     1       2.873  -8.291   6.314  0.00  0.00    -0.378 OA
BRANCH  27  29
ATOM     28  C   UNL     1       4.598  -7.213   7.617  0.00  0.00    +0.034 C 
ATOM     29  C   UNL     1       4.262  -8.344   6.644  0.00  0.00    +0.156 C 
ENDBRANCH  27  29
ENDBRANCH  26  27
ENDBRANCH  25  26
ENDBRANCH   1  25
TORSDOF 5
