REMARK  Name = ZINC20558518
REMARK  6 active torsions:
REMARK  status: ('A' for Active; 'I' for Inactive)
REMARK    1  A    between atoms: C_5  and  C_7
REMARK    2  A    between atoms: C_7  and  N_8
REMARK    3  A    between atoms: C_20  and  C_28
REMARK    4  A    between atoms: C_22  and  C_26
REMARK    5  A    between atoms: C_23  and  N_25
REMARK    6  A    between atoms: C_31  and  O_34
REMARK                            x       y       z     vdW  Elec       q    Type
REMARK                         _______ _______ _______ _____ _____    ______ ____
ROOT
ATOM      1  N   UNL     1      -3.435   1.724   4.000  0.00  0.00    -0.198 N 
ATOM      2  C   UNL     1      -4.656   2.395   3.865  0.00  0.00    +0.062 A 
ATOM      3  C   UNL     1      -5.340   2.774   5.013  0.00  0.00    +0.025 A 
ATOM      4  C   UNL     1      -6.556   3.421   4.915  0.00  0.00    +0.002 A 
ATOM      5  C   UNL     1      -7.097   3.695   3.670  0.00  0.00    +0.001 A 
ATOM      6  C   UNL     1      -6.427   3.329   2.524  0.00  0.00    +0.013 A 
ATOM      7  C   UNL     1      -5.191   2.674   2.606  0.00  0.00    +0.042 A 
ATOM      8  C   UNL     1      -4.513   2.313   1.338  0.00  0.00    +0.162 C 
ATOM      9  C   UNL     1      -3.537   1.411   1.301  0.00  0.00    +0.141 C 
ATOM     10  S   UNL     1      -3.037   0.632   2.808  0.00  0.00    +0.076 S 
ATOM     11  O   UNL     1      -1.618   0.545   2.781  0.00  0.00    -0.150 OA
ATOM     12  O   UNL     1      -3.873  -0.503   2.988  0.00  0.00    -0.150 OA
ATOM     13  C   UNL     1      -2.850   1.040   0.016  0.00  0.00    +0.118 C 
ATOM     14  C   UNL     1      -3.683   1.471  -1.161  0.00  0.00    +0.099 C 
ATOM     15  C   UNL     1      -4.669   2.389  -1.000  0.00  0.00    +0.199 C 
ATOM     16  O   UNL     1      -4.923   2.935   0.201  0.00  0.00    -0.439 OA
ENDROOT
BRANCH  13  17
ATOM     17  C   UNL     1      -1.507   1.721  -0.048  0.00  0.00    -0.033 A 
ATOM     18  C   UNL     1      -0.353   0.964  -0.127  0.00  0.00    +0.008 A 
ATOM     19  C   UNL     1       0.879   1.585  -0.191  0.00  0.00    +0.046 A 
ATOM     20  C   UNL     1       0.958   2.970  -0.170  0.00  0.00    +0.117 A 
ATOM     21  C   UNL     1      -0.202   3.728  -0.085  0.00  0.00    +0.046 A 
ATOM     22  C   UNL     1      -1.431   3.101  -0.021  0.00  0.00    +0.008 A 
BRANCH  20  23
ATOM     23  O   UNL     1       2.168   3.584  -0.234  0.00  0.00    -0.507 OA
ATOM     24  H   UNL     1       2.230   4.683  -0.217  0.00  0.00    +0.292 HD
ENDBRANCH  20  23
ENDBRANCH  13  17
BRANCH  15  25
ATOM     25  N   UNL     1      -5.421   2.767  -2.084  0.00  0.00    -0.328 N 
ATOM     26  H   UNL     1      -6.223   3.511  -1.965  0.00  0.00    +0.145 HD
ATOM     27  H   UNL     1      -5.222   2.326  -3.072  0.00  0.00    +0.145 HD
ENDBRANCH  15  25
BRANCH  14  28
ATOM     28  C   UNL     1      -3.435   0.909  -2.454  0.00  0.00    +0.101 C 
ATOM     29  N   UNL     1      -3.239   0.464  -3.481  0.00  0.00    -0.191 NA
ENDBRANCH  14  28
BRANCH   1  30
ATOM     30  C   UNL     1      -2.548   1.971   5.139  0.00  0.00    +0.169 C 
BRANCH  30  35
ATOM     31  C   UNL     1       0.456   4.026   4.137  0.00  0.00    +0.000 A 
ATOM     32  C   UNL     1      -0.027   5.313   4.284  0.00  0.00    +0.003 A 
ATOM     33  C   UNL     1      -1.326   5.521   4.707  0.00  0.00    +0.038 A 
ATOM     34  C   UNL     1      -2.144   4.438   4.985  0.00  0.00    +0.128 A 
ATOM     35  C   UNL     1      -1.659   3.150   4.838  0.00  0.00    +0.007 A 
ATOM     36  C   UNL     1      -0.358   2.945   4.419  0.00  0.00    +0.008 A 
ATOM     37  F   UNL     1      -3.414   4.639   5.400  0.00  0.00    -0.205 F 
ENDBRANCH  30  35
ENDBRANCH   1  30
TORSDOF 6
