REMARK  Name = ZINC01328797
REMARK  7 active torsions:
REMARK  status: ('A' for Active; 'I' for Inactive)
REMARK    1  A    between atoms: C_3  and  N_8
REMARK    2  A    between atoms: C_5  and  O_7
REMARK    3  A    between atoms: N_8  and  C_9
REMARK    4  A    between atoms: C_9  and  C_11
REMARK    5  A    between atoms: C_9  and  C_18
REMARK    6  A    between atoms: N_20  and  C_21
REMARK    7  A    between atoms: C_26  and  C_28
REMARK                            x       y       z     vdW  Elec       q    Type
REMARK                         _______ _______ _______ _____ _____    ______ ____
ROOT
ATOM      1  N   UNL     1       3.868  -2.066   0.367  0.00  0.00    -0.251 N 
ATOM      2  C   UNL     1       3.820  -0.726   0.508  0.00  0.00    +0.252 C 
ATOM      3  O   UNL     1       3.039  -0.225   1.293  0.00  0.00    -0.270 OA
ENDROOT
BRANCH   2   4
ATOM      4  C   UNL     1       4.716   0.132  -0.291  0.00  0.00    +0.041 A 
ATOM      5  C   UNL     1       5.920  -0.377  -0.782  0.00  0.00    +0.017 A 
ATOM      6  C   UNL     1       6.755   0.427  -1.526  0.00  0.00    +0.050 A 
ATOM      7  C   UNL     1       6.404   1.746  -1.791  0.00  0.00    +0.162 A 
ATOM      8  C   UNL     1       5.204   2.259  -1.306  0.00  0.00    +0.163 A 
ATOM      9  C   UNL     1       4.362   1.457  -0.558  0.00  0.00    +0.062 A 
ATOM     10  O   UNL     1       4.842   3.546  -1.564  0.00  0.00    -0.485 OA
ATOM     11  C   UNL     1       5.880   4.431  -2.001  0.00  0.00    +0.270 C 
ATOM     12  C   UNL     1       6.695   3.717  -3.087  0.00  0.00    +0.270 C 
ATOM     13  O   UNL     1       7.248   2.524  -2.520  0.00  0.00    -0.485 OA
ENDBRANCH   2   4
BRANCH   1  16
ATOM     14  C   UNL     1       2.103  -4.417   2.577  0.00  0.00    +0.005 A 
ATOM     15  C   UNL     1       3.104  -3.630   2.041  0.00  0.00    +0.024 A 
ATOM     16  C   UNL     1       2.855  -2.863   0.910  0.00  0.00    +0.041 A 
ATOM     17  C   UNL     1       1.598  -2.884   0.322  0.00  0.00    +0.069 A 
ATOM     18  C   UNL     1       0.598  -3.680   0.859  0.00  0.00    +0.119 A 
ATOM     19  C   UNL     1       0.853  -4.444   1.990  0.00  0.00    +0.045 A 
BRANCH  18  20
ATOM     20  O   UNL     1      -0.632  -3.707   0.283  0.00  0.00    -0.507 OA
ATOM     21  H   UNL     1      -1.243  -3.042   0.629  0.00  0.00    +0.292 HD
ENDBRANCH  18  20
ENDBRANCH   1  16
BRANCH   1  22
ATOM     22  C   UNL     1       4.982  -2.687  -0.354  0.00  0.00    +0.197 C 
BRANCH  22  23
ATOM     23  C   UNL     1       4.771  -4.178  -0.416  0.00  0.00    -0.018 A 
ATOM     24  C   UNL     1       3.735  -4.698  -1.169  0.00  0.00    +0.009 A 
ATOM     25  C   UNL     1       3.544  -6.066  -1.230  0.00  0.00    +0.038 A 
ATOM     26  C   UNL     1       4.384  -6.914  -0.529  0.00  0.00    +0.123 A 
ATOM     27  C   UNL     1       5.418  -6.391   0.229  0.00  0.00    +0.038 A 
ATOM     28  C   UNL     1       5.611  -5.024   0.284  0.00  0.00    +0.009 A 
ATOM     29  F   UNL     1       4.194  -8.250  -0.584  0.00  0.00    -0.205 F 
ENDBRANCH  22  23
BRANCH  22  30
ATOM     30  C   UNL     1       5.047  -2.131  -1.753  0.00  0.00    +0.239 C 
ATOM     31  O   UNL     1       4.242  -1.297  -2.112  0.00  0.00    -0.273 OA
ATOM     32  N   UNL     1       5.999  -2.559  -2.605  0.00  0.00    -0.311 N 
ATOM     33  H   UNL     1       6.643  -3.225  -2.318  0.00  0.00    +0.149 HD
BRANCH  32  34
ATOM     34  C   UNL     1       6.062  -2.018  -3.965  0.00  0.00    +0.073 C 
ATOM     35  C   UNL     1       5.158  -2.842  -4.904  0.00  0.00    +0.022 C 
ATOM     36  C   UNL     1       5.941  -2.891  -6.240  0.00  0.00    +0.002 C 
ATOM     37  C   UNL     1       7.410  -3.034  -5.769  0.00  0.00    +0.002 C 
ATOM     38  C   UNL     1       7.494  -2.140  -4.515  0.00  0.00    +0.022 C 
ENDBRANCH  32  34
ENDBRANCH  22  30
ENDBRANCH   1  22
TORSDOF 7
