REMARK  Name = ZINC12536548
REMARK  9 active torsions:
REMARK  status: ('A' for Active; 'I' for Inactive)
REMARK    1  A    between atoms: C_3  and  N_19
REMARK    2  A    between atoms: C_4  and  N_16
REMARK    3  A    between atoms: C_6  and  S_7
REMARK    4  A    between atoms: S_7  and  N_10
REMARK    5  A    between atoms: N_19  and  C_20
REMARK    6  A    between atoms: C_20  and  C_21
REMARK    7  A    between atoms: C_21  and  C_22
REMARK    8  A    between atoms: C_22  and  N_58
REMARK    9  A    between atoms: C_23  and  N_58
REMARK                            x       y       z     vdW  Elec       q    Type
REMARK                         _______ _______ _______ _____ _____    ______ ____
ROOT
ATOM      1  C   UNL     1       1.203  -0.656  -0.237  0.00  0.00    +0.030 A 
ATOM      2  C   UNL     1       0.010   0.037  -0.275  0.00  0.00    +0.027 A 
ATOM      3  C   UNL     1      -0.004   1.407  -0.043  0.00  0.00    +0.058 A 
ATOM      4  C   UNL     1       1.185   2.074   0.227  0.00  0.00    +0.149 A 
ATOM      5  C   UNL     1       2.375   1.374   0.263  0.00  0.00    +0.063 A 
ATOM      6  C   UNL     1       2.384   0.011   0.032  0.00  0.00    +0.108 A 
ENDROOT
BRANCH   6   7
ATOM      7  S   UNL     1       3.905  -0.878   0.079  0.00  0.00    +0.061 S 
ATOM      8  O   UNL     1       4.793  -0.120   0.889  0.00  0.00    -0.153 OA
ATOM      9  O   UNL     1       3.576  -2.230   0.369  0.00  0.00    -0.153 OA
BRANCH   7  10
ATOM     10  N   UNL     1       4.530  -0.862  -1.454  0.00  0.00    -0.172 NA
ATOM     11  C   UNL     1       4.205  -1.926  -2.416  0.00  0.00    +0.137 C 
ATOM     12  C   UNL     1       3.741  -1.264  -3.724  0.00  0.00    +0.177 C 
ATOM     13  O   UNL     1       4.721  -0.310  -4.140  0.00  0.00    -0.377 OA
ATOM     14  C   UNL     1       4.913   0.770  -3.223  0.00  0.00    +0.177 C 
ATOM     15  C   UNL     1       5.433   0.215  -1.892  0.00  0.00    +0.137 C 
ENDBRANCH   7  10
ENDBRANCH   6   7
BRANCH   4  16
ATOM     16  N   UNL     1       1.175   3.533   0.476  0.00  0.00    +0.058 N 
ATOM     17  O   UNL     1       2.084   4.228   0.058  0.00  0.00    -0.126 OA
ATOM     18  O   UNL     1       0.259   4.039   1.098  0.00  0.00    -0.126 OA
ENDBRANCH   4  16
BRANCH   3  19
ATOM     19  N   UNL     1      -1.208   2.112  -0.086  0.00  0.00    -0.342 N 
ATOM     20  H   UNL     1      -1.207   3.079  -0.008  0.00  0.00    +0.146 HD
BRANCH  19  21
ATOM     21  C   UNL     1      -2.474   1.392  -0.248  0.00  0.00    +0.100 C 
BRANCH  21  22
ATOM     22  C   UNL     1      -3.631   2.392  -0.264  0.00  0.00    -0.000 C 
BRANCH  22  23
ATOM     23  C   UNL     1      -4.953   1.640  -0.433  0.00  0.00    -0.081 C 
BRANCH  23  24
ATOM     24  N   UNL     1      -6.063   2.611  -0.448  0.00  0.00    +0.381 N 
ATOM     25  H   UNL     1      -5.932   3.265  -1.228  0.00  0.00    -0.086 HD
ATOM     26  H   UNL     1      -6.069   3.131   0.437  0.00  0.00    -0.086 HD
BRANCH  24  27
ATOM     27  C   UNL     1      -7.352   1.912  -0.610  0.00  0.00    -0.072 C 
ATOM     28  C   UNL     1      -7.622   1.677  -2.098  0.00  0.00    -0.016 C 
ATOM     29  C   UNL     1      -8.963   0.961  -2.266  0.00  0.00    -0.002 C 
ATOM     30  C   UNL     1     -10.080   1.824  -1.676  0.00  0.00    -0.000 C 
ATOM     31  C   UNL     1      -9.810   2.059  -0.188  0.00  0.00    -0.002 C 
ATOM     32  C   UNL     1      -8.469   2.775  -0.020  0.00  0.00    -0.016 C 
ENDBRANCH  24  27
ENDBRANCH  23  24
ENDBRANCH  22  23
ENDBRANCH  21  22
ENDBRANCH  19  21
ENDBRANCH   3  19
TORSDOF 9
