REMARK  Name = ZINC64637756
REMARK  5 active torsions:
REMARK  status: ('A' for Active; 'I' for Inactive)
REMARK    1  A    between atoms: C_1  and  C_2
REMARK    2  A    between atoms: C_4  and  C_8
REMARK    3  A    between atoms: C_11  and  S_13
REMARK    4  A    between atoms: S_13  and  N_16
REMARK    5  A    between atoms: C_19  and  C_22
REMARK                            x       y       z     vdW  Elec       q    Type
REMARK                         _______ _______ _______ _____ _____    ______ ____
ROOT
ATOM      1  N   UNL     1      -1.584  -2.664  -5.856  0.00  0.00    -0.174 NA
ATOM      2  C   UNL     1      -2.938  -2.978  -6.332  0.00  0.00    +0.110 C 
ATOM      3  C   UNL     1      -3.014  -2.681  -7.833  0.00  0.00    +0.030 C 
ATOM      4  C   UNL     1      -2.579  -1.235  -8.085  0.00  0.00    +0.078 C 
ATOM      5  C   UNL     1      -1.130  -1.049  -7.628  0.00  0.00    +0.030 C 
ATOM      6  C   UNL     1      -1.035  -1.327  -6.120  0.00  0.00    +0.110 C 
ENDROOT
BRANCH   4   7
ATOM      7  C   UNL     1      -2.686  -0.928  -9.556  0.00  0.00    +0.219 C 
ATOM      8  O   UNL     1      -1.711  -1.033 -10.270  0.00  0.00    -0.275 OA
ATOM      9  N   UNL     1      -3.864  -0.536 -10.079  0.00  0.00    -0.301 N 
ATOM     10  C   UNL     1      -5.027  -0.299  -9.212  0.00  0.00    +0.113 C 
ATOM     11  C   UNL     1      -6.204  -1.133  -9.727  0.00  0.00    +0.084 C 
ATOM     12  C   UNL     1      -6.442  -0.814 -11.204  0.00  0.00    +0.173 C 
ATOM     13  C   UNL     1      -5.199  -1.171 -12.021  0.00  0.00    +0.084 C 
ATOM     14  C   UNL     1      -4.010  -0.332 -11.527  0.00  0.00    +0.113 C 
ATOM     15  O   UNL     1      -7.564  -1.567 -11.683  0.00  0.00    -0.346 OA
ATOM     16  C   UNL     1      -8.549  -0.621 -12.146  0.00  0.00    +0.191 C 
ATOM     17  C   UNL     1      -7.711   0.655 -12.411  0.00  0.00    +0.191 C 
ATOM     18  O   UNL     1      -6.726   0.587 -11.352  0.00  0.00    -0.346 OA
ENDBRANCH   4   7
BRANCH   1  19
ATOM     19  S   UNL     1      -0.696  -3.792  -5.030  0.00  0.00    +0.094 S 
ATOM     20  O   UNL     1       0.669  -3.436  -5.196  0.00  0.00    -0.150 OA
ATOM     21  O   UNL     1      -1.203  -5.064  -5.410  0.00  0.00    -0.150 OA
BRANCH  19  25
ATOM     22  C   UNL     1      -0.961  -2.895  -1.242  0.00  0.00    +0.138 A 
ATOM     23  C   UNL     1      -1.982  -3.768  -1.309  0.00  0.00    +0.049 A 
ATOM     24  C   UNL     1      -2.049  -4.219  -2.648  0.00  0.00    +0.071 A 
ATOM     25  C   UNL     1      -1.064  -3.594  -3.318  0.00  0.00    +0.258 A 
ATOM     26  O   UNL     1      -0.413  -2.789  -2.463  0.00  0.00    -0.439 OA
BRANCH  22  30
ATOM     27  C   UNL     1       0.031   1.532  -0.011  0.00  0.00    +0.067 C 
ATOM     28  C   UNL     1       0.039   0.025  -0.011  0.00  0.00    +0.059 C 
ATOM     29  C   UNL     1      -1.056  -0.739  -0.003  0.00  0.00    +0.034 C 
ATOM     30  C   UNL     1      -0.513  -2.157  -0.007  0.00  0.00    +0.218 C 
ATOM     31  N   UNL     1       0.945  -1.952  -0.018  0.00  0.00    -0.172 NA
ATOM     32  N   UNL     1       1.155  -0.737  -0.026  0.00  0.00    -0.159 NA
ENDBRANCH  22  30
ENDBRANCH  19  25
ENDBRANCH   1  19
TORSDOF 4
