REMARK  Name = ZINC13030263
REMARK  11 active torsions:
REMARK  status: ('A' for Active; 'I' for Inactive)
REMARK    1  A    between atoms: C_1  and  C_2
REMARK    2  A    between atoms: C_3  and  O_37
REMARK    3  A    between atoms: C_12  and  C_13
REMARK    4  A    between atoms: C_13  and  O_14
REMARK    5  A    between atoms: O_14  and  C_15
REMARK    6  A    between atoms: C_15  and  C_17
REMARK    7  A    between atoms: C_20  and  O_23
REMARK    8  A    between atoms: O_23  and  C_24
REMARK    9  A    between atoms: C_24  and  C_25
REMARK   10  A    between atoms: C_28  and  C_36
REMARK   11  A    between atoms: C_33  and  C_35
REMARK                            x       y       z     vdW  Elec       q    Type
REMARK                         _______ _______ _______ _____ _____    ______ ____
ROOT
ATOM      1  C   UNL     1      -1.277  -0.743   0.226  0.00  0.00    +0.340 C 
ATOM      2  O   UNL     1      -2.337  -0.149   0.260  0.00  0.00    -0.245 OA
ENDROOT
BRANCH   1   3
ATOM      3  C   UNL     1      -0.011   0.010   0.181  0.00  0.00    +0.059 A 
ATOM      4  C   UNL     1      -0.026   1.408   0.179  0.00  0.00    +0.018 A 
ATOM      5  C   UNL     1       1.159   2.108   0.138  0.00  0.00    +0.046 A 
ATOM      6  C   UNL     1       2.370   1.426   0.099  0.00  0.00    +0.121 A 
ATOM      7  C   UNL     1       2.390   0.036   0.102  0.00  0.00    +0.046 A 
ATOM      8  C   UNL     1       1.210  -0.671   0.143  0.00  0.00    +0.018 A 
BRANCH   6   9
ATOM      9  O   UNL     1       3.536   2.120   0.058  0.00  0.00    -0.483 OA
BRANCH   9  10
ATOM     10  C   UNL     1       3.442   3.546   0.058  0.00  0.00    +0.324 C 
BRANCH  10  11
ATOM     11  C   UNL     1       4.827   4.139   0.010  0.00  0.00    +0.254 C 
ATOM     12  O   UNL     1       5.798   3.413  -0.020  0.00  0.00    -0.272 OA
ATOM     13  N   UNL     1       4.986   5.478   0.002  0.00  0.00    -0.293 N 
ATOM     14  C   UNL     1       3.823   6.370  -0.096  0.00  0.00    +0.073 C 
ATOM     15  C   UNL     1       3.875   7.370   1.068  0.00  0.00    +0.022 C 
ATOM     16  C   UNL     1       5.223   8.093   1.052  0.00  0.00    +0.004 C 
ATOM     17  C   UNL     1       6.352   7.076   1.240  0.00  0.00    +0.022 C 
ATOM     18  C   UNL     1       6.327   6.072   0.083  0.00  0.00    +0.073 C 
ATOM     19  C   UNL     1       7.361   4.973   0.336  0.00  0.00    +0.028 C 
ATOM     20  C   UNL     1       3.864   7.123  -1.427  0.00  0.00    +0.028 C 
ENDBRANCH  10  11
ENDBRANCH   9  10
ENDBRANCH   6   9
ENDBRANCH   1   3
BRANCH   1  21
ATOM     21  O   UNL     1      -1.260  -2.091   0.229  0.00  0.00    -0.456 OA
BRANCH  21  22
ATOM     22  C   UNL     1      -2.545  -2.766   0.273  0.00  0.00    +0.269 C 
BRANCH  22  34
ATOM     23  C   UNL     1      -4.032  -8.938   0.337  0.00  0.00    +0.051 C 
ATOM     24  C   UNL     1      -4.281  -7.452   0.343  0.00  0.00    +0.034 A 
ATOM     25  C   UNL     1      -5.577  -6.964   0.385  0.00  0.00    +0.123 A 
ATOM     26  C   UNL     1      -5.818  -5.591   0.389  0.00  0.00    +0.046 A 
ATOM     27  C   UNL     1      -4.778  -4.707   0.352  0.00  0.00    +0.015 A 
ATOM     28  C   UNL     1      -3.463  -5.182   0.310  0.00  0.00    +0.024 A 
ATOM     29  C   UNL     1      -3.214  -6.568   0.305  0.00  0.00    +0.146 A 
ATOM     30  O   UNL     1      -1.943  -7.022   0.263  0.00  0.00    -0.422 OA
ATOM     31  C   UNL     1      -0.898  -6.179   0.225  0.00  0.00    +0.338 A 
ATOM     32  O   UNL     1       0.230  -6.635   0.188  0.00  0.00    -0.245 OA
ATOM     33  C   UNL     1      -1.075  -4.780   0.223  0.00  0.00    +0.099 A 
ATOM     34  C   UNL     1      -2.328  -4.258   0.269  0.00  0.00    +0.007 A 
BRANCH  25  35
ATOM     35  O   UNL     1      -6.622  -7.830   0.422  0.00  0.00    -0.506 OA
ATOM     36  H   UNL     1      -6.895  -8.079   1.316  0.00  0.00    +0.292 HD
ENDBRANCH  25  35
ENDBRANCH  22  34
ENDBRANCH  21  22
ENDBRANCH   1  21
TORSDOF 8
