REMARK  Name = ZINC59121029
REMARK  9 active torsions:
REMARK  status: ('A' for Active; 'I' for Inactive)
REMARK    1  A    between atoms: C_1  and  C_2
REMARK    2  A    between atoms: C_2  and  C_3
REMARK    3  A    between atoms: C_6  and  C_9
REMARK    4  A    between atoms: N_11  and  C_31
REMARK    5  A    between atoms: N_15  and  C_24
REMARK    6  A    between atoms: C_17  and  C_19
REMARK    7  A    between atoms: C_19  and  O_21
REMARK    8  A    between atoms: O_21  and  C_22
REMARK    9  A    between atoms: C_22  and  C_23
REMARK                            x       y       z     vdW  Elec       q    Type
REMARK                         _______ _______ _______ _____ _____    ______ ____
ROOT
ATOM      1  C   UNL     1      -5.491  -1.921  -0.055  0.00  0.00    +0.089 C 
ATOM      2  N   UNL     1      -6.049  -2.110   1.116  0.00  0.00    -0.176 NA
ATOM      3  N   UNL     1      -7.320  -2.715   1.175  0.00  0.00    -0.185 N 
ATOM      4  C   UNL     1      -7.696  -3.639   0.115  0.00  0.00    +0.214 C 
ATOM      5  C   UNL     1      -7.237  -3.146  -1.222  0.00  0.00    +0.036 C 
ATOM      6  C   UNL     1      -6.187  -2.324  -1.289  0.00  0.00    +0.030 C 
ATOM      7  N   UNL     1      -9.135  -3.933   0.127  0.00  0.00    -0.184 N 
ATOM      8  N   UNL     1      -9.459  -5.254   0.367  0.00  0.00    -0.163 NA
ATOM      9  C   UNL     1      -8.561  -6.181   0.569  0.00  0.00    +0.203 C 
ATOM     10  S   UNL     1      -7.008  -5.305   0.450  0.00  0.00    -0.044 S 
ENDROOT
BRANCH   7  11
ATOM     11  C   UNL     1     -10.102  -2.951  -0.086  0.00  0.00    +0.057 A 
ATOM     12  C   UNL     1      -9.718  -1.637  -0.328  0.00  0.00    +0.025 A 
ATOM     13  C   UNL     1     -10.678  -0.666  -0.540  0.00  0.00    +0.003 A 
ATOM     14  C   UNL     1     -12.020  -1.000  -0.511  0.00  0.00    +0.020 A 
ATOM     15  C   UNL     1     -12.406  -2.308  -0.270  0.00  0.00    +0.043 A 
ATOM     16  C   UNL     1     -11.450  -3.285  -0.064  0.00  0.00    +0.045 A 
ATOM     17 CL   UNL     1     -14.091  -2.721  -0.233  0.00  0.00    -0.083 Cl
ENDBRANCH   7  11
BRANCH   1  21
ATOM     18  C   UNL     1      -1.649  -0.121  -0.293  0.00  0.00    -0.048 A 
ATOM     19  C   UNL     1      -2.238  -0.325   0.941  0.00  0.00    +0.004 A 
ATOM     20  C   UNL     1      -3.485  -0.909   1.025  0.00  0.00    +0.010 A 
ATOM     21  C   UNL     1      -4.152  -1.294  -0.138  0.00  0.00    +0.002 A 
ATOM     22  C   UNL     1      -3.553  -1.084  -1.380  0.00  0.00    +0.010 A 
ATOM     23  C   UNL     1      -2.307  -0.494  -1.451  0.00  0.00    +0.004 A 
BRANCH  18  25
ATOM     24  C   UNL     1      -0.439   2.036  -0.478  0.00  0.00    +0.009 C 
ATOM     25  C   UNL     1      -0.286   0.517  -0.378  0.00  0.00    +0.032 C 
ENDBRANCH  18  25
ENDBRANCH   1  21
BRANCH   3  26
ATOM     26  C   UNL     1      -8.196  -2.434   2.223  0.00  0.00    +0.055 A 
ATOM     27  C   UNL     1      -8.822  -3.472   2.904  0.00  0.00    +0.025 A 
ATOM     28  C   UNL     1      -9.689  -3.191   3.941  0.00  0.00    +0.002 A 
ATOM     29  C   UNL     1      -9.935  -1.879   4.303  0.00  0.00    +0.000 A 
ATOM     30  C   UNL     1      -9.314  -0.844   3.628  0.00  0.00    +0.002 A 
ATOM     31  C   UNL     1      -8.441  -1.117   2.593  0.00  0.00    +0.025 A 
ENDBRANCH   3  26
BRANCH   9  32
ATOM     32  C   UNL     1      -8.777  -7.608   0.832  0.00  0.00    +0.366 C 
ATOM     33  O   UNL     1      -7.825  -8.346   1.000  0.00  0.00    -0.243 OA
BRANCH  32  34
ATOM     34  O   UNL     1     -10.031  -8.101   0.887  0.00  0.00    -0.460 OA
BRANCH  34  35
ATOM     35  C   UNL     1     -10.168  -9.500   1.147  0.00  0.00    +0.229 C 
ATOM     36  C   UNL     1     -11.652  -9.872   1.173  0.00  0.00    +0.048 C 
ENDBRANCH  34  35
ENDBRANCH  32  34
ENDBRANCH   9  32
TORSDOF 7
