REMARK  Name = ZINC39466516
REMARK  5 active torsions:
REMARK  status: ('A' for Active; 'I' for Inactive)
REMARK    1  A    between atoms: C_4  and  C_7
REMARK    2  A    between atoms: C_7  and  P_8
REMARK    3  A    between atoms: C_16  and  O_33
REMARK    4  A    between atoms: C_17  and  C_26
REMARK    5  A    between atoms: C_31  and  O_32
REMARK                            x       y       z     vdW  Elec       q    Type
REMARK                         _______ _______ _______ _____ _____    ______ ____
ROOT
ATOM      1  P   UNL     1       4.260  -1.012   1.674  0.00  0.00    +0.262 P 
ATOM      2  O   UNL     1       3.282  -1.870   2.380  0.00  0.00    -0.274 OA
ATOM      3  N   UNL     1       5.753  -1.716   1.680  0.00  0.00    -0.291 NA
ATOM      4  N   UNL     1       6.498  -1.631   2.837  0.00  0.00    +0.397 N 
ATOM      5  C   UNL     1       7.805  -2.232   2.523  0.00  0.00    -0.046 C 
ATOM      6  C   UNL     1       8.719  -2.214   3.741  0.00  0.00    +0.008 C 
ATOM      7  C   UNL     1       8.108  -3.001   4.870  0.00  0.00    +0.021 C 
ATOM      8  C   UNL     1       8.492  -2.760   6.124  0.00  0.00    +0.121 C 
ATOM      9  C   UNL     1       9.525  -1.728   6.382  0.00  0.00    +0.023 C 
ATOM     10  C   UNL     1       9.745  -0.770   5.468  0.00  0.00    -0.011 C 
ATOM     11  C   UNL     1       8.930  -0.767   4.198  0.00  0.00    +0.016 C 
ATOM     12  C   UNL     1       7.563  -0.142   4.479  0.00  0.00    -0.003 C 
ATOM     13  C   UNL     1       6.664  -0.233   3.240  0.00  0.00    -0.020 C 
ATOM     14  C   UNL     1       5.320   0.407   3.611  0.00  0.00    +0.156 C 
ATOM     15  O   UNL     1       4.449   0.397   2.466  0.00  0.00    -0.319 OA
ATOM     16  H   UNL     1       6.094  -2.174   0.896  0.00  0.00    +0.111 HD
ATOM     17  H   UNL     1       6.042  -2.147   3.574  0.00  0.00    -0.055 HD
ENDROOT
BRANCH   9  18
ATOM     18  C   UNL     1      10.309  -1.755   7.640  0.00  0.00    +0.027 A 
ATOM     19  C   UNL     1      10.032  -0.844   8.657  0.00  0.00    +0.012 A 
ATOM     20  C   UNL     1      10.764  -0.872   9.826  0.00  0.00    +0.001 A 
ATOM     21  C   UNL     1      11.775  -1.802   9.992  0.00  0.00    +0.004 A 
ATOM     22  C   UNL     1      12.060  -2.710   8.990  0.00  0.00    +0.046 A 
ATOM     23  C   UNL     1      11.327  -2.697   7.813  0.00  0.00    +0.125 A 
BRANCH  23  24
ATOM     24  O   UNL     1      11.601  -3.594   6.830  0.00  0.00    -0.506 OA
ATOM     25  H   UNL     1      12.263  -3.289   6.194  0.00  0.00    +0.292 HD
ENDBRANCH  23  24
ENDBRANCH   9  18
BRANCH   8  26
ATOM     26  O   UNL     1       7.942  -3.453   7.156  0.00  0.00    -0.506 OA
ATOM     27  H   UNL     1       7.279  -4.101   6.884  0.00  0.00    +0.292 HD
ENDBRANCH   8  26
BRANCH   1  28
ATOM     28  C   UNL     1       3.711  -0.707  -0.038  0.00  0.00    +0.147 C 
BRANCH  28  32
ATOM     29  C   UNL     1      -0.017   1.378   0.010  0.00  0.00    +0.000 A 
ATOM     30  C   UNL     1       1.171   2.086   0.002  0.00  0.00    +0.000 A 
ATOM     31  C   UNL     1       2.377   1.411  -0.013  0.00  0.00    +0.004 A 
ATOM     32  C   UNL     1       2.396   0.029  -0.020  0.00  0.00    -0.037 A 
ATOM     33  C   UNL     1       1.208  -0.679  -0.012  0.00  0.00    +0.004 A 
ATOM     34  C   UNL     1       0.002  -0.004   0.002  0.00  0.00    +0.000 A 
ENDBRANCH  28  32
ENDBRANCH   1  28
TORSDOF 5
