REMARK  Name = ZINC40586188
REMARK  4 active torsions:
REMARK  status: ('A' for Active; 'I' for Inactive)
REMARK    1  A    between atoms: C_11  and  N_27
REMARK    2  A    between atoms: C_12  and  N_16
REMARK    3  A    between atoms: N_16  and  N_17
REMARK    4  A    between atoms: C_18  and  C_20
REMARK                            x       y       z     vdW  Elec       q    Type
REMARK                         _______ _______ _______ _____ _____    ______ ____
ROOT
ATOM      1  C   UNL     1       1.798  -4.614   0.478  0.00  0.00    +0.000 A 
ATOM      2  C   UNL     1       3.175  -4.552   0.370  0.00  0.00    +0.002 A 
ATOM      3  C   UNL     1       3.809  -3.332   0.265  0.00  0.00    +0.024 A 
ATOM      4  C   UNL     1       3.066  -2.150   0.267  0.00  0.00    +0.038 A 
ATOM      5  C   UNL     1       1.686  -2.223   0.376  0.00  0.00    -0.025 A 
ATOM      6  C   UNL     1       1.055  -3.448   0.481  0.00  0.00    +0.005 A 
ATOM      7  C   UNL     1       1.127  -0.818   0.354  0.00  0.00    +0.056 C 
ATOM      8  C   UNL     1       2.362   0.087   0.218  0.00  0.00    +0.117 C 
ATOM      9  N   UNL     1       3.506  -0.827   0.173  0.00  0.00    -0.283 N 
ATOM     10  C   UNL     1       4.832  -0.437   0.055  0.00  0.00    +0.161 A 
ATOM     11  C   UNL     1       5.159   0.901  -0.144  0.00  0.00    +0.207 A 
ATOM     12  C   UNL     1       6.503   1.241  -0.256  0.00  0.00    +0.171 A 
ATOM     13  N   UNL     1       7.422   0.281  -0.169  0.00  0.00    -0.217 NA
ATOM     14  C   UNL     1       7.072  -0.975   0.020  0.00  0.00    +0.225 A 
ATOM     15  N   UNL     1       5.810  -1.336   0.136  0.00  0.00    -0.218 NA
ENDROOT
BRANCH  11  16
ATOM     16  N   UNL     1       4.104   1.935  -0.235  0.00  0.00    +0.063 N 
ATOM     17  O   UNL     1       3.722   2.499   0.764  0.00  0.00    -0.126 OA
ATOM     18  O   UNL     1       3.623   2.216  -1.308  0.00  0.00    -0.126 OA
ENDBRANCH  11  16
BRANCH  12  19
ATOM     19  N   UNL     1       6.881   2.560  -0.455  0.00  0.00    -0.246 N 
ATOM     20  H   UNL     1       6.206   3.254  -0.518  0.00  0.00    +0.172 HD
BRANCH  19  21
ATOM     21  N   UNL     1       8.238   2.891  -0.567  0.00  0.00    -0.231 N 
ATOM     22  C   UNL     1       8.605   4.173  -0.760  0.00  0.00    +0.261 C 
ATOM     23  O   UNL     1       7.759   5.043  -0.839  0.00  0.00    -0.269 OA
ATOM     24  H   UNL     1       8.913   2.197  -0.504  0.00  0.00    +0.173 HD
BRANCH  22  25
ATOM     25  C   UNL     1      10.036   4.522  -0.878  0.00  0.00    +0.052 A 
ATOM     26  C   UNL     1      11.010   3.526  -0.794  0.00  0.00    +0.014 A 
ATOM     27  C   UNL     1      12.344   3.858  -0.904  0.00  0.00    +0.001 A 
ATOM     28  C   UNL     1      12.719   5.177  -1.097  0.00  0.00    +0.001 A 
ATOM     29  C   UNL     1      11.760   6.170  -1.181  0.00  0.00    +0.016 A 
ATOM     30  C   UNL     1      10.420   5.850  -1.079  0.00  0.00    +0.030 A 
ATOM     31 BR   UNL     1       9.110   7.208  -1.202  0.00  0.00    -0.050 Br
ENDBRANCH  22  25
ENDBRANCH  19  21
ENDBRANCH  12  19
TORSDOF 4
