REMARK  Name = ZINC12813639
REMARK  4 active torsions:
REMARK  status: ('A' for Active; 'I' for Inactive)
REMARK    1  A    between atoms: C_3  and  C_26
REMARK    2  A    between atoms: N_10  and  C_13
REMARK    3  A    between atoms: C_13  and  C_14
REMARK    4  A    between atoms: C_16  and  C_19
REMARK                            x       y       z     vdW  Elec       q    Type
REMARK                         _______ _______ _______ _____ _____    ______ ____
ROOT
ATOM      1  C   UNL     1      -2.624   4.525  -4.593  0.00  0.00    +0.021 A 
ATOM      2  C   UNL     1      -1.359   4.995  -4.284  0.00  0.00    +0.024 A 
ATOM      3  C   UNL     1      -0.731   4.506  -3.134  0.00  0.00    +0.092 A 
ATOM      4  C   UNL     1      -1.408   3.560  -2.343  0.00  0.00    +0.139 A 
ATOM      5  N   UNL     1      -2.615   3.141  -2.688  0.00  0.00    -0.239 NA
ATOM      6  C   UNL     1      -3.226   3.594  -3.766  0.00  0.00    +0.113 A 
ATOM      7  N   UNL     1      -0.806   3.062  -1.200  0.00  0.00    -0.318 N 
ATOM      8  C   UNL     1      -0.601   1.610  -1.304  0.00  0.00    +0.088 C 
ATOM      9  C   UNL     1       0.136   1.111  -0.059  0.00  0.00    -0.059 C 
ATOM     10  N   UNL     1      -0.648   1.445   1.138  0.00  0.00    +0.388 N 
ATOM     11  C   UNL     1      -0.853   2.897   1.242  0.00  0.00    -0.059 C 
ATOM     12  C   UNL     1      -1.591   3.396  -0.004  0.00  0.00    +0.088 C 
ATOM     13  H   UNL     1      -1.635   0.969   1.042  0.00  0.00    -0.081 HD
ENDROOT
BRANCH   3  14
ATOM     14  C   UNL     1       0.577   4.959  -2.768  0.00  0.00    +0.103 C 
ATOM     15  N   UNL     1       1.615   5.319  -2.478  0.00  0.00    -0.191 NA
ENDBRANCH   3  14
BRANCH  10  16
ATOM     16  C   UNL     1      -0.009   0.916   2.350  0.00  0.00    +0.022 C 
BRANCH  16  17
ATOM     17  C   UNL     1      -0.697   1.479   3.568  0.00  0.00    +0.211 A 
ATOM     18  N   UNL     1      -1.722   0.957   4.194  0.00  0.00    -0.193 NA
ATOM     19  C   UNL     1      -1.991   1.800   5.215  0.00  0.00    +0.202 A 
ATOM     20  N   UNL     1      -1.123   2.776   5.150  0.00  0.00    -0.056 NA
ATOM     21  O   UNL     1      -0.371   2.603   4.214  0.00  0.00    -0.340 OA
BRANCH  19  22
ATOM     22  C   UNL     1      -3.071   1.648   6.222  0.00  0.00    +0.023 A 
ATOM     23  C   UNL     1      -3.931   0.553   6.164  0.00  0.00    +0.013 A 
ATOM     24  C   UNL     1      -4.930   0.413   7.106  0.00  0.00    +0.021 A 
ATOM     25  C   UNL     1      -5.086   1.364   8.100  0.00  0.00    +0.041 A 
ATOM     26  C   UNL     1      -4.237   2.456   8.159  0.00  0.00    +0.021 A 
ATOM     27  C   UNL     1      -3.232   2.602   7.225  0.00  0.00    +0.013 A 
ATOM     28 CL   UNL     1      -6.349   1.186   9.277  0.00  0.00    -0.084 Cl
ENDBRANCH  19  22
ENDBRANCH  16  17
ENDBRANCH  10  16
TORSDOF 4
