REMARK  Name = ZINC62034103
REMARK  7 active torsions:
REMARK  status: ('A' for Active; 'I' for Inactive)
REMARK    1  A    between atoms: C_1  and  C_2
REMARK    2  A    between atoms: C_2  and  C_3
REMARK    3  A    between atoms: C_2  and  C_4
REMARK    4  A    between atoms: C_4  and  C_6
REMARK    5  A    between atoms: C_4  and  C_8
REMARK    6  A    between atoms: C_13  and  C_16
REMARK    7  A    between atoms: C_16  and  N_17
REMARK                            x       y       z     vdW  Elec       q    Type
REMARK                         _______ _______ _______ _____ _____    ______ ____
ROOT
ATOM      1  C   UNL     1       2.395   0.424  -1.389  0.00  0.00    +0.233 C 
ATOM      2  O   UNL     1       2.861   1.169  -0.553  0.00  0.00    -0.274 OA
ATOM      3  N   UNL     1       3.162  -0.009  -2.409  0.00  0.00    -0.300 N 
ATOM      4  C   UNL     1       2.610  -0.907  -3.432  0.00  0.00    +0.108 C 
ATOM      5  C   UNL     1       3.510  -2.142  -3.542  0.00  0.00    +0.021 C 
ATOM      6  C   UNL     1       4.950  -1.696  -3.807  0.00  0.00    -0.025 C 
ATOM      7  C   UNL     1       5.445  -0.841  -2.638  0.00  0.00    +0.021 C 
ATOM      8  C   UNL     1       4.565   0.413  -2.521  0.00  0.00    +0.108 C 
ENDROOT
BRANCH   1   9
ATOM      9  C   UNL     1       0.958  -0.018  -1.287  0.00  0.00    +0.180 C 
BRANCH   9  11
ATOM     10  C   UNL     1       0.375   2.136  -0.163  0.00  0.00    +0.009 C 
ATOM     11  C   UNL     1       0.317   0.611  -0.048  0.00  0.00    +0.009 C 
ATOM     12  C   UNL     1      -1.142   0.163   0.055  0.00  0.00    +0.009 C 
ENDBRANCH   9  11
BRANCH   9  13
ATOM     13  C   UNL     1       0.902  -1.485  -1.177  0.00  0.00    +0.076 C 
ATOM     14  N   UNL     1       0.859  -2.617  -1.091  0.00  0.00    -0.196 NA
ENDBRANCH   9  13
ENDBRANCH   1   9
BRANCH   6  15
ATOM     15  C   UNL     1       5.846  -2.928  -3.952  0.00  0.00    -0.075 C 
BRANCH  15  16
ATOM     16  N   UNL     1       5.457  -3.678  -5.154  0.00  0.00    +0.380 N 
ATOM     17  C   UNL     1       5.810  -2.909  -6.374  0.00  0.00    -0.079 C 
ATOM     18  C   UNL     1       5.878  -3.999  -7.473  0.00  0.00    -0.020 C 
ATOM     19  C   UNL     1       6.502  -5.202  -6.729  0.00  0.00    -0.020 C 
ATOM     20  C   UNL     1       6.223  -4.941  -5.237  0.00  0.00    -0.079 C 
ATOM     21  H   UNL     1       4.467  -3.873  -5.137  0.00  0.00    -0.082 HD
ENDBRANCH  15  16
ENDBRANCH   6  15
TORSDOF 5
