REMARK  Name = ZINC01825241
REMARK  9 active torsions:
REMARK  status: ('A' for Active; 'I' for Inactive)
REMARK    1  A    between atoms: C_1  and  C_2
REMARK    2  A    between atoms: C_2  and  O_3
REMARK    3  A    between atoms: O_3  and  C_4
REMARK    4  A    between atoms: C_4  and  C_6
REMARK    5  A    between atoms: C_7  and  C_39
REMARK    6  A    between atoms: C_14  and  C_15
REMARK    7  A    between atoms: C_18  and  C_20
REMARK    8  A    between atoms: C_23  and  N_26
REMARK    9  A    between atoms: C_30  and  C_32
REMARK                            x       y       z     vdW  Elec       q    Type
REMARK                         _______ _______ _______ _____ _____    ______ ____
ROOT
ATOM      1  C   UNL     1       1.668  -2.384   2.321  0.00  0.00    +0.085 C 
ATOM      2  C   UNL     1       1.513  -3.700   2.646  0.00  0.00    +0.053 C 
ATOM      3  N   UNL     1       1.956  -4.171   3.807  0.00  0.00    -0.228 NA
ATOM      4  C   UNL     1       2.559  -3.457   4.719  0.00  0.00    +0.178 A 
ATOM      5  N   UNL     1       2.815  -2.111   4.588  0.00  0.00    -0.275 N 
ATOM      6  C   UNL     1       3.442  -1.519   5.611  0.00  0.00    +0.268 A 
ATOM      7  O   UNL     1       3.710  -0.335   5.589  0.00  0.00    -0.266 OA
ATOM      8  C   UNL     1       3.795  -2.370   6.774  0.00  0.00    +0.084 A 
ATOM      9  C   UNL     1       4.447  -2.004   7.962  0.00  0.00    +0.066 C 
ATOM     10  S   UNL     1       3.221  -3.882   6.315  0.00  0.00    -0.046 S 
ATOM     11  C   UNL     1       2.363  -1.484   3.319  0.00  0.00    +0.162 C 
ATOM     12  C   UNL     1       0.831  -4.631   1.677  0.00  0.00    +0.066 C 
ENDROOT
BRANCH  11  13
ATOM     13  C   UNL     1       1.420  -0.362   3.670  0.00  0.00    -0.020 A 
ATOM     14  C   UNL     1       0.411  -0.571   4.592  0.00  0.00    +0.009 A 
ATOM     15  C   UNL     1      -0.454   0.457   4.915  0.00  0.00    +0.039 A 
ATOM     16  C   UNL     1      -0.311   1.696   4.315  0.00  0.00    +0.123 A 
ATOM     17  C   UNL     1       0.699   1.904   3.391  0.00  0.00    +0.039 A 
ATOM     18  C   UNL     1       1.567   0.876   3.074  0.00  0.00    +0.009 A 
ATOM     19  F   UNL     1      -1.157   2.701   4.629  0.00  0.00    -0.205 F 
ENDBRANCH  11  13
BRANCH   9  20
ATOM     20  C   UNL     1       4.690  -2.956   8.941  0.00  0.00    +0.130 A 
ATOM     21  C   UNL     1       5.350  -2.728  10.229  0.00  0.00    +0.050 A 
ATOM     22  C   UNL     1       5.372  -3.933  10.865  0.00  0.00    +0.050 A 
ATOM     23  C   UNL     1       4.755  -4.872  10.017  0.00  0.00    +0.136 A 
ATOM     24  O   UNL     1       4.356  -4.264   8.888  0.00  0.00    -0.455 OA
BRANCH  23  25
ATOM     25  C   UNL     1       4.571  -6.292  10.322  0.00  0.00    +0.017 A 
ATOM     26  C   UNL     1       5.021  -6.817  11.545  0.00  0.00    +0.014 A 
ATOM     27  C   UNL     1       4.844  -8.154  11.822  0.00  0.00    +0.033 A 
ATOM     28  C   UNL     1       4.223  -8.982  10.899  0.00  0.00    +0.126 A 
ATOM     29  C   UNL     1       3.776  -8.474   9.689  0.00  0.00    +0.033 A 
ATOM     30  C   UNL     1       3.938  -7.139   9.395  0.00  0.00    +0.014 A 
BRANCH  28  31
ATOM     31  N   UNL     1       4.038 -10.418  11.207  0.00  0.00    +0.056 N 
ATOM     32  O   UNL     1       4.461 -10.905  12.355  0.00  0.00    -0.126 OA
ATOM     33  O   UNL     1       3.449 -11.208  10.333  0.00  0.00    -0.126 OA
ENDBRANCH  28  31
ENDBRANCH  23  25
ENDBRANCH   9  20
BRANCH   1  34
ATOM     34  C   UNL     1       1.197  -1.877   1.085  0.00  0.00    +0.339 C 
ATOM     35  O   UNL     1       0.747  -2.636   0.248  0.00  0.00    -0.245 OA
BRANCH  34  36
ATOM     36  O   UNL     1       1.249  -0.551   0.836  0.00  0.00    -0.462 OA
BRANCH  36  38
ATOM     37  C   UNL     1       0.896   1.410  -0.531  0.00  0.00    +0.048 C 
ATOM     38  C   UNL     1       0.757  -0.110  -0.431  0.00  0.00    +0.229 C 
ENDBRANCH  36  38
ENDBRANCH  34  36
ENDBRANCH   1  34
TORSDOF 7
