REMARK  Name = ZINC14070973
REMARK  8 active torsions:
REMARK  status: ('A' for Active; 'I' for Inactive)
REMARK    1  A    between atoms: C_4  and  S_7
REMARK    2  A    between atoms: S_7  and  N_10
REMARK    3  A    between atoms: N_10  and  C_11
REMARK    4  A    between atoms: C_15  and  C_17
REMARK    5  A    between atoms: N_19  and  C_20
REMARK    6  A    between atoms: C_20  and  C_21
REMARK    7  A    between atoms: C_21  and  C_23
REMARK    8  A    between atoms: C_21  and  N_28
REMARK                            x       y       z     vdW  Elec       q    Type
REMARK                         _______ _______ _______ _____ _____    ______ ____
ROOT
ATOM      1  C   UNL     1       3.751  -4.747   4.798  0.00  0.00    +0.244 C 
ATOM      2  O   UNL     1       4.946  -4.673   5.008  0.00  0.00    -0.270 OA
ATOM      3  N   UNL     1       2.987  -5.577   5.534  0.00  0.00    -0.312 N 
ATOM      4  H   UNL     1       2.033  -5.635   5.367  0.00  0.00    +0.149 HD
ENDROOT
BRANCH   1   9
ATOM      5  C   UNL     1       3.341  -2.297   1.974  0.00  0.00    +0.049 A 
ATOM      6  C   UNL     1       1.974  -2.386   1.739  0.00  0.00    +0.024 A 
ATOM      7  C   UNL     1       1.193  -3.238   2.496  0.00  0.00    +0.003 A 
ATOM      8  C   UNL     1       1.764  -4.007   3.490  0.00  0.00    +0.013 A 
ATOM      9  C   UNL     1       3.136  -3.925   3.733  0.00  0.00    +0.038 A 
ATOM     10  C   UNL     1       3.926  -3.068   2.966  0.00  0.00    +0.037 A 
BRANCH   5  11
ATOM     11  N   UNL     1       4.127  -1.434   1.205  0.00  0.00    -0.216 N 
ATOM     12  H   UNL     1       4.777  -0.857   1.636  0.00  0.00    +0.174 HD
BRANCH  11  13
ATOM     13  S   UNL     1       3.949  -1.397  -0.441  0.00  0.00    +0.072 S 
ATOM     14  O   UNL     1       4.936  -0.502  -0.936  0.00  0.00    -0.150 OA
ATOM     15  O   UNL     1       2.563  -1.218  -0.695  0.00  0.00    -0.150 OA
BRANCH  13  19
ATOM     16  C   UNL     1       5.031  -5.507  -1.999  0.00  0.00    +0.000 A 
ATOM     17  C   UNL     1       3.747  -5.252  -1.555  0.00  0.00    +0.002 A 
ATOM     18  C   UNL     1       3.417  -3.997  -1.079  0.00  0.00    +0.029 A 
ATOM     19  C   UNL     1       4.371  -2.997  -1.046  0.00  0.00    +0.108 A 
ATOM     20  C   UNL     1       5.655  -3.252  -1.490  0.00  0.00    +0.029 A 
ATOM     21  C   UNL     1       5.985  -4.507  -1.967  0.00  0.00    +0.002 A 
ENDBRANCH  13  19
ENDBRANCH  11  13
ENDBRANCH   5  11
ENDBRANCH   1   9
BRANCH   3  22
ATOM     22  C   UNL     1       3.596  -6.391   6.589  0.00  0.00    +0.097 C 
BRANCH  22  23
ATOM     23  C   UNL     1       2.502  -7.141   7.351  0.00  0.00    +0.016 C 
BRANCH  23  24
ATOM     24  N   UNL     1       1.499  -6.184   7.837  0.00  0.00    +0.387 N 
ATOM     25  C   UNL     1       2.160  -5.157   8.652  0.00  0.00    -0.078 C 
ATOM     26  C   UNL     1       1.134  -4.112   9.094  0.00  0.00    -0.019 C 
ATOM     27  C   UNL     1       0.041  -4.796   9.920  0.00  0.00    -0.004 C 
ATOM     28  C   UNL     1      -0.592  -5.915   9.086  0.00  0.00    -0.019 C 
ATOM     29  C   UNL     1       0.499  -6.893   8.644  0.00  0.00    -0.078 C 
ATOM     30  H   UNL     1       1.045  -5.745   7.050  0.00  0.00    -0.081 HD
ENDBRANCH  23  24
BRANCH  23  31
ATOM     31  C   UNL     1       1.841  -8.136   6.431  0.00  0.00    +0.093 A 
ATOM     32  C   UNL     1       2.094  -9.456   6.389  0.00  0.00    +0.043 A 
ATOM     33  C   UNL     1       1.257 -10.002   5.388  0.00  0.00    +0.041 A 
ATOM     34  C   UNL     1       0.543  -8.982   4.879  0.00  0.00    +0.195 A 
ATOM     35  O   UNL     1       0.897  -7.855   5.518  0.00  0.00    -0.469 OA
ENDBRANCH  23  31
ENDBRANCH  22  23
ENDBRANCH   3  22
TORSDOF 8
