REMARK  Name = ZINC09271322
REMARK  9 active torsions:
REMARK  status: ('A' for Active; 'I' for Inactive)
REMARK    1  A    between atoms: C_1  and  C_2
REMARK    2  A    between atoms: C_2  and  O_3
REMARK    3  A    between atoms: O_3  and  C_4
REMARK    4  A    between atoms: C_7  and  C_10
REMARK    5  A    between atoms: C_13  and  C_14
REMARK    6  A    between atoms: C_13  and  O_21
REMARK    7  A    between atoms: N_26  and  C_27
REMARK    8  A    between atoms: C_27  and  C_28
REMARK    9  A    between atoms: C_28  and  N_60
REMARK                            x       y       z     vdW  Elec       q    Type
REMARK                         _______ _______ _______ _____ _____    ______ ____
ROOT
ATOM      1  C   UNL     1       5.727   0.331   4.423  0.00  0.00    +0.144 C 
ATOM      2  C   UNL     1       6.565  -0.558   5.313  0.00  0.00    +0.071 C 
ATOM      3  C   UNL     1       6.749  -0.431   6.675  0.00  0.00    +0.133 C 
ATOM      4  C   UNL     1       7.122  -1.536   4.474  0.00  0.00    +0.249 C 
ATOM      5  O   UNL     1       7.865  -2.436   4.821  0.00  0.00    -0.282 OA
ATOM      6  C   UNL     1       6.648  -1.282   3.086  0.00  0.00    +0.288 C 
ATOM      7  O   UNL     1       6.945  -1.948   2.116  0.00  0.00    -0.266 OA
ATOM      8  N   UNL     1       5.841  -0.207   3.065  0.00  0.00    -0.285 N 
ENDROOT
BRANCH   3   9
ATOM      9  C   UNL     1       7.487  -1.468   7.418  0.00  0.00    +0.017 A 
ATOM     10  C   UNL     1       7.132  -2.814   7.286  0.00  0.00    +0.012 A 
ATOM     11  C   UNL     1       7.829  -3.779   7.981  0.00  0.00    +0.016 A 
ATOM     12  C   UNL     1       8.873  -3.416   8.816  0.00  0.00    +0.018 A 
ATOM     13  C   UNL     1       9.227  -2.084   8.956  0.00  0.00    +0.016 A 
ATOM     14  C   UNL     1       8.542  -1.109   8.263  0.00  0.00    +0.012 A 
ATOM     15 BR   UNL     1       9.820  -4.746   9.771  0.00  0.00    -0.050 Br
ENDBRANCH   3   9
BRANCH   1  19
ATOM     16  C   UNL     1       7.203   4.340   4.539  0.00  0.00    +0.121 A 
ATOM     17  C   UNL     1       6.064   3.997   5.255  0.00  0.00    +0.046 A 
ATOM     18  C   UNL     1       5.589   2.701   5.215  0.00  0.00    +0.009 A 
ATOM     19  C   UNL     1       6.247   1.744   4.464  0.00  0.00    -0.022 A 
ATOM     20  C   UNL     1       7.385   2.082   3.755  0.00  0.00    +0.009 A 
ATOM     21  C   UNL     1       7.861   3.378   3.786  0.00  0.00    +0.046 A 
BRANCH  16  22
ATOM     22  O   UNL     1       7.672   5.614   4.576  0.00  0.00    -0.492 OA
BRANCH  22  24
ATOM     23  C   UNL     1       9.223   7.369   3.979  0.00  0.00    +0.048 C 
ATOM     24  C   UNL     1       8.849   5.895   3.815  0.00  0.00    +0.225 C 
ENDBRANCH  22  24
ENDBRANCH  16  22
ENDBRANCH   1  19
BRANCH   3  25
ATOM     25  O   UNL     1       6.254   0.642   7.326  0.00  0.00    -0.506 OA
ATOM     26  H   UNL     1       6.477   0.575   8.298  0.00  0.00    +0.292 HD
ENDBRANCH   3  25
BRANCH   8  27
ATOM     27  C   UNL     1       5.187   0.342   1.875  0.00  0.00    +0.090 C 
BRANCH  27  28
ATOM     28  C   UNL     1       3.818  -0.318   1.695  0.00  0.00    -0.059 C 
BRANCH  28  34
ATOM     29  C   UNL     1       1.958  -0.538   0.160  0.00  0.00    -0.050 C 
ATOM     30  C   UNL     1       1.340   0.031  -1.120  0.00  0.00    +0.141 C 
ATOM     31  O   UNL     1       1.059   1.420  -0.931  0.00  0.00    -0.383 OA
ATOM     32  C   UNL     1       2.210   2.201  -0.598  0.00  0.00    +0.141 C 
ATOM     33  C   UNL     1       2.836   1.654   0.688  0.00  0.00    -0.050 C 
ATOM     34  N   UNL     1       3.179   0.231   0.480  0.00  0.00    +0.384 N 
ATOM     35  H   UNL     1       3.835   0.156  -0.306  0.00  0.00    -0.082 HD
ENDBRANCH  28  34
ENDBRANCH  27  28
ENDBRANCH   8  27
TORSDOF 8
