REMARK  Name = ZINC39710987
REMARK  9 active torsions:
REMARK  status: ('A' for Active; 'I' for Inactive)
REMARK    1  A    between atoms: C_1  and  C_2
REMARK    2  A    between atoms: C_4  and  C_35
REMARK    3  A    between atoms: C_9  and  C_14
REMARK    4  A    between atoms: C_14  and  C_16
REMARK    5  A    between atoms: C_14  and  N_25
REMARK    6  A    between atoms: N_20  and  C_21
REMARK    7  A    between atoms: C_21  and  C_22
REMARK    8  A    between atoms: C_22  and  O_23
REMARK    9  A    between atoms: O_23  and  C_24
REMARK                            x       y       z     vdW  Elec       q    Type
REMARK                         _______ _______ _______ _____ _____    ______ ____
ROOT
ATOM      1  C   UNL     1      -1.152  -4.909   2.945  0.00  0.00    +0.142 C 
ENDROOT
BRANCH   1  10
ATOM      2  C   UNL     1       2.529   0.705   0.507  0.00  0.00    +0.044 C 
ATOM      3  C   UNL     1       2.162  -0.757   0.531  0.00  0.00    -0.050 A 
ATOM      4  C   UNL     1       2.410  -1.542  -0.595  0.00  0.00    +0.008 A 
ATOM      5  C   UNL     1       2.108  -2.865  -0.646  0.00  0.00    -0.028 A 
ATOM      6  C   UNL     1       1.520  -3.507   0.459  0.00  0.00    +0.043 A 
ATOM      7  N   UNL     1       1.228  -4.807   0.397  0.00  0.00    -0.284 N 
ATOM      8  C   UNL     1       0.675  -5.471   1.398  0.00  0.00    +0.226 C 
ATOM      9  O   UNL     1       0.432  -6.657   1.283  0.00  0.00    -0.275 OA
ATOM     10  C   UNL     1       0.348  -4.750   2.687  0.00  0.00    +0.123 C 
ATOM     11  C   UNL     1       0.679  -3.273   2.762  0.00  0.00    -0.003 C 
ATOM     12  C   UNL     1       1.247  -2.702   1.662  0.00  0.00    -0.006 A 
ATOM     13  C   UNL     1       1.603  -1.283   1.651  0.00  0.00    +0.012 A 
ATOM     14  C   UNL     1       2.403  -3.652  -1.898  0.00  0.00    +0.046 C 
ATOM     15  H   UNL     1       1.430  -5.287  -0.421  0.00  0.00    +0.155 HD
ENDBRANCH   1  10
BRANCH   1  16
ATOM     16  N   UNL     1      -1.480  -6.336   3.063  0.00  0.00    -0.287 NA
ATOM     17  C   UNL     1      -2.927  -6.530   3.250  0.00  0.00    +0.090 C 
ATOM     18  C   UNL     1      -3.256  -8.002   3.000  0.00  0.00    +0.051 C 
ATOM     19  C   UNL     1      -2.329  -8.880   3.801  0.00  0.00    -0.042 A 
ATOM     20  C   UNL     1      -2.679 -10.207   3.996  0.00  0.00    +0.004 A 
ATOM     21  C   UNL     1      -1.857 -11.046   4.721  0.00  0.00    +0.000 A 
ATOM     22  C   UNL     1      -0.678 -10.560   5.255  0.00  0.00    +0.000 A 
ATOM     23  C   UNL     1      -0.329  -9.239   5.063  0.00  0.00    +0.005 A 
ATOM     24  C   UNL     1      -1.155  -8.394   4.337  0.00  0.00    -0.030 A 
ATOM     25  C   UNL     1      -0.737  -6.957   4.163  0.00  0.00    +0.120 C 
ENDBRANCH   1  16
BRANCH   1  26
ATOM     26  C   UNL     1      -1.518  -4.202   4.225  0.00  0.00    +0.170 A 
ATOM     27  N   UNL     1      -1.105  -4.503   5.431  0.00  0.00    -0.112 NA
ATOM     28  N   UNL     1      -1.638  -3.668   6.255  0.00  0.00    -0.023 NA
ATOM     29  N   UNL     1      -2.381  -2.842   5.605  0.00  0.00    -0.044 NA
ATOM     30  N   UNL     1      -2.329  -3.135   4.349  0.00  0.00    -0.225 N 
BRANCH  30  31
ATOM     31  C   UNL     1      -3.025  -2.439   3.264  0.00  0.00    +0.175 C 
BRANCH  31  32
ATOM     32  C   UNL     1      -4.399  -3.076   3.048  0.00  0.00    +0.183 C 
BRANCH  32  33
ATOM     33  O   UNL     1      -5.077  -2.397   1.989  0.00  0.00    -0.381 OA
ATOM     34  C   UNL     1      -6.378  -2.917   1.705  0.00  0.00    +0.194 C 
ENDBRANCH  32  33
ENDBRANCH  31  32
ENDBRANCH  30  31
ENDBRANCH   1  26
TORSDOF 6
