REMARK  Name = ZINC06409785
REMARK  12 active torsions:
REMARK  status: ('A' for Active; 'I' for Inactive)
REMARK    1  A    between atoms: C_1  and  C_2
REMARK    2  A    between atoms: C_7  and  C_14
REMARK    3  A    between atoms: C_14  and  C_16
REMARK    4  A    between atoms: C_14  and  N_70
REMARK    5  A    between atoms: N_20  and  C_21
REMARK    6  A    between atoms: C_21  and  C_22
REMARK    7  A    between atoms: C_21  and  C_23
REMARK    8  A    between atoms: C_21  and  C_24
REMARK    9  A    between atoms: C_25  and  C_26
REMARK   10  A    between atoms: C_25  and  N_70
REMARK   11  A    between atoms: C_33  and  C_34
REMARK   12  A    between atoms: C_33  and  N_70
REMARK                            x       y       z     vdW  Elec       q    Type
REMARK                         _______ _______ _______ _____ _____    ______ ____
ROOT
ATOM      1  C   UNL     1       1.845   3.103  -0.819  0.00  0.00    +0.039 C 
ENDROOT
BRANCH   1   8
ATOM      2  C   UNL     1       9.409   3.571  -3.307  0.00  0.00    +0.044 C 
ATOM      3  C   UNL     1       8.025   3.680  -2.721  0.00  0.00    -0.048 A 
ATOM      4  C   UNL     1       7.713   4.747  -1.889  0.00  0.00    +0.004 A 
ATOM      5  C   UNL     1       6.464   4.865  -1.348  0.00  0.00    +0.010 A 
ATOM      6  C   UNL     1       5.491   3.902  -1.634  0.00  0.00    -0.001 A 
ATOM      7  C   UNL     1       4.143   3.998  -1.070  0.00  0.00    +0.017 A 
ATOM      8  C   UNL     1       3.241   3.034  -1.382  0.00  0.00    +0.011 A 
ATOM      9  C   UNL     1       3.607   1.965  -2.228  0.00  0.00    +0.251 A 
ATOM     10  O   UNL     1       2.782   1.107  -2.491  0.00  0.00    -0.268 OA
ATOM     11  N   UNL     1       4.840   1.872  -2.754  0.00  0.00    -0.322 N 
ATOM     12  H   UNL     1       5.057   1.126  -3.335  0.00  0.00    +0.169 HD
ATOM     13  C   UNL     1       5.803   2.819  -2.476  0.00  0.00    +0.049 A 
ATOM     14  C   UNL     1       7.081   2.720  -3.016  0.00  0.00    +0.029 A 
ENDBRANCH   1   8
BRANCH   1  15
ATOM     15  C   UNL     1       0.864   3.345  -1.937  0.00  0.00    +0.143 A 
ATOM     16  N   UNL     1       0.570   2.520  -2.912  0.00  0.00    -0.115 NA
ATOM     17  N   UNL     1      -0.311   3.088  -3.661  0.00  0.00    -0.023 NA
ATOM     18  N   UNL     1      -0.582   4.257  -3.193  0.00  0.00    -0.043 NA
ATOM     19  N   UNL     1       0.123   4.452  -2.130  0.00  0.00    -0.225 N 
BRANCH  19  20
ATOM     20  C   UNL     1       0.118   5.653  -1.291  0.00  0.00    +0.059 C 
ATOM     21  C   UNL     1       1.529   6.240  -1.233  0.00  0.00    +0.036 C 
ATOM     22  C   UNL     1      -0.841   6.686  -1.885  0.00  0.00    +0.036 C 
ATOM     23  C   UNL     1      -0.340   5.286   0.122  0.00  0.00    +0.036 C 
ENDBRANCH  19  20
ENDBRANCH   1  15
BRANCH   1  24
ATOM     24  N   UNL     1       1.524   1.813  -0.171  0.00  0.00    +0.394 N 
ATOM     25  H   UNL     1       1.543   1.070  -0.880  0.00  0.00    -0.080 HD
BRANCH  24  26
ATOM     26  C   UNL     1       0.174   1.871   0.427  0.00  0.00    -0.041 C 
BRANCH  26  27
ATOM     27  C   UNL     1      -0.241   0.477   0.824  0.00  0.00    -0.064 A 
ATOM     28  C   UNL     1      -0.838  -0.356  -0.103  0.00  0.00    +0.003 A 
ATOM     29  C   UNL     1      -1.213  -1.637   0.258  0.00  0.00    +0.020 A 
ATOM     30  C   UNL     1      -1.001  -2.080   1.552  0.00  0.00    +0.041 A 
ATOM     31  C   UNL     1      -0.409  -1.243   2.481  0.00  0.00    +0.020 A 
ATOM     32  C   UNL     1      -0.029   0.035   2.117  0.00  0.00    +0.003 A 
ATOM     33 CL   UNL     1      -1.479  -3.685   2.009  0.00  0.00    -0.084 Cl
ENDBRANCH  26  27
ENDBRANCH  24  26
BRANCH  24  34
ATOM     34  C   UNL     1       2.526   1.508   0.871  0.00  0.00    -0.045 C 
BRANCH  34  35
ATOM     35  C   UNL     1       2.604   2.647   1.890  0.00  0.00    +0.102 C 
ATOM     36  C   UNL     1       3.776   2.414   2.869  0.00  0.00    +0.032 C 
ATOM     37  C   UNL     1       3.236   2.915   4.227  0.00  0.00    +0.030 C 
ATOM     38  C   UNL     1       1.802   3.391   3.909  0.00  0.00    +0.160 C 
ATOM     39  O   UNL     1       1.423   2.659   2.721  0.00  0.00    -0.378 OA
ENDBRANCH  34  35
ENDBRANCH  24  34
ENDBRANCH   1  24
TORSDOF 8
