REMARK  Name = ZINC09003839
REMARK  9 active torsions:
REMARK  status: ('A' for Active; 'I' for Inactive)
REMARK    1  A    between atoms: C_1  and  C_2
REMARK    2  A    between atoms: C_2  and  C_3
REMARK    3  A    between atoms: C_6  and  O_9
REMARK    4  A    between atoms: O_9  and  C_10
REMARK    5  A    between atoms: C_11  and  C_22
REMARK    6  A    between atoms: C_18  and  C_21
REMARK    7  A    between atoms: C_23  and  C_24
REMARK    8  A    between atoms: C_23  and  C_26
REMARK    9  A    between atoms: N_28  and  C_29
REMARK                            x       y       z     vdW  Elec       q    Type
REMARK                         _______ _______ _______ _____ _____    ______ ____
ROOT
ATOM      1  C   UNL     1      -1.462  -2.192   0.563  0.00  0.00    +0.235 A 
ATOM      2  C   UNL     1      -0.199  -2.719   0.196  0.00  0.00    +0.103 A 
ATOM      3  C   UNL     1       0.860  -1.808  -0.058  0.00  0.00    +0.269 A 
ATOM      4  O   UNL     1       1.964  -2.215  -0.376  0.00  0.00    -0.266 OA
ATOM      5  N   UNL     1       0.623  -0.484   0.061  0.00  0.00    -0.267 N 
ATOM      6  C   UNL     1       1.633   0.398  -0.180  0.00  0.00    +0.096 A 
ATOM      7  C   UNL     1       1.430   1.731  -0.071  0.00  0.00    +0.019 A 
ATOM      8  C   UNL     1       0.170   2.221   0.293  0.00  0.00    +0.008 A 
ATOM      9  C   UNL     1      -0.848   1.345   0.538  0.00  0.00    -0.007 A 
ATOM     10  C   UNL     1      -0.617  -0.036   0.419  0.00  0.00    +0.147 A 
ATOM     11  N   UNL     1      -1.619  -0.884   0.660  0.00  0.00    -0.194 NA
ATOM     12  C   UNL     1      -2.211   1.856   0.926  0.00  0.00    +0.047 C 
ENDROOT
BRANCH   2  13
ATOM     13  C   UNL     1      -0.000  -4.106   0.085  0.00  0.00    +0.042 C 
ATOM     14  C   UNL     1      -0.817  -4.860  -0.746  0.00  0.00    +0.114 C 
BRANCH  14  15
ATOM     15  C   UNL     1      -0.692  -6.322  -0.768  0.00  0.00    +0.255 C 
ATOM     16  O   UNL     1       0.128  -6.873  -0.057  0.00  0.00    -0.269 OA
ATOM     17  N   UNL     1      -1.485  -7.054  -1.575  0.00  0.00    -0.306 N 
ATOM     18  H   UNL     1      -2.138  -6.614  -2.142  0.00  0.00    +0.149 HD
BRANCH  17  19
ATOM     19  C   UNL     1      -1.360  -8.513  -1.597  0.00  0.00    +0.096 C 
ATOM     20  C   UNL     1      -2.217  -9.116  -0.471  0.00  0.00    +0.046 C 
ATOM     21  C   UNL     1      -2.318 -10.649  -0.707  0.00  0.00    +0.168 C 
ATOM     22  S   UNL     1      -2.539 -10.695  -2.536  0.00  0.00    -0.029 S 
ATOM     23  O   UNL     1      -3.928 -10.699  -2.833  0.00  0.00    -0.174 OA
ATOM     24  O   UNL     1      -1.704 -11.709  -3.078  0.00  0.00    -0.174 OA
ATOM     25  C   UNL     1      -1.839  -9.049  -2.968  0.00  0.00    +0.188 C 
ENDBRANCH  17  19
ENDBRANCH  14  15
BRANCH  14  26
ATOM     26  C   UNL     1      -1.781  -4.212  -1.583  0.00  0.00    +0.104 C 
ATOM     27  N   UNL     1      -2.546  -3.697  -2.246  0.00  0.00    -0.191 NA
ENDBRANCH  14  26
ENDBRANCH   2  13
BRANCH   1  28
ATOM     28  O   UNL     1      -2.499  -3.023   0.814  0.00  0.00    -0.437 OA
BRANCH  28  32
ATOM     29  C   UNL     1      -6.156  -1.340   1.713  0.00  0.00    -0.047 A 
ATOM     30  C   UNL     1      -5.697  -1.337   0.409  0.00  0.00    +0.007 A 
ATOM     31  C   UNL     1      -4.472  -1.899   0.105  0.00  0.00    +0.046 A 
ATOM     32  C   UNL     1      -3.703  -2.469   1.110  0.00  0.00    +0.130 A 
ATOM     33  C   UNL     1      -4.169  -2.475   2.417  0.00  0.00    +0.046 A 
ATOM     34  C   UNL     1      -5.392  -1.907   2.716  0.00  0.00    +0.007 A 
BRANCH  29  36
ATOM     35  C   UNL     1      -8.586  -1.790   1.923  0.00  0.00    +0.009 C 
ATOM     36  C   UNL     1      -7.493  -0.726   2.041  0.00  0.00    +0.032 C 
ENDBRANCH  29  36
ENDBRANCH  28  32
ENDBRANCH   1  28
TORSDOF 7
