REMARK  Name = ZINC11166758
REMARK  9 active torsions:
REMARK  status: ('A' for Active; 'I' for Inactive)
REMARK    1  A    between atoms: C_1  and  C_2
REMARK    2  A    between atoms: C_2  and  C_3
REMARK    3  A    between atoms: C_3  and  C_5
REMARK    4  A    between atoms: C_3  and  C_6
REMARK    5  A    between atoms: C_9  and  N_12
REMARK    6  A    between atoms: C_22  and  S_23
REMARK    7  A    between atoms: S_23  and  C_24
REMARK    8  A    between atoms: C_24  and  C_25
REMARK    9  A    between atoms: C_25  and  C_26
REMARK                            x       y       z     vdW  Elec       q    Type
REMARK                         _______ _______ _______ _____ _____    ______ ____
ROOT
ATOM      1  N   UNL     1      -4.960   3.249   5.699  0.00  0.00    -0.255 N 
ATOM      2  C   UNL     1      -6.006   4.080   5.486  0.00  0.00    +0.267 A 
ATOM      3  O   UNL     1      -6.364   4.368   4.358  0.00  0.00    -0.267 OA
ATOM      4  C   UNL     1      -6.696   4.621   6.664  0.00  0.00    +0.065 A 
ATOM      5  C   UNL     1      -7.784   5.485   6.549  0.00  0.00    +0.015 A 
ATOM      6  C   UNL     1      -8.390   5.960   7.679  0.00  0.00    +0.001 A 
ATOM      7  C   UNL     1      -7.933   5.591   8.938  0.00  0.00    +0.002 A 
ATOM      8  C   UNL     1      -6.868   4.747   9.080  0.00  0.00    +0.028 A 
ATOM      9  C   UNL     1      -6.228   4.244   7.944  0.00  0.00    +0.079 A 
ATOM     10  N   UNL     1      -5.170   3.405   8.038  0.00  0.00    -0.223 NA
ATOM     11  C   UNL     1      -4.574   2.931   6.972  0.00  0.00    +0.177 A 
ENDROOT
BRANCH   1  15
ATOM     12  C   UNL     1      -2.906   1.636   2.451  0.00  0.00    -0.044 A 
ATOM     13  C   UNL     1      -3.997   0.969   2.978  0.00  0.00    +0.006 A 
ATOM     14  C   UNL     1      -4.676   1.498   4.059  0.00  0.00    +0.026 A 
ATOM     15  C   UNL     1      -4.269   2.707   4.608  0.00  0.00    +0.052 A 
ATOM     16  C   UNL     1      -3.178   3.377   4.072  0.00  0.00    +0.026 A 
ATOM     17  C   UNL     1      -2.499   2.840   2.996  0.00  0.00    +0.006 A 
BRANCH  12  18
ATOM     18  C   UNL     1      -2.164   1.053   1.276  0.00  0.00    +0.016 C 
ATOM     19  C   UNL     1      -3.122   0.902   0.092  0.00  0.00    +0.012 C 
BRANCH  18  21
ATOM     20  C   UNL     1      -0.747  -0.856   0.509  0.00  0.00    +0.004 C 
ATOM     21  C   UNL     1      -1.604  -0.319   1.657  0.00  0.00    +0.004 C 
ENDBRANCH  18  21
ENDBRANCH  12  18
ENDBRANCH   1  15
BRANCH  11  22
ATOM     22  S   UNL     1      -3.209   1.838   7.188  0.00  0.00    -0.087 S 
BRANCH  22  23
ATOM     23  C   UNL     1      -3.144   1.770   8.996  0.00  0.00    +0.086 C 
BRANCH  23  24
ATOM     24  C   UNL     1      -1.999   0.852   9.431  0.00  0.00    +0.107 C 
BRANCH  24  25
ATOM     25  C   UNL     1      -1.945   0.796  10.935  0.00  0.00    +0.221 C 
ATOM     26  O   UNL     1      -2.742   1.428  11.595  0.00  0.00    -0.275 OA
ATOM     27  N   UNL     1      -1.010   0.043  11.548  0.00  0.00    -0.240 N 
ATOM     28  C   UNL     1      -0.961  -0.007  12.894  0.00  0.00    +0.303 C 
ATOM     29  O   UNL     1      -1.760   0.626  13.555  0.00  0.00    -0.253 OA
ATOM     30  N   UNL     1      -0.025  -0.759  13.507  0.00  0.00    -0.313 N 
ATOM     31  H   UNL     1      -0.286  -0.530  10.950  0.00  0.00    +0.159 HD
ATOM     32  H   UNL     1       0.014  -0.800  14.605  0.00  0.00    +0.146 HD
ATOM     33  H   UNL     1       0.698  -1.332  12.909  0.00  0.00    +0.146 HD
ENDBRANCH  24  25
ENDBRANCH  23  24
ENDBRANCH  22  23
ENDBRANCH  11  22
TORSDOF 7
