REMARK  Name = ZINC05040938
REMARK  10 active torsions:
REMARK  status: ('A' for Active; 'I' for Inactive)
REMARK    1  A    between atoms: C_1  and  C_2
REMARK    2  A    between atoms: C_5  and  C_9
REMARK    3  A    between atoms: C_7  and  C_8
REMARK    4  A    between atoms: C_9  and  C_11
REMARK    5  A    between atoms: C_11  and  C_13
REMARK    6  A    between atoms: C_11  and  O_14
REMARK    7  A    between atoms: O_14  and  C_15
REMARK    8  A    between atoms: C_15  and  C_17
REMARK    9  A    between atoms: C_17  and  N_18
REMARK   10  A    between atoms: C_26  and  C_28
REMARK                            x       y       z     vdW  Elec       q    Type
REMARK                         _______ _______ _______ _____ _____    ______ ____
ROOT
ATOM      1  C   UNL     1      -0.952   6.257  -1.066  0.00  0.00    +0.326 C 
ATOM      2  O   UNL     1      -1.991   5.661  -1.223  0.00  0.00    -0.249 OA
ENDROOT
BRANCH   1   3
ATOM      3  O   UNL     1       0.075   5.662  -0.438  0.00  0.00    -0.452 OA
BRANCH   3   4
ATOM      4  C   UNL     1      -0.135   4.302   0.025  0.00  0.00    +0.244 C 
ATOM      5  C   UNL     1      -0.688   4.328   1.451  0.00  0.00    +0.061 C 
BRANCH   4   6
ATOM      6  C   UNL     1       1.176   3.558   0.009  0.00  0.00    +0.203 C 
ATOM      7  O   UNL     1       2.222   4.172   0.003  0.00  0.00    -0.288 OA
BRANCH   6  12
ATOM      8  C   UNL     1       1.219  -2.190  -0.021  0.00  0.00    +0.044 C 
ATOM      9  C   UNL     1       1.208  -0.683  -0.013  0.00  0.00    -0.047 A 
ATOM     10  C   UNL     1       0.002  -0.004   0.002  0.00  0.00    +0.004 A 
ATOM     11  C   UNL     1      -0.017   1.374   0.010  0.00  0.00    +0.012 A 
ATOM     12  C   UNL     1       1.187   2.087   0.002  0.00  0.00    +0.021 A 
ATOM     13  C   UNL     1       2.401   1.393  -0.014  0.00  0.00    +0.015 A 
ATOM     14  C   UNL     1       2.403   0.014  -0.021  0.00  0.00    -0.047 A 
ATOM     15  C   UNL     1       3.711  -0.736  -0.038  0.00  0.00    +0.044 C 
ENDBRANCH   6  12
ENDBRANCH   4   6
ENDBRANCH   3   4
ENDBRANCH   1   3
BRANCH   1  16
ATOM     16  C   UNL     1      -0.808   7.668  -1.575  0.00  0.00    +0.238 C 
BRANCH  16  17
ATOM     17  N   UNL     1      -2.057   8.085  -2.216  0.00  0.00    -0.213 N 
ATOM     18  C   UNL     1      -2.330   7.916  -3.526  0.00  0.00    +0.247 C 
ATOM     19  O   UNL     1      -1.616   7.408  -4.365  0.00  0.00    -0.273 OA
ATOM     20  C   UNL     1      -3.714   8.489  -3.728  0.00  0.00    +0.115 C 
ATOM     21  C   UNL     1      -4.678   7.409  -4.207  0.00  0.00    +0.035 C 
ATOM     22  C   UNL     1      -4.237   6.903  -5.583  0.00  0.00    +0.003 C 
ATOM     23  C   UNL     1      -4.220   8.070  -6.573  0.00  0.00    +0.000 C 
ATOM     24  C   UNL     1      -3.230   9.133  -6.091  0.00  0.00    +0.006 C 
ATOM     25  C   UNL     1      -3.666   9.649  -4.717  0.00  0.00    +0.018 C 
ATOM     26  C   UNL     1      -2.666  10.697  -4.226  0.00  0.00    +0.010 C 
ATOM     27  N   UNL     1      -4.100   8.967  -2.394  0.00  0.00    -0.285 N 
ATOM     28  C   UNL     1      -3.067   8.687  -1.576  0.00  0.00    +0.310 C 
ATOM     29  O   UNL     1      -3.054   8.951  -0.390  0.00  0.00    -0.252 OA
ATOM     30  H   UNL     1      -4.933   9.399  -2.151  0.00  0.00    +0.151 HD
ENDBRANCH  16  17
ENDBRANCH   1  16
TORSDOF 6
