REMARK  Name = ZINC66699522
REMARK  12 active torsions:
REMARK  status: ('A' for Active; 'I' for Inactive)
REMARK    1  A    between atoms: C_1  and  C_2
REMARK    2  A    between atoms: N_5  and  C_8
REMARK    3  A    between atoms: C_8  and  C_9
REMARK    4  A    between atoms: C_9  and  N_10
REMARK    5  A    between atoms: C_16  and  C_19
REMARK    6  A    between atoms: C_16  and  N_20
REMARK    7  A    between atoms: N_20  and  C_21
REMARK    8  A    between atoms: C_22  and  O_24
REMARK    9  A    between atoms: O_24  and  C_25
REMARK   10  A    between atoms: C_25  and  C_26
REMARK   11  A    between atoms: C_25  and  C_27
REMARK   12  A    between atoms: C_25  and  C_28
REMARK                            x       y       z     vdW  Elec       q    Type
REMARK                         _______ _______ _______ _____ _____    ______ ____
ROOT
ATOM      1  N   UNL     1       4.411  -5.591   2.335  0.00  0.00    -0.301 N 
ATOM      2  C   UNL     1       3.900  -6.407   1.391  0.00  0.00    +0.302 C 
ATOM      3  O   UNL     1       3.351  -5.937   0.414  0.00  0.00    -0.253 OA
ATOM      4  N   UNL     1       3.997  -7.744   1.532  0.00  0.00    -0.286 N 
ATOM      5  C   UNL     1       3.550  -8.644   0.460  0.00  0.00    +0.111 C 
ATOM      6  C   UNL     1       4.696  -9.597   0.107  0.00  0.00    +0.045 C 
ATOM      7  C   UNL     1       5.166 -10.315   1.375  0.00  0.00    +0.040 C 
ATOM      8  C   UNL     1       5.686  -9.286   2.382  0.00  0.00    +0.045 C 
ATOM      9  C   UNL     1       4.557  -8.329   2.758  0.00  0.00    +0.111 C 
ATOM     10  C   UNL     1       6.288 -11.293   1.020  0.00  0.00    +0.032 C 
ATOM     11  H   UNL     1       4.782  -5.965   3.150  0.00  0.00    +0.150 HD
ENDROOT
BRANCH   7  12
ATOM     12  N   UNL     1       4.045 -11.050   1.964  0.00  0.00    -0.265 N 
ATOM     13  C   UNL     1       3.729 -10.889   3.385  0.00  0.00    +0.136 C 
ATOM     14  C   UNL     1       3.304 -11.875   1.198  0.00  0.00    +0.404 C 
ATOM     15  O   UNL     1       3.566 -12.009   0.019  0.00  0.00    -0.226 OA
BRANCH  14  16
ATOM     16  O   UNL     1       2.273 -12.552   1.739  0.00  0.00    -0.445 OA
BRANCH  16  17
ATOM     17  C   UNL     1       1.531 -13.408   0.869  0.00  0.00    +0.107 C 
ATOM     18  C   UNL     1       2.461 -14.474   0.287  0.00  0.00    +0.055 C 
ATOM     19  C   UNL     1       0.408 -14.086   1.657  0.00  0.00    +0.055 C 
ATOM     20  C   UNL     1       0.928 -12.581  -0.269  0.00  0.00    +0.055 C 
ENDBRANCH  16  17
ENDBRANCH  14  16
ENDBRANCH   7  12
BRANCH   1  21
ATOM     21  C   UNL     1       4.408  -4.141   2.129  0.00  0.00    +0.087 C 
BRANCH  21  22
ATOM     22  C   UNL     1       5.041  -3.452   3.340  0.00  0.00    -0.060 C 
BRANCH  22  27
ATOM     23  C   UNL     1       6.179   2.102   2.730  0.00  0.00    +0.007 C 
ATOM     24  C   UNL     1       6.315   0.597   2.964  0.00  0.00    -0.018 C 
ATOM     25  C   UNL     1       5.457   0.185   4.164  0.00  0.00    -0.016 C 
ATOM     26  C   UNL     1       5.534  -1.332   4.343  0.00  0.00    -0.079 C 
ATOM     27  N   UNL     1       5.037  -1.998   3.133  0.00  0.00    +0.381 N 
ATOM     28  C   UNL     1       5.899  -1.665   1.992  0.00  0.00    -0.079 C 
ATOM     29  C   UNL     1       5.835  -0.160   1.722  0.00  0.00    -0.016 C 
ATOM     30  H   UNL     1       4.096  -1.689   2.943  0.00  0.00    -0.082 HD
ENDBRANCH  22  27
ENDBRANCH  21  22
ENDBRANCH   1  21
TORSDOF 6
