REMARK  Name = ZINC05455033
REMARK  7 active torsions:
REMARK  status: ('A' for Active; 'I' for Inactive)
REMARK    1  A    between atoms: C_1  and  C_2
REMARK    2  A    between atoms: N_10  and  N_14
REMARK    3  A    between atoms: C_15  and  C_17
REMARK    4  A    between atoms: C_17  and  O_18
REMARK    5  A    between atoms: O_18  and  C_19
REMARK    6  A    between atoms: C_19  and  C_21
REMARK    7  A    between atoms: C_21  and  C_22
REMARK                            x       y       z     vdW  Elec       q    Type
REMARK                         _______ _______ _______ _____ _____    ______ ____
ROOT
ATOM      1  N   UNL     1      -9.136   1.536   3.855  0.00  0.00    -0.221 N 
ATOM      2  C   UNL     1      -8.364   1.190   2.805  0.00  0.00    +0.267 C 
ATOM      3  O   UNL     1      -8.816   0.489   1.925  0.00  0.00    -0.271 OA
ATOM      4  H   UNL     1      -8.774   2.097   4.559  0.00  0.00    +0.174 HD
ENDROOT
BRANCH   1  14
ATOM      5  C   UNL     1     -16.467  -1.390   4.679  0.00  0.00    +0.007 C 
ATOM      6  C   UNL     1     -14.969  -1.268   4.962  0.00  0.00    -0.014 C 
ATOM      7  C   UNL     1     -14.183  -1.544   3.679  0.00  0.00    +0.006 C 
ATOM      8  C   UNL     1     -12.683  -1.433   3.967  0.00  0.00    +0.035 C 
ATOM      9  C   UNL     1     -12.364  -0.036   4.486  0.00  0.00    +0.114 C 
ATOM     10  C   UNL     1     -13.160   0.264   5.752  0.00  0.00    +0.035 C 
ATOM     11  C   UNL     1     -14.657   0.146   5.457  0.00  0.00    +0.006 C 
ATOM     12  C   UNL     1     -10.883   0.103   4.750  0.00  0.00    +0.263 C 
ATOM     13  O   UNL     1     -10.214  -0.535   5.536  0.00  0.00    -0.271 OA
ATOM     14  N   UNL     1     -10.460   1.086   3.929  0.00  0.00    -0.137 N 
ATOM     15  C   UNL     1     -11.466   1.581   3.196  0.00  0.00    +0.326 C 
ATOM     16  O   UNL     1     -11.334   2.479   2.387  0.00  0.00    -0.251 OA
ATOM     17  N   UNL     1     -12.639   0.972   3.455  0.00  0.00    -0.284 N 
ATOM     18  H   UNL     1     -13.496   1.165   3.044  0.00  0.00    +0.151 HD
ENDBRANCH   1  14
BRANCH   2  19
ATOM     19  C   UNL     1      -6.939   1.674   2.726  0.00  0.00    +0.329 C 
BRANCH  19  20
ATOM     20  O   UNL     1      -6.324   1.170   1.512  0.00  0.00    -0.455 OA
BRANCH  20  21
ATOM     21  C   UNL     1      -5.045   1.513   1.289  0.00  0.00    +0.308 C 
ATOM     22  O   UNL     1      -4.460   2.211   2.082  0.00  0.00    -0.251 OA
BRANCH  21  23
ATOM     23  C   UNL     1      -4.340   1.027   0.049  0.00  0.00    +0.127 C 
BRANCH  23  24
ATOM     24  C   UNL     1      -2.904   1.556   0.038  0.00  0.00    -0.018 C 
ATOM     25  C   UNL     1      -2.188   1.063  -1.221  0.00  0.00    +0.011 C 
ATOM     26  C   UNL     1      -0.753   1.593  -1.232  0.00  0.00    -0.010 C 
ATOM     27  C   UNL     1      -0.013   1.086   0.008  0.00  0.00    +0.007 C 
ATOM     28  C   UNL     1      -0.729   1.579   1.267  0.00  0.00    -0.010 C 
ATOM     29  C   UNL     1      -2.164   1.050   1.278  0.00  0.00    +0.011 C 
ATOM     30  C   UNL     1      -0.750   3.109   1.275  0.00  0.00    +0.007 C 
ATOM     31  C   UNL     1      -1.490   3.616   0.036  0.00  0.00    -0.010 C 
ATOM     32  C   UNL     1      -0.773   3.123  -1.223  0.00  0.00    +0.007 C 
ATOM     33  C   UNL     1      -2.925   3.086   0.047  0.00  0.00    +0.011 C 
ENDBRANCH  23  24
ENDBRANCH  21  23
ENDBRANCH  20  21
ENDBRANCH  19  20
ENDBRANCH   2  19
TORSDOF 6
