REMARK  Name = ZINC57991157
REMARK  8 active torsions:
REMARK  status: ('A' for Active; 'I' for Inactive)
REMARK    1  A    between atoms: C_1  and  C_2
REMARK    2  A    between atoms: C_4  and  C_16
REMARK    3  A    between atoms: N_18  and  C_19
REMARK    4  A    between atoms: C_19  and  C_21
REMARK    5  A    between atoms: C_19  and  C_32
REMARK    6  A    between atoms: C_23  and  C_26
REMARK    7  A    between atoms: C_32  and  C_33
REMARK    8  A    between atoms: C_32  and  C_34
REMARK                            x       y       z     vdW  Elec       q    Type
REMARK                         _______ _______ _______ _____ _____    ______ ____
ROOT
ATOM      1  C   UNL     1       0.029  -2.821  -2.492  0.00  0.00    +0.247 C 
ATOM      2  O   UNL     1       0.046  -4.037  -2.479  0.00  0.00    -0.270 OA
ATOM      3  N   UNL     1       0.014  -2.160  -3.666  0.00  0.00    -0.300 N 
ATOM      4  H   UNL     1       0.001  -1.190  -3.677  0.00  0.00    +0.150 HD
ENDROOT
BRANCH   1   8
ATOM      5  C   UNL     1      -0.018   1.503   0.010  0.00  0.00    +0.065 C 
ATOM      6  C   UNL     1       0.002  -0.004   0.002  0.00  0.00    +0.041 A 
ATOM      7  C   UNL     1       0.005  -0.673  -1.209  0.00  0.00    +0.038 A 
ATOM      8  C   UNL     1       0.025  -2.069  -1.220  0.00  0.00    +0.067 A 
ATOM      9  C   UNL     1       0.040  -2.737   0.021  0.00  0.00    +0.120 A 
ATOM     10  C   UNL     1       0.034  -1.974   1.204  0.00  0.00    +0.161 A 
ATOM     11  N   UNL     1       0.022  -0.653   1.148  0.00  0.00    -0.233 NA
ATOM     12  N   UNL     1       0.047  -2.886   2.236  0.00  0.00    -0.312 N 
ATOM     13  C   UNL     1       0.070  -4.130   1.684  0.00  0.00    +0.112 A 
ATOM     14  N   UNL     1       0.060  -4.034   0.383  0.00  0.00    -0.230 NA
ATOM     15  C   UNL     1       0.110  -5.423   2.464  0.00  0.00    +0.074 C 
ATOM     16  C   UNL     1      -0.931  -5.372   3.584  0.00  0.00    +0.008 C 
ATOM     17  C   UNL     1      -0.308  -4.756   4.833  0.00  0.00    +0.002 C 
ATOM     18  C   UNL     1       0.720  -3.694   4.448  0.00  0.00    +0.022 C 
ATOM     19  C   UNL     1       0.031  -2.571   3.668  0.00  0.00    +0.125 C 
ENDBRANCH   1   8
BRANCH   3  20
ATOM     20  C   UNL     1       0.018  -2.906  -4.927  0.00  0.00    +0.164 C 
BRANCH  20  21
ATOM     21  C   UNL     1      -0.599  -2.063  -6.012  0.00  0.00    +0.248 A 
ATOM     22  N   UNL     1      -1.477  -2.468  -6.885  0.00  0.00    -0.190 NA
ATOM     23  C   UNL     1      -1.812  -1.456  -7.705  0.00  0.00    +0.202 A 
ATOM     24  N   UNL     1      -1.139  -0.390  -7.351  0.00  0.00    -0.056 NA
ATOM     25  O   UNL     1      -0.342  -0.768  -6.239  0.00  0.00    -0.336 OA
BRANCH  23  26
ATOM     26  C   UNL     1      -2.783  -1.535  -8.825  0.00  0.00    +0.022 A 
ATOM     27  C   UNL     1      -3.440  -2.733  -9.098  0.00  0.00    +0.012 A 
ATOM     28  C   UNL     1      -4.342  -2.800 -10.141  0.00  0.00    +0.001 A 
ATOM     29  C   UNL     1      -4.593  -1.682 -10.915  0.00  0.00    +0.000 A 
ATOM     30  C   UNL     1      -3.943  -0.490 -10.649  0.00  0.00    +0.001 A 
ATOM     31  C   UNL     1      -3.044  -0.410  -9.604  0.00  0.00    +0.012 A 
ENDBRANCH  23  26
ENDBRANCH  20  21
BRANCH  20  32
ATOM     32  C   UNL     1       1.459  -3.255  -5.309  0.00  0.00    +0.012 C 
ATOM     33  C   UNL     1       2.086  -4.111  -4.207  0.00  0.00    +0.009 C 
ATOM     34  C   UNL     1       1.463  -4.034  -6.626  0.00  0.00    +0.009 C 
ENDBRANCH  20  32
ENDBRANCH   3  20
TORSDOF 5
