REMARK  Name = ZINC18201301
REMARK  11 active torsions:
REMARK  status: ('A' for Active; 'I' for Inactive)
REMARK    1  A    between atoms: C_1  and  C_2
REMARK    2  A    between atoms: C_5  and  N_9
REMARK    3  A    between atoms: C_6  and  C_8
REMARK    4  A    between atoms: C_10  and  C_12
REMARK    5  A    between atoms: C_12  and  C_13
REMARK    6  A    between atoms: C_16  and  S_19
REMARK    7  A    between atoms: N_17  and  C_18
REMARK    8  A    between atoms: S_19  and  C_20
REMARK    9  A    between atoms: C_20  and  C_21
REMARK   10  A    between atoms: N_23  and  C_24
REMARK   11  A    between atoms: C_25  and  C_33
REMARK                            x       y       z     vdW  Elec       q    Type
REMARK                         _______ _______ _______ _____ _____    ______ ____
ROOT
ATOM      1  C   UNL     1      -3.981  12.309  -6.109  0.00  0.00    +0.143 A 
ATOM      2  N   UNL     1      -3.741  12.420  -4.833  0.00  0.00    -0.133 NA
ATOM      3  N   UNL     1      -3.412  11.278  -4.344  0.00  0.00    -0.122 NA
ATOM      4  C   UNL     1      -3.415  10.370  -5.292  0.00  0.00    +0.192 A 
ATOM      5  N   UNL     1      -3.782  10.999  -6.447  0.00  0.00    -0.309 N 
ATOM      6  C   UNL     1      -3.931  10.395  -7.774  0.00  0.00    +0.152 C 
ENDROOT
BRANCH   1   7
ATOM      7  C   UNL     1      -4.400  13.418  -7.039  0.00  0.00    +0.172 C 
BRANCH   7   9
ATOM      8  N   UNL     1      -6.509  14.434  -7.838  0.00  0.00    -0.285 N 
ATOM      9  C   UNL     1      -5.904  13.508  -7.069  0.00  0.00    +0.225 C 
ATOM     10  O   UNL     1      -6.570  12.746  -6.400  0.00  0.00    -0.275 OA
ATOM     11  H   UNL     1      -5.977  15.094  -8.310  0.00  0.00    +0.155 HD
BRANCH   8  16
ATOM     12  C   UNL     1     -12.162  14.474  -8.316  0.00  0.00    +0.044 C 
ATOM     13  C   UNL     1     -10.660  14.463  -8.189  0.00  0.00    -0.050 A 
ATOM     14  C   UNL     1     -10.003  13.290  -7.864  0.00  0.00    +0.005 A 
ATOM     15  C   UNL     1      -8.627  13.278  -7.746  0.00  0.00    +0.024 A 
ATOM     16  C   UNL     1      -7.903  14.444  -7.956  0.00  0.00    +0.036 A 
ATOM     17  C   UNL     1      -8.566  15.621  -8.277  0.00  0.00    -0.029 A 
ATOM     18  C   UNL     1      -9.942  15.626  -8.399  0.00  0.00    +0.008 A 
ATOM     19  C   UNL     1      -7.784  16.890  -8.500  0.00  0.00    +0.045 C 
ENDBRANCH   8  16
ENDBRANCH   7   9
ENDBRANCH   1   7
BRANCH   4  20
ATOM     20  S   UNL     1      -3.028   8.661  -5.107  0.00  0.00    -0.077 S 
BRANCH  20  21
ATOM     21  C   UNL     1      -2.653   8.614  -3.337  0.00  0.00    +0.173 C 
BRANCH  21  22
ATOM     22  C   UNL     1      -2.284   7.208  -2.939  0.00  0.00    +0.228 C 
ATOM     23  O   UNL     1      -2.275   6.325  -3.770  0.00  0.00    -0.275 OA
ATOM     24  N   UNL     1      -1.964   6.932  -1.659  0.00  0.00    -0.278 N 
ATOM     25  H   UNL     1      -1.971   7.638  -0.994  0.00  0.00    +0.155 HD
BRANCH  24  26
ATOM     26  C   UNL     1      -1.624   5.637  -1.293  0.00  0.00    +0.090 A 
ATOM     27  C   UNL     1      -1.268   5.162  -0.039  0.00  0.00    +0.084 A 
ATOM     28  C   UNL     1      -0.955   3.748   0.079  0.00  0.00    -0.018 A 
ATOM     29  C   UNL     1      -1.046   3.041  -1.068  0.00  0.00    -0.004 A 
ATOM     30  S   UNL     1      -1.540   4.223  -2.290  0.00  0.00    -0.077 S 
ATOM     31  C   UNL     1      -0.784   1.577  -1.250  0.00  0.00    +0.043 C 
ATOM     32  C   UNL     1      -0.030   1.064  -0.015  0.00  0.00    +0.005 C 
ATOM     33  C   UNL     1      -0.742   1.566   1.245  0.00  0.00    +0.005 C 
ATOM     34  C   UNL     1      -0.550   3.076   1.385  0.00  0.00    +0.037 C 
BRANCH  27  35
ATOM     35  C   UNL     1      -1.212   6.032   1.096  0.00  0.00    +0.102 C 
ATOM     36  N   UNL     1      -1.168   6.723   1.997  0.00  0.00    -0.191 NA
ENDBRANCH  27  35
ENDBRANCH  24  26
ENDBRANCH  21  22
ENDBRANCH  20  21
ENDBRANCH   4  20
TORSDOF 8
