REMARK  Name = ZINC09296361
REMARK  9 active torsions:
REMARK  status: ('A' for Active; 'I' for Inactive)
REMARK    1  A    between atoms: C_1  and  C_2
REMARK    2  A    between atoms: C_2  and  O_3
REMARK    3  A    between atoms: O_3  and  C_4
REMARK    4  A    between atoms: C_6  and  C_14
REMARK    5  A    between atoms: C_9  and  O_10
REMARK    6  A    between atoms: O_10  and  C_11
REMARK    7  A    between atoms: C_11  and  C_12
REMARK    8  A    between atoms: C_23  and  N_27
REMARK    9  A    between atoms: C_24  and  C_25
REMARK                            x       y       z     vdW  Elec       q    Type
REMARK                         _______ _______ _______ _____ _____    ______ ____
ROOT
ATOM      1  C   UNL     1       1.198   3.544   0.010  0.00  0.00    +0.098 C 
ATOM      2  C   UNL     1      -0.143   4.102  -0.386  0.00  0.00    +0.011 A 
ATOM      3  C   UNL     1      -0.239   5.426  -0.779  0.00  0.00    +0.057 A 
ATOM      4  C   UNL     1      -1.463   5.958  -1.147  0.00  0.00    +0.167 A 
ATOM      5  C   UNL     1      -2.603   5.157  -1.121  0.00  0.00    +0.170 A 
ATOM      6  C   UNL     1      -2.505   3.833  -0.728  0.00  0.00    +0.096 A 
ATOM      7  C   UNL     1      -1.275   3.304  -0.358  0.00  0.00    +0.138 A 
ATOM      8  O   UNL     1      -1.200   2.004   0.019  0.00  0.00    -0.441 OA
ATOM      9  C   UNL     1      -0.017   1.369   0.010  0.00  0.00    +0.199 C 
ATOM     10  C   UNL     1       1.159   2.042   0.002  0.00  0.00    +0.098 C 
ATOM     11  O   UNL     1      -3.671   5.905  -1.522  0.00  0.00    -0.452 OA
ATOM     12  C   UNL     1      -3.110   7.054  -2.184  0.00  0.00    +0.466 C 
ATOM     13  O   UNL     1      -1.819   7.208  -1.564  0.00  0.00    -0.453 OA
ENDROOT
BRANCH   1  16
ATOM     14  C   UNL     1       3.014   5.236   2.859  0.00  0.00    +0.163 A 
ATOM     15  C   UNL     1       2.688   4.790   1.588  0.00  0.00    +0.054 A 
ATOM     16  C   UNL     1       1.551   4.027   1.393  0.00  0.00    -0.030 A 
ATOM     17  C   UNL     1       0.735   3.711   2.463  0.00  0.00    +0.023 A 
ATOM     18  C   UNL     1       1.058   4.147   3.735  0.00  0.00    +0.063 A 
ATOM     19  C   UNL     1       2.196   4.913   3.937  0.00  0.00    +0.176 A 
ATOM     20 BR   UNL     1      -0.057   3.707   5.198  0.00  0.00    -0.046 Br
BRANCH  14  21
ATOM     21  O   UNL     1       4.131   5.986   3.051  0.00  0.00    -0.489 OA
BRANCH  21  23
ATOM     22  C   UNL     1       6.129   7.125   2.310  0.00  0.00    +0.048 C 
ATOM     23  C   UNL     1       4.924   6.278   1.899  0.00  0.00    +0.226 C 
ENDBRANCH  21  23
ENDBRANCH  14  21
BRANCH  19  24
ATOM     24  O   UNL     1       2.512   5.349   5.186  0.00  0.00    -0.487 OA
BRANCH  24  25
ATOM     25  C   UNL     1       1.984   6.616   5.584  0.00  0.00    +0.226 C 
ATOM     26  C   UNL     1       2.443   6.935   7.008  0.00  0.00    +0.048 C 
ENDBRANCH  24  25
ENDBRANCH  19  24
ENDBRANCH   1  16
BRANCH   9  27
ATOM     27  N   UNL     1       0.002  -0.004   0.002  0.00  0.00    -0.328 N 
ATOM     28  H   UNL     1       0.849  -0.478  -0.009  0.00  0.00    +0.145 HD
ATOM     29  H   UNL     1      -0.831  -0.500   0.007  0.00  0.00    +0.145 HD
ENDBRANCH   9  27
BRANCH  10  30
ATOM     30  C   UNL     1       2.388   1.307  -0.014  0.00  0.00    +0.101 C 
ATOM     31  N   UNL     1       3.363   0.725  -0.027  0.00  0.00    -0.191 NA
ENDBRANCH  10  30
TORSDOF 7
