REMARK  Name = ZINC25515378
REMARK  10 active torsions:
REMARK  status: ('A' for Active; 'I' for Inactive)
REMARK    1  A    between atoms: C_1  and  C_2
REMARK    2  A    between atoms: C_5  and  N_8
REMARK    3  A    between atoms: C_9  and  C_34
REMARK    4  A    between atoms: C_10  and  N_14
REMARK    5  A    between atoms: C_11  and  C_13
REMARK    6  A    between atoms: C_15  and  C_17
REMARK    7  A    between atoms: C_19  and  C_27
REMARK    8  A    between atoms: C_23  and  C_26
REMARK    9  A    between atoms: C_29  and  C_33
REMARK   10  A    between atoms: C_31  and  C_32
REMARK                            x       y       z     vdW  Elec       q    Type
REMARK                         _______ _______ _______ _____ _____    ______ ____
ROOT
ATOM      1  N   UNL     1      -3.801   2.439   0.262  0.00  0.00    -0.279 N 
ATOM      2  C   UNL     1      -5.062   2.283   0.712  0.00  0.00    +0.249 C 
ATOM      3  O   UNL     1      -5.314   2.461   1.887  0.00  0.00    -0.270 OA
ATOM      4  H   UNL     1      -3.584   2.342  -0.812  0.00  0.00    +0.155 HD
ENDROOT
BRANCH   2   5
ATOM      5  C   UNL     1      -6.139   1.896  -0.226  0.00  0.00    +0.053 A 
ATOM      6  C   UNL     1      -6.164   2.380  -1.530  0.00  0.00    +0.042 A 
ATOM      7  C   UNL     1      -7.200   1.988  -2.382  0.00  0.00    +0.079 A 
ATOM      8  N   UNL     1      -8.155   1.166  -1.973  0.00  0.00    -0.210 NA
ATOM      9  C   UNL     1      -8.179   0.677  -0.744  0.00  0.00    +0.260 A 
ATOM     10  C   UNL     1      -7.169   1.018   0.172  0.00  0.00    +0.076 A 
ATOM     11  C   UNL     1      -7.477   0.316   1.417  0.00  0.00    +0.091 A 
ATOM     12  N   UNL     1      -8.564  -0.367   1.217  0.00  0.00    -0.080 NA
ATOM     13  O   UNL     1      -9.023  -0.157  -0.103  0.00  0.00    -0.334 OA
ATOM     14  C   UNL     1      -6.681   0.374   2.695  0.00  0.00    +0.070 C 
BRANCH   7  15
ATOM     15  C   UNL     1      -7.230   2.501  -3.771  0.00  0.00    +0.041 A 
ATOM     16  C   UNL     1      -6.266   3.412  -4.401  0.00  0.00    +0.054 A 
ATOM     17  C   UNL     1      -6.698   3.596  -5.659  0.00  0.00    +0.103 A 
ATOM     18  O   UNL     1      -7.822   2.887  -5.844  0.00  0.00    -0.464 OA
ATOM     19  C   UNL     1      -8.153   2.221  -4.730  0.00  0.00    +0.111 A 
ATOM     20  C   UNL     1      -9.348   1.318  -4.565  0.00  0.00    +0.087 C 
ATOM     21  C   UNL     1      -6.028   4.460  -6.696  0.00  0.00    +0.086 C 
ENDBRANCH   7  15
ENDBRANCH   2   5
BRANCH   1  24
ATOM     22  N   UNL     1      -1.125   3.741   2.215  0.00  0.00    -0.235 N 
ATOM     23  C   UNL     1      -2.010   3.857   1.188  0.00  0.00    +0.063 A 
ATOM     24  C   UNL     1      -2.763   2.727   1.166  0.00  0.00    +0.078 A 
ATOM     25  C   UNL     1      -2.317   1.895   2.205  0.00  0.00    +0.082 A 
ATOM     26  N   UNL     1      -1.343   2.503   2.832  0.00  0.00    -0.169 NA
ATOM     27  C   UNL     1      -2.871   0.535   2.545  0.00  0.00    +0.069 C 
ATOM     28  C   UNL     1      -2.137   5.029   0.249  0.00  0.00    +0.068 C 
BRANCH  22  33
ATOM     29  C   UNL     1       2.758   7.592   3.730  0.00  0.00    +0.044 C 
ATOM     30  C   UNL     1       1.727   6.570   3.328  0.00  0.00    -0.050 A 
ATOM     31  C   UNL     1       1.100   5.805   4.294  0.00  0.00    +0.005 A 
ATOM     32  C   UNL     1       0.155   4.867   3.928  0.00  0.00    +0.028 A 
ATOM     33  C   UNL     1      -0.167   4.692   2.589  0.00  0.00    +0.066 A 
ATOM     34  C   UNL     1       0.468   5.458   1.620  0.00  0.00    +0.028 A 
ATOM     35  C   UNL     1       1.410   6.398   1.993  0.00  0.00    +0.005 A 
ENDBRANCH  22  33
ENDBRANCH   1  24
TORSDOF 4
