REMARK  Name = ZINC36591562
REMARK  12 active torsions:
REMARK  status: ('A' for Active; 'I' for Inactive)
REMARK    1  A    between atoms: C_1  and  C_2
REMARK    2  A    between atoms: C_5  and  S_8
REMARK    3  A    between atoms: S_8  and  C_11
REMARK    4  A    between atoms: C_11  and  N_12
REMARK    5  A    between atoms: C_13  and  C_15
REMARK    6  A    between atoms: C_15  and  C_17
REMARK    7  A    between atoms: C_15  and  N_24
REMARK    8  A    between atoms: N_24  and  C_34
REMARK    9  A    between atoms: C_25  and  C_27
REMARK   10  A    between atoms: C_34  and  C_35
REMARK   11  A    between atoms: C_34  and  C_36
REMARK   12  A    between atoms: C_34  and  C_37
REMARK                            x       y       z     vdW  Elec       q    Type
REMARK                         _______ _______ _______ _____ _____    ______ ____
ROOT
ATOM      1  C   UNL     1       3.207  -4.588   3.868  0.00  0.00    +0.193 C 
ENDROOT
BRANCH   1   2
ATOM      2  C   UNL     1       1.971  -3.767   3.602  0.00  0.00    -0.018 A 
ATOM      3  C   UNL     1       0.754  -4.393   3.409  0.00  0.00    +0.007 A 
ATOM      4  C   UNL     1      -0.380  -3.641   3.166  0.00  0.00    +0.020 A 
ATOM      5  C   UNL     1      -0.296  -2.261   3.116  0.00  0.00    +0.041 A 
ATOM      6  C   UNL     1       0.923  -1.635   3.309  0.00  0.00    +0.020 A 
ATOM      7  C   UNL     1       2.055  -2.388   3.558  0.00  0.00    +0.007 A 
ATOM      8 CL   UNL     1      -1.719  -1.315   2.810  0.00  0.00    -0.084 Cl
ENDBRANCH   1   2
BRANCH   1  10
ATOM      9  N   UNL     1       4.464  -3.283   2.185  0.00  0.00    -0.294 N 
ATOM     10  C   UNL     1       4.138  -4.490   2.687  0.00  0.00    +0.239 C 
ATOM     11  O   UNL     1       4.594  -5.497   2.189  0.00  0.00    -0.273 OA
ATOM     12  H   UNL     1       4.100  -2.477   2.583  0.00  0.00    +0.150 HD
BRANCH   9  13
ATOM     13  C   UNL     1       5.370  -3.187   1.037  0.00  0.00    +0.278 C 
BRANCH  13  14
ATOM     14  S   UNL     1       4.399  -3.079  -0.492  0.00  0.00    +0.013 S 
ATOM     15  O   UNL     1       3.381  -4.071  -0.496  0.00  0.00    -0.168 OA
ATOM     16  O   UNL     1       5.262  -2.922  -1.609  0.00  0.00    -0.168 OA
BRANCH  14  21
ATOM     17  C   UNL     1       1.439   2.163  -0.086  0.00  0.00    +0.044 C 
ATOM     18  C   UNL     1       2.179   0.854  -0.187  0.00  0.00    -0.050 A 
ATOM     19  C   UNL     1       3.430   0.810  -0.773  0.00  0.00    +0.005 A 
ATOM     20  C   UNL     1       4.108  -0.391  -0.865  0.00  0.00    +0.027 A 
ATOM     21  C   UNL     1       3.535  -1.548  -0.372  0.00  0.00    +0.090 A 
ATOM     22  C   UNL     1       2.284  -1.504   0.214  0.00  0.00    +0.027 A 
ATOM     23  C   UNL     1       1.608  -0.303   0.310  0.00  0.00    +0.005 A 
ENDBRANCH  14  21
ENDBRANCH  13  14
ENDBRANCH   9  13
ENDBRANCH   1  10
BRANCH   1  24
ATOM     24  N   UNL     1       2.828  -5.988   4.075  0.00  0.00    -0.279 N 
ATOM     25  C   UNL     1       2.351  -6.717   3.046  0.00  0.00    +0.237 C 
ATOM     26  O   UNL     1       2.148  -6.190   1.973  0.00  0.00    -0.274 OA
BRANCH  25  27
ATOM     27  C   UNL     1       2.069  -8.186   3.230  0.00  0.00    +0.159 C 
ATOM     28  C   UNL     1       3.297  -9.022   2.808  0.00  0.00    +0.041 C 
ATOM     29  C   UNL     1       2.967  -9.347   1.333  0.00  0.00    +0.098 C 
ATOM     30  C   UNL     1       1.458  -9.259   1.263  0.00  0.00    +0.214 C 
ATOM     31  O   UNL     1       0.777  -9.710   0.367  0.00  0.00    -0.276 OA
ATOM     32  N   UNL     1       0.981  -8.610   2.341  0.00  0.00    -0.304 N 
ATOM     33  H   UNL     1       0.040  -8.443   2.510  0.00  0.00    +0.149 HD
ENDBRANCH  25  27
BRANCH  24  34
ATOM     34  C   UNL     1       2.966  -6.596   5.401  0.00  0.00    +0.030 C 
ATOM     35  C   UNL     1       3.661  -5.611   6.343  0.00  0.00    +0.031 C 
ATOM     36  C   UNL     1       1.581  -6.939   5.952  0.00  0.00    +0.031 C 
ATOM     37  C   UNL     1       3.802  -7.873   5.291  0.00  0.00    +0.031 C 
ENDBRANCH  24  34
ENDBRANCH   1  24
TORSDOF 8
