REMARK  Name = ZINC28555964
REMARK  6 active torsions:
REMARK  status: ('A' for Active; 'I' for Inactive)
REMARK    1  A    between atoms: C_1  and  C_2
REMARK    2  A    between atoms: C_2  and  C_3
REMARK    3  A    between atoms: C_3  and  N_4
REMARK    4  A    between atoms: N_18  and  S_21
REMARK    5  A    between atoms: S_21  and  C_24
REMARK    6  A    between atoms: C_24  and  C_25
REMARK                            x       y       z     vdW  Elec       q    Type
REMARK                         _______ _______ _______ _____ _____    ______ ____
ROOT
ATOM      1  N   UNL     1       1.103   2.064   0.003  0.00  0.00    -0.280 N 
ATOM      2  C   UNL     1       2.329   1.493  -0.010  0.00  0.00    +0.263 A 
ATOM      3  O   UNL     1       3.341   2.171  -0.017  0.00  0.00    -0.267 OA
ATOM      4  C   UNL     1       2.397   0.027  -0.018  0.00  0.00    +0.069 A 
ATOM      5  C   UNL     1       3.615  -0.653  -0.031  0.00  0.00    +0.064 A 
ATOM      6  C   UNL     1       3.630  -2.033  -0.036  0.00  0.00    +0.163 A 
ATOM      7  C   UNL     1       2.431  -2.752  -0.028  0.00  0.00    +0.164 A 
ATOM      8  C   UNL     1       1.216  -2.092  -0.016  0.00  0.00    +0.078 A 
ATOM      9  C   UNL     1       1.182  -0.697  -0.010  0.00  0.00    +0.083 A 
ATOM     10  N   UNL     1       0.009  -0.017   0.003  0.00  0.00    -0.215 NA
ATOM     11  C   UNL     1      -0.022   1.291   0.010  0.00  0.00    +0.202 A 
ATOM     12  N   UNL     1      -1.245   1.916   0.018  0.00  0.00    -0.298 N 
ATOM     13  C   UNL     1      -2.028   1.526   1.198  0.00  0.00    +0.125 C 
ATOM     14  C   UNL     1      -3.301   2.376   1.266  0.00  0.00    +0.128 C 
ATOM     15  N   UNL     1      -4.010   2.258  -0.017  0.00  0.00    -0.178 NA
ATOM     16  C   UNL     1      -3.254   2.500  -1.255  0.00  0.00    +0.128 C 
ATOM     17  C   UNL     1      -1.983   1.645  -1.224  0.00  0.00    +0.125 C 
ATOM     18  O   UNL     1       2.440  -4.113  -0.029  0.00  0.00    -0.485 OA
ATOM     19  C   UNL     1       3.662  -4.749  -0.418  0.00  0.00    +0.270 C 
ATOM     20  C   UNL     1       4.819  -4.062   0.320  0.00  0.00    +0.270 C 
ATOM     21  O   UNL     1       4.829  -2.680  -0.052  0.00  0.00    -0.485 OA
ENDROOT
BRANCH  15  22
ATOM     22  S   UNL     1      -5.618   1.863  -0.067  0.00  0.00    +0.032 S 
ATOM     23  O   UNL     1      -6.137   2.301   1.181  0.00  0.00    -0.158 OA
ATOM     24  O   UNL     1      -6.091   2.422  -1.284  0.00  0.00    -0.158 OA
BRANCH  22  25
ATOM     25  C   UNL     1      -5.650   0.051  -0.156  0.00  0.00    +0.182 C 
ATOM     26  C   UNL     1      -7.101  -0.431  -0.207  0.00  0.00    +0.029 C 
ENDBRANCH  22  25
ENDBRANCH  15  22
BRANCH   1  27
ATOM     27  C   UNL     1       0.982   3.524   0.012  0.00  0.00    +0.128 C 
BRANCH  27  29
ATOM     28  C   UNL     1       0.827   5.544   1.473  0.00  0.00    +0.005 C 
ATOM     29  C   UNL     1       1.077   4.035   1.450  0.00  0.00    +0.018 C 
ENDBRANCH  27  29
ENDBRANCH   1  27
TORSDOF 4
