REMARK  Name = ZINC40138101
REMARK  10 active torsions:
REMARK  status: ('A' for Active; 'I' for Inactive)
REMARK    1  A    between atoms: C_1  and  C_2
REMARK    2  A    between atoms: C_7  and  O_8
REMARK    3  A    between atoms: O_8  and  C_9
REMARK    4  A    between atoms: C_9  and  C_10
REMARK    5  A    between atoms: C_10  and  N_11
REMARK    6  A    between atoms: N_19  and  N_20
REMARK    7  A    between atoms: C_21  and  C_23
REMARK    8  A    between atoms: C_23  and  O_24
REMARK    9  A    between atoms: O_24  and  C_25
REMARK   10  A    between atoms: C_30  and  C_31
REMARK                            x       y       z     vdW  Elec       q    Type
REMARK                         _______ _______ _______ _____ _____    ______ ____
ROOT
ATOM      1  N   UNL     1      -1.214   0.848   4.843  0.00  0.00    -0.262 N 
ATOM      2  C   UNL     1      -1.422   2.079   4.231  0.00  0.00    +0.046 A 
ATOM      3  C   UNL     1      -0.582   2.887   3.471  0.00  0.00    +0.025 A 
ATOM      4  C   UNL     1      -1.042   4.088   2.970  0.00  0.00    +0.017 A 
ATOM      5  C   UNL     1      -2.340   4.504   3.216  0.00  0.00    +0.019 A 
ATOM      6  C   UNL     1      -3.188   3.715   3.969  0.00  0.00    +0.027 A 
ATOM      7  C   UNL     1      -2.734   2.504   4.477  0.00  0.00    +0.029 A 
ATOM      8  C   UNL     1      -3.368   1.448   5.300  0.00  0.00    +0.153 C 
ATOM      9  N   UNL     1      -4.593   1.425   5.764  0.00  0.00    -0.174 NA
ATOM     10  C   UNL     1      -2.319   0.423   5.479  0.00  0.00    +0.271 C 
ATOM     11  O   UNL     1      -2.434  -0.619   6.096  0.00  0.00    -0.268 OA
ATOM     12 BR   UNL     1      -2.951   6.153   2.521  0.00  0.00    -0.050 Br
ENDROOT
BRANCH   9  13
ATOM     13  N   UNL     1      -5.032   0.339   6.533  0.00  0.00    -0.203 N 
ATOM     14  C   UNL     1      -6.292   0.316   7.010  0.00  0.00    +0.270 C 
ATOM     15  O   UNL     1      -7.046   1.235   6.774  0.00  0.00    -0.270 OA
ATOM     16  H   UNL     1      -4.428  -0.397   6.721  0.00  0.00    +0.177 HD
BRANCH  14  17
ATOM     17  C   UNL     1      -6.763  -0.853   7.836  0.00  0.00    +0.326 C 
BRANCH  17  18
ATOM     18  O   UNL     1      -8.124  -0.646   8.222  0.00  0.00    -0.482 OA
BRANCH  18  19
ATOM     19  C   UNL     1      -8.705  -1.615   8.977  0.00  0.00    +0.124 A 
ATOM     20  C   UNL     1      -7.979  -2.739   9.345  0.00  0.00    +0.046 A 
ATOM     21  C   UNL     1      -8.573  -3.721  10.113  0.00  0.00    +0.004 A 
ATOM     22  C   UNL     1      -9.889  -3.586  10.515  0.00  0.00    +0.000 A 
ATOM     23  C   UNL     1     -10.614  -2.467  10.150  0.00  0.00    +0.007 A 
ATOM     24  C   UNL     1     -10.024  -1.479   9.386  0.00  0.00    -0.009 A 
ATOM     25  C   UNL     1     -10.813  -0.256   8.994  0.00  0.00    +0.047 C 
ENDBRANCH  18  19
ENDBRANCH  17  18
ENDBRANCH  14  17
ENDBRANCH   9  13
BRANCH   1  26
ATOM     26  C   UNL     1       0.047   0.104   4.793  0.00  0.00    +0.155 C 
BRANCH  26  27
ATOM     27  C   UNL     1       0.048  -0.820   3.574  0.00  0.00    +0.248 C 
BRANCH  27  28
ATOM     28  O   UNL     1       0.025  -0.033   2.381  0.00  0.00    -0.490 OA
BRANCH  28  35
ATOM     29  C   UNL     1      -0.018   1.503   0.010  0.00  0.00    +0.047 C 
ATOM     30  C   UNL     1       0.002  -0.004   0.002  0.00  0.00    -0.009 A 
ATOM     31  C   UNL     1       0.006  -0.689  -1.198  0.00  0.00    +0.007 A 
ATOM     32  C   UNL     1       0.024  -2.071  -1.206  0.00  0.00    +0.000 A 
ATOM     33  C   UNL     1       0.039  -2.772  -0.014  0.00  0.00    +0.004 A 
ATOM     34  C   UNL     1       0.036  -2.092   1.188  0.00  0.00    +0.046 A 
ATOM     35  C   UNL     1       0.023  -0.705   1.199  0.00  0.00    +0.123 A 
ENDBRANCH  28  35
ENDBRANCH  27  28
ENDBRANCH  26  27
ENDBRANCH   1  26
TORSDOF 8
