REMARK  Name = ZINC38664330
REMARK  8 active torsions:
REMARK  status: ('A' for Active; 'I' for Inactive)
REMARK    1  A    between atoms: C_1  and  C_2
REMARK    2  A    between atoms: C_2  and  C_3
REMARK    3  A    between atoms: N_5  and  C_6
REMARK    4  A    between atoms: C_6  and  C_7
REMARK    5  A    between atoms: C_7  and  C_8
REMARK    6  A    between atoms: C_16  and  C_18
REMARK    7  A    between atoms: N_25  and  C_28
REMARK    8  A    between atoms: C_32  and  C_34
REMARK                            x       y       z     vdW  Elec       q    Type
REMARK                         _______ _______ _______ _____ _____    ______ ____
ROOT
ATOM      1  C   UNL     1       3.279  -5.346  -4.845  0.00  0.00    -0.033 C 
ATOM      2  C   UNL     1       3.750  -4.710  -5.942  0.00  0.00    -0.000 A 
ATOM      3  C   UNL     1       4.231  -3.342  -6.169  0.00  0.00    +0.010 A 
ATOM      4  C   UNL     1       4.648  -2.990  -7.407  0.00  0.00    +0.001 A 
ATOM      5  C   UNL     1       4.632  -3.897  -8.476  0.00  0.00    +0.002 A 
ATOM      6  C   UNL     1       4.204  -5.171  -8.345  0.00  0.00    +0.026 A 
ATOM      7  C   UNL     1       3.744  -5.649  -7.087  0.00  0.00    +0.043 A 
ATOM      8  N   UNL     1       3.287  -6.819  -6.713  0.00  0.00    -0.374 N 
ATOM      9  C   UNL     1       2.957  -6.757  -5.284  0.00  0.00    +0.130 C 
ATOM     10  H   UNL     1       3.187  -7.597  -7.283  0.00  0.00    +0.161 HD
ENDROOT
BRANCH   9  11
ATOM     11  C   UNL     1       1.491  -7.042  -5.080  0.00  0.00    +0.020 C 
ATOM     12  C   UNL     1       1.097  -7.891  -4.104  0.00  0.00    +0.100 C 
ATOM     13  C   UNL     1      -0.308  -8.339  -3.987  0.00  0.00    +0.276 C 
ATOM     14  O   UNL     1      -1.244  -7.911  -4.858  0.00  0.00    -0.268 OA
ATOM     15  N   UNL     1      -0.622  -9.169  -3.011  0.00  0.00    -0.123 NA
ATOM     16  C   UNL     1       0.281  -9.610  -2.136  0.00  0.00    +0.340 C 
ATOM     17  O   UNL     1      -0.091 -10.374  -1.264  0.00  0.00    -0.250 OA
ATOM     18  N   UNL     1       1.575  -9.261  -2.160  0.00  0.00    -0.188 N 
ATOM     19  C   UNL     1       2.055  -8.421  -3.103  0.00  0.00    +0.263 C 
ATOM     20  O   UNL     1       3.229  -8.108  -3.128  0.00  0.00    -0.269 OA
BRANCH  18  21
ATOM     21  C   UNL     1       2.446  -9.780  -1.193  0.00  0.00    +0.046 A 
ATOM     22  C   UNL     1       2.675  -9.080  -0.015  0.00  0.00    +0.024 A 
ATOM     23  C   UNL     1       3.534  -9.595   0.936  0.00  0.00    +0.002 A 
ATOM     24  C   UNL     1       4.165 -10.806   0.717  0.00  0.00    +0.003 A 
ATOM     25  C   UNL     1       3.940 -11.504  -0.455  0.00  0.00    -0.049 A 
ATOM     26  C   UNL     1       3.077 -10.997  -1.407  0.00  0.00    +0.027 A 
ATOM     27  C   UNL     1       4.631 -12.822  -0.690  0.00  0.00    +0.044 C 
ENDBRANCH  18  21
ENDBRANCH   9  11
BRANCH   1  28
ATOM     28  C   UNL     1       3.115  -4.767  -3.464  0.00  0.00    +0.052 C 
BRANCH  28  29
ATOM     29  C   UNL     1       3.563  -3.304  -3.467  0.00  0.00    +0.108 C 
BRANCH  29  32
ATOM     30  C   UNL     1       3.737  -1.457  -1.887  0.00  0.00    +0.213 C 
ATOM     31  O   UNL     1       4.170  -0.767  -2.786  0.00  0.00    -0.276 OA
ATOM     32  N   UNL     1       3.404  -2.741  -2.124  0.00  0.00    -0.315 N 
ATOM     33  H   UNL     1       3.058  -3.293  -1.405  0.00  0.00    +0.149 HD
BRANCH  30  35
ATOM     34  C   UNL     1       4.021   0.585  -0.509  0.00  0.00    +0.013 C 
ATOM     35  C   UNL     1       3.573  -0.879  -0.505  0.00  0.00    +0.092 C 
ENDBRANCH  30  35
ENDBRANCH  29  32
ENDBRANCH  28  29
ENDBRANCH   1  28
TORSDOF 6
