REMARK  Name = ZINC58961621
REMARK  14 active torsions:
REMARK  status: ('A' for Active; 'I' for Inactive)
REMARK    1  A    between atoms: C_1  and  C_2
REMARK    2  A    between atoms: C_2  and  N_3
REMARK    3  A    between atoms: N_3  and  C_4
REMARK    4  A    between atoms: N_3  and  C_6
REMARK    5  A    between atoms: C_4  and  C_5
REMARK    6  A    between atoms: C_6  and  C_7
REMARK    7  A    between atoms: C_7  and  C_8
REMARK    8  A    between atoms: C_8  and  N_9
REMARK    9  A    between atoms: C_10  and  C_12
REMARK   10  A    between atoms: C_12  and  C_14
REMARK   11  A    between atoms: C_12  and  S_15
REMARK   12  A    between atoms: S_15  and  C_16
REMARK   13  A    between atoms: C_18  and  C_26
REMARK   14  A    between atoms: C_20  and  C_22
REMARK                            x       y       z     vdW  Elec       q    Type
REMARK                         _______ _______ _______ _____ _____    ______ ____
ROOT
ATOM      1  C   UNL     1      -6.785  -7.088  -3.279  0.00  0.00    +0.190 A 
ATOM      2  N   UNL     1      -7.320  -8.149  -3.864  0.00  0.00    -0.222 NA
ATOM      3  C   UNL     1      -8.639  -8.247  -4.012  0.00  0.00    +0.077 A 
ATOM      4  C   UNL     1      -9.453  -7.213  -3.540  0.00  0.00    +0.060 A 
ATOM      5  C   UNL     1      -8.851  -6.125  -2.935  0.00  0.00    +0.148 A 
ATOM      6  N   UNL     1      -7.533  -6.096  -2.817  0.00  0.00    -0.218 NA
ENDROOT
BRANCH   3   7
ATOM      7  C   UNL     1      -9.236  -9.435  -4.668  0.00  0.00    +0.019 A 
ATOM      8  C   UNL     1     -10.619  -9.527  -4.824  0.00  0.00    +0.013 A 
ATOM      9  C   UNL     1     -11.170 -10.635  -5.435  0.00  0.00    +0.021 A 
ATOM     10  C   UNL     1     -10.352 -11.655  -5.893  0.00  0.00    +0.042 A 
ATOM     11  C   UNL     1      -8.979 -11.569  -5.742  0.00  0.00    +0.040 A 
ATOM     12  C   UNL     1      -8.417 -10.462  -5.136  0.00  0.00    +0.052 A 
ATOM     13 CL   UNL     1      -6.694 -10.352  -4.954  0.00  0.00    -0.083 Cl
ATOM     14 CL   UNL     1     -11.053 -13.045  -6.661  0.00  0.00    -0.083 Cl
ENDBRANCH   3   7
BRANCH   5  15
ATOM     15  C   UNL     1      -9.688  -4.986  -2.411  0.00  0.00    +0.434 C 
ATOM     16  F   UNL     1     -10.033  -5.235  -1.079  0.00  0.00    -0.164 F 
ATOM     17  F   UNL     1      -8.956  -3.796  -2.488  0.00  0.00    -0.164 F 
ATOM     18  F   UNL     1     -10.850  -4.869  -3.180  0.00  0.00    -0.164 F 
ENDBRANCH   5  15
BRANCH   1  19
ATOM     19  S   UNL     1      -5.034  -6.997  -3.102  0.00  0.00    -0.074 S 
BRANCH  19  20
ATOM     20  C   UNL     1      -4.760  -5.415  -2.259  0.00  0.00    +0.137 C 
ATOM     21  C   UNL     1      -5.369  -5.472  -0.856  0.00  0.00    +0.029 C 
BRANCH  20  23
ATOM     22  N   UNL     1      -2.831  -3.899  -1.943  0.00  0.00    -0.314 N 
ATOM     23  C   UNL     1      -3.280  -5.152  -2.153  0.00  0.00    +0.226 C 
ATOM     24  O   UNL     1      -2.492  -6.069  -2.256  0.00  0.00    -0.275 OA
ATOM     25  H   UNL     1      -3.461  -3.166  -1.860  0.00  0.00    +0.149 HD
BRANCH  22  26
ATOM     26  C   UNL     1      -1.392  -3.644  -1.840  0.00  0.00    +0.102 C 
BRANCH  26  27
ATOM     27  C   UNL     1      -1.155  -2.151  -1.603  0.00  0.00    +0.000 C 
BRANCH  27  28
ATOM     28  C   UNL     1       0.348  -1.884  -1.496  0.00  0.00    -0.077 C 
BRANCH  28  29
ATOM     29  N   UNL     1       0.576  -0.451  -1.269  0.00  0.00    +0.379 N 
ATOM     30  H   UNL     1       0.124   0.081  -1.998  0.00  0.00    -0.082 HD
BRANCH  29  32
ATOM     31  C   UNL     1       0.128   1.449   0.210  0.00  0.00    -0.017 C 
ATOM     32  C   UNL     1       0.019  -0.067   0.035  0.00  0.00    -0.082 C 
ENDBRANCH  29  32
BRANCH  29  33
ATOM     33  C   UNL     1       2.019  -0.176  -1.285  0.00  0.00    -0.082 C 
ATOM     34  C   UNL     1       2.573  -0.440  -2.687  0.00  0.00    -0.017 C 
ENDBRANCH  29  33
ENDBRANCH  28  29
ENDBRANCH  27  28
ENDBRANCH  26  27
ENDBRANCH  22  26
ENDBRANCH  20  23
ENDBRANCH  19  20
ENDBRANCH   1  19
TORSDOF 11
