REMARK  Name = ZINC30529753
REMARK  5 active torsions:
REMARK  status: ('A' for Active; 'I' for Inactive)
REMARK    1  A    between atoms: C_1  and  C_2
REMARK    2  A    between atoms: C_3  and  N_18
REMARK    3  A    between atoms: C_7  and  S_8
REMARK    4  A    between atoms: S_8  and  N_11
REMARK    5  A    between atoms: N_11  and  C_12
REMARK                            x       y       z     vdW  Elec       q    Type
REMARK                         _______ _______ _______ _____ _____    ______ ____
ROOT
ATOM      1  S   UNL     1       5.271  -0.090  -1.155  0.00  0.00    +0.073 S 
ATOM      2  O   UNL     1       6.531  -0.735  -1.037  0.00  0.00    -0.150 OA
ATOM      3  O   UNL     1       4.618   0.086  -2.405  0.00  0.00    -0.150 OA
ENDROOT
BRANCH   1  10
ATOM      4  C   UNL     1       3.025   1.916  -0.872  0.00  0.00    +0.048 C 
ATOM      5  C   UNL     1       4.372   2.365  -0.368  0.00  0.00    +0.006 A 
ATOM      6  C   UNL     1       4.520   3.624   0.184  0.00  0.00    +0.131 A 
ATOM      7  C   UNL     1       5.757   4.037   0.641  0.00  0.00    +0.033 A 
ATOM      8  C   UNL     1       6.846   3.190   0.549  0.00  0.00    +0.004 A 
ATOM      9  C   UNL     1       6.698   1.930   0.001  0.00  0.00    +0.029 A 
ATOM     10  C   UNL     1       5.460   1.516  -0.456  0.00  0.00    +0.114 A 
BRANCH   6  11
ATOM     11  N   UNL     1       3.354   4.530   0.282  0.00  0.00    +0.057 N 
ATOM     12  O   UNL     1       3.470   5.614   0.827  0.00  0.00    -0.126 OA
ATOM     13  O   UNL     1       2.280   4.193  -0.183  0.00  0.00    -0.126 OA
ENDBRANCH   6  11
ENDBRANCH   1  10
BRANCH   1  14
ATOM     14  N   UNL     1       4.219  -0.925  -0.185  0.00  0.00    -0.216 N 
ATOM     15  H   UNL     1       3.265  -1.289  -0.595  0.00  0.00    +0.174 HD
BRANCH  14  16
ATOM     16  C   UNL     1       4.544  -1.167   1.151  0.00  0.00    +0.048 A 
ATOM     17  C   UNL     1       3.602  -0.943   2.148  0.00  0.00    +0.024 A 
ATOM     18  C   UNL     1       3.926  -1.183   3.469  0.00  0.00    +0.002 A 
ATOM     19  C   UNL     1       5.186  -1.646   3.800  0.00  0.00    +0.000 A 
ATOM     20  C   UNL     1       6.126  -1.870   2.810  0.00  0.00    +0.002 A 
ATOM     21  C   UNL     1       5.809  -1.632   1.488  0.00  0.00    +0.024 A 
ENDBRANCH  14  16
ENDBRANCH   1  14
TORSDOF 4
