REMARK  Name = ZINC12075368
REMARK  7 active torsions:
REMARK  status: ('A' for Active; 'I' for Inactive)
REMARK    1  A    between atoms: C_1  and  C_2
REMARK    2  A    between atoms: C_3  and  C_17
REMARK    3  A    between atoms: C_5  and  C_7
REMARK    4  A    between atoms: C_17  and  N_53
REMARK    5  A    between atoms: C_20  and  C_23
REMARK    6  A    between atoms: C_23  and  C_25
REMARK    7  A    between atoms: C_23  and  O_30
REMARK                            x       y       z     vdW  Elec       q    Type
REMARK                         _______ _______ _______ _____ _____    ______ ____
ROOT
ATOM      1  C   UNL     1      -0.013   1.086   0.008  0.00  0.00    +0.088 C 
ATOM      2  C   UNL     1      -0.718   1.572   1.248  0.00  0.00    +0.124 A 
ATOM      3  C   UNL     1      -0.148   1.839   2.436  0.00  0.00    +0.066 A 
ATOM      4  N   UNL     1      -1.115   2.245   3.274  0.00  0.00    -0.216 NA
ATOM      5  C   UNL     1      -2.259   2.234   2.631  0.00  0.00    +0.229 A 
ATOM      6  O   UNL     1      -2.037   1.825   1.370  0.00  0.00    -0.440 OA
ENDROOT
BRANCH   5   7
ATOM      7  C   UNL     1      -3.570   2.614   3.196  0.00  0.00    +0.059 A 
ATOM      8  C   UNL     1      -4.717   2.563   2.401  0.00  0.00    +0.064 A 
ATOM      9  C   UNL     1      -5.942   2.914   2.934  0.00  0.00    +0.167 A 
ATOM     10  C   UNL     1      -6.031   3.328   4.263  0.00  0.00    +0.168 A 
ATOM     11  C   UNL     1      -4.892   3.384   5.052  0.00  0.00    +0.070 A 
ATOM     12  C   UNL     1      -3.665   3.030   4.526  0.00  0.00    +0.057 A 
ATOM     13 CL   UNL     1      -2.242   3.102   5.518  0.00  0.00    -0.083 Cl
ATOM     14  O   UNL     1      -7.335   3.620   4.542  0.00  0.00    -0.453 OA
ATOM     15  C   UNL     1      -8.102   2.992   3.497  0.00  0.00    +0.466 C 
ATOM     16  O   UNL     1      -7.191   2.947   2.383  0.00  0.00    -0.453 OA
ENDBRANCH   5   7
BRANCH   3  17
ATOM     17  C   UNL     1       1.316   1.706   2.768  0.00  0.00    -0.019 C 
BRANCH  17  23
ATOM     18  C   UNL     1       1.988   3.264   1.042  0.00  0.00    -0.078 C 
ATOM     19  C   UNL     1       2.578   4.655   0.797  0.00  0.00    -0.012 C 
ATOM     20  C   UNL     1       4.011   4.698   1.333  0.00  0.00    +0.019 C 
ATOM     21  C   UNL     1       4.001   4.345   2.823  0.00  0.00    -0.012 C 
ATOM     22  C   UNL     1       3.370   2.963   3.010  0.00  0.00    -0.078 C 
ATOM     23  N   UNL     1       1.984   2.995   2.496  0.00  0.00    +0.383 N 
ATOM     24  H   UNL     1       1.470   3.744   2.972  0.00  0.00    -0.081 HD
BRANCH  20  25
ATOM     25  C   UNL     1       4.585   6.104   1.145  0.00  0.00    +0.154 C 
BRANCH  25  26
ATOM     26  C   UNL     1       4.594   6.451  -0.321  0.00  0.00    +0.018 A 
ATOM     27  C   UNL     1       3.717   7.207  -1.025  0.00  0.00    +0.014 A 
ATOM     28  C   UNL     1       3.929   7.396  -2.378  0.00  0.00    +0.008 A 
ATOM     29  C   UNL     1       5.003   6.810  -2.963  0.00  0.00    +0.045 A 
ATOM     30  S   UNL     1       5.760   5.966  -1.584  0.00  0.00    -0.099 S 
ENDBRANCH  25  26
BRANCH  25  31
ATOM     31  O   UNL     1       5.920   6.145   1.653  0.00  0.00    -0.386 OA
ATOM     32  H   UNL     1       6.526   5.529   1.218  0.00  0.00    +0.210 HD
ENDBRANCH  25  31
ENDBRANCH  20  25
ENDBRANCH  17  23
ENDBRANCH   3  17
TORSDOF 6
