REMARK  Name = ZINC36609329
REMARK  17 active torsions:
REMARK  status: ('A' for Active; 'I' for Inactive)
REMARK    1  A    between atoms: C_1  and  C_2
REMARK    2  A    between atoms: C_5  and  C_9
REMARK    3  A    between atoms: C_6  and  C_8
REMARK    4  A    between atoms: C_9  and  C_11
REMARK    5  A    between atoms: C_9  and  N_22
REMARK    6  A    between atoms: N_13  and  C_14
REMARK    7  A    between atoms: C_14  and  C_15
REMARK    8  A    between atoms: C_14  and  C_16
REMARK    9  A    between atoms: C_14  and  C_17
REMARK   10  A    between atoms: C_17  and  C_18
REMARK   11  A    between atoms: C_18  and  C_19
REMARK   12  A    between atoms: C_18  and  C_20
REMARK   13  A    between atoms: C_18  and  C_21
REMARK   14  A    between atoms: N_22  and  C_23
REMARK   15  A    between atoms: C_29  and  C_31
REMARK   16  A    between atoms: C_33  and  N_38
REMARK   17  A    between atoms: C_36  and  O_37
REMARK                            x       y       z     vdW  Elec       q    Type
REMARK                         _______ _______ _______ _____ _____    ______ ____
ROOT
ATOM      1  C   UNL     1       1.653  -5.709   0.026  0.00  0.00    +0.198 C 
ENDROOT
BRANCH   1   6
ATOM      2  C   UNL     1       6.601  -3.125  -1.470  0.00  0.00    +0.044 C 
ATOM      3  C   UNL     1       5.310  -3.799  -1.080  0.00  0.00    -0.050 A 
ATOM      4  C   UNL     1       5.334  -4.931  -0.287  0.00  0.00    +0.004 A 
ATOM      5  C   UNL     1       4.150  -5.549   0.071  0.00  0.00    +0.006 A 
ATOM      6  C   UNL     1       2.943  -5.034  -0.364  0.00  0.00    -0.015 A 
ATOM      7  C   UNL     1       2.919  -3.902  -1.155  0.00  0.00    -0.045 A 
ATOM      8  C   UNL     1       4.103  -3.281  -1.510  0.00  0.00    +0.007 A 
ATOM      9  C   UNL     1       1.603  -3.341  -1.630  0.00  0.00    +0.044 C 
ENDBRANCH   1   6
BRANCH   1  10
ATOM     10  C   UNL     1       1.878  -6.555   1.252  0.00  0.00    +0.239 C 
ATOM     11  O   UNL     1       1.962  -7.761   1.149  0.00  0.00    -0.273 OA
ATOM     12  N   UNL     1       1.987  -5.973   2.462  0.00  0.00    -0.308 N 
ATOM     13  H   UNL     1       1.853  -5.017   2.554  0.00  0.00    +0.149 HD
BRANCH  12  14
ATOM     14  C   UNL     1       2.308  -6.784   3.639  0.00  0.00    +0.030 C 
ATOM     15  C   UNL     1       1.187  -7.798   3.880  0.00  0.00    +0.031 C 
ATOM     16  C   UNL     1       3.625  -7.526   3.404  0.00  0.00    +0.031 C 
BRANCH  14  17
ATOM     17  C   UNL     1       2.445  -5.876   4.863  0.00  0.00    +0.031 C 
BRANCH  17  18
ATOM     18  C   UNL     1       3.100  -4.557   4.447  0.00  0.00    -0.036 C 
ATOM     19  C   UNL     1       2.028  -3.598   3.926  0.00  0.00    +0.010 C 
ATOM     20  C   UNL     1       3.799  -3.932   5.656  0.00  0.00    +0.010 C 
ATOM     21  C   UNL     1       4.127  -4.822   3.345  0.00  0.00    +0.010 C 
ENDBRANCH  17  18
ENDBRANCH  14  17
ENDBRANCH  12  14
ENDBRANCH   1  10
BRANCH   1  22
ATOM     22  N   UNL     1       1.193  -6.558  -1.077  0.00  0.00    -0.251 N 
ATOM     23  C   UNL     1      -0.047  -6.397  -1.579  0.00  0.00    +0.255 C 
ATOM     24  O   UNL     1      -0.819  -5.617  -1.056  0.00  0.00    -0.269 OA
BRANCH  22  25
ATOM     25  C   UNL     1       2.042  -7.534  -1.607  0.00  0.00    +0.038 A 
ATOM     26  C   UNL     1       3.193  -7.160  -2.289  0.00  0.00    +0.023 A 
ATOM     27  C   UNL     1       4.029  -8.127  -2.812  0.00  0.00    +0.002 A 
ATOM     28  C   UNL     1       3.722  -9.466  -2.657  0.00  0.00    +0.000 A 
ATOM     29  C   UNL     1       2.577  -9.842  -1.979  0.00  0.00    +0.002 A 
ATOM     30  C   UNL     1       1.739  -8.880  -1.449  0.00  0.00    +0.023 A 
ENDBRANCH  22  25
BRANCH  23  31
ATOM     31  C   UNL     1      -0.469  -7.169  -2.763  0.00  0.00    +0.081 A 
ATOM     32  C   UNL     1       0.476  -7.577  -3.709  0.00  0.00    +0.049 A 
ATOM     33  C   UNL     1       0.075  -8.297  -4.813  0.00  0.00    +0.127 A 
ATOM     34  C   UNL     1      -1.260  -8.621  -4.990  0.00  0.00    +0.036 A 
ATOM     35  C   UNL     1      -2.204  -8.225  -4.063  0.00  0.00    +0.048 A 
ATOM     36  C   UNL     1      -1.818  -7.504  -2.943  0.00  0.00    +0.129 A 
BRANCH  33  37
ATOM     37  N   UNL     1       1.077  -8.727  -5.814  0.00  0.00    +0.056 N 
ATOM     38  O   UNL     1       2.227  -8.368  -5.713  0.00  0.00    -0.126 OA
ATOM     39  O   UNL     1       0.745  -9.439  -6.734  0.00  0.00    -0.126 OA
ENDBRANCH  33  37
BRANCH  36  40
ATOM     40  O   UNL     1      -2.743  -7.119  -2.028  0.00  0.00    -0.506 OA
ATOM     41  H   UNL     1      -3.138  -6.255  -2.208  0.00  0.00    +0.292 HD
ENDBRANCH  36  40
ENDBRANCH  23  31
ENDBRANCH   1  22
TORSDOF 10
