REMARK  Name = ZINC63709754
REMARK  6 active torsions:
REMARK  status: ('A' for Active; 'I' for Inactive)
REMARK    1  A    between atoms: C_1  and  C_2
REMARK    2  A    between atoms: C_4  and  N_8
REMARK    3  A    between atoms: C_9  and  C_11
REMARK    4  A    between atoms: C_11  and  S_12
REMARK    5  A    between atoms: S_12  and  C_13
REMARK    6  A    between atoms: N_23  and  C_24
REMARK                            x       y       z     vdW  Elec       q    Type
REMARK                         _______ _______ _______ _____ _____    ______ ____
ROOT
ATOM      1  C   UNL     1      -2.893  -7.316  -3.492  0.00  0.00    +0.223 C 
ATOM      2  N   UNL     1      -1.721  -7.365  -4.377  0.00  0.00    -0.316 N 
ATOM      3  C   UNL     1      -1.392  -6.177  -5.059  0.00  0.00    +0.048 A 
ATOM      4  C   UNL     1      -0.170  -5.776  -5.556  0.00  0.00    +0.031 A 
ATOM      5  C   UNL     1      -0.069  -4.583  -6.193  0.00  0.00    +0.048 A 
ATOM      6  S   UNL     1      -1.628  -3.947  -6.146  0.00  0.00    -0.090 S 
ATOM      7  C   UNL     1      -2.429  -5.255  -5.279  0.00  0.00    +0.095 A 
ATOM      8  C   UNL     1      -3.746  -5.450  -4.853  0.00  0.00    +0.257 C 
ATOM      9  O   UNL     1      -4.639  -4.684  -5.170  0.00  0.00    -0.269 OA
ATOM     10  N   UNL     1      -3.982  -6.532  -4.070  0.00  0.00    -0.267 N 
ATOM     11  H   UNL     1      -1.199  -8.176  -4.486  0.00  0.00    +0.149 HD
ENDROOT
BRANCH  10  12
ATOM     12  C   UNL     1      -5.367  -6.923  -3.796  0.00  0.00    +0.079 C 
ATOM     13  C   UNL     1      -6.076  -7.243  -5.114  0.00  0.00    +0.022 C 
ATOM     14  C   UNL     1      -7.522  -7.652  -4.828  0.00  0.00    +0.002 C 
ATOM     15  C   UNL     1      -8.248  -6.503  -4.123  0.00  0.00    +0.000 C 
ATOM     16  C   UNL     1      -7.538  -6.184  -2.806  0.00  0.00    +0.002 C 
ATOM     17  C   UNL     1      -6.092  -5.775  -3.092  0.00  0.00    +0.022 C 
ENDBRANCH  10  12
BRANCH   1  18
ATOM     18  S   UNL     1      -2.407  -6.573  -1.910  0.00  0.00    -0.110 S 
BRANCH  18  19
ATOM     19  C   UNL     1      -1.851  -4.906  -2.361  0.00  0.00    +0.168 C 
BRANCH  19  21
ATOM     20  N   UNL     1      -0.957  -2.905  -1.213  0.00  0.00    -0.288 N 
ATOM     21  C   UNL     1      -1.413  -4.170  -1.120  0.00  0.00    +0.225 C 
ATOM     22  O   UNL     1      -1.470  -4.717  -0.039  0.00  0.00    -0.275 OA
ATOM     23  H   UNL     1      -0.911  -2.468  -2.078  0.00  0.00    +0.151 HD
BRANCH  20  27
ATOM     24  C   UNL     1      -0.018   1.503   0.010  0.00  0.00    +0.067 C 
ATOM     25  C   UNL     1       0.002  -0.004   0.002  0.00  0.00    +0.060 C 
ATOM     26  C   UNL     1      -1.086  -0.777   0.003  0.00  0.00    +0.045 C 
ATOM     27  C   UNL     1      -0.531  -2.190  -0.007  0.00  0.00    +0.239 C 
ATOM     28  N   UNL     1       0.926  -1.973  -0.013  0.00  0.00    -0.160 NA
ATOM     29  N   UNL     1       1.125  -0.756  -0.013  0.00  0.00    -0.157 NA
ENDBRANCH  20  27
ENDBRANCH  19  21
ENDBRANCH  18  19
ENDBRANCH   1  18
TORSDOF 5
