REMARK  Name = ZINC64502422
REMARK  6 active torsions:
REMARK  status: ('A' for Active; 'I' for Inactive)
REMARK    1  A    between atoms: C_1  and  C_2
REMARK    2  A    between atoms: C_2  and  C_3
REMARK    3  A    between atoms: C_2  and  C_4
REMARK    4  A    between atoms: N_6  and  C_7
REMARK    5  A    between atoms: C_12  and  N_17
REMARK    6  A    between atoms: C_18  and  C_20
REMARK                            x       y       z     vdW  Elec       q    Type
REMARK                         _______ _______ _______ _____ _____    ______ ____
ROOT
ATOM      1  C   UNL     1       0.998  -0.700   3.645  0.00  0.00    +0.224 C 
ATOM      2  N   UNL     1       0.507  -0.026   4.855  0.00  0.00    -0.316 N 
ATOM      3  C   UNL     1      -0.081  -0.817   5.840  0.00  0.00    +0.044 A 
ATOM      4  C   UNL     1      -0.604  -0.349   7.059  0.00  0.00    +0.047 A 
ATOM      5  C   UNL     1      -1.169  -1.216   7.973  0.00  0.00    +0.035 A 
ATOM      6  C   UNL     1      -1.236  -2.579   7.718  0.00  0.00    +0.024 A 
ATOM      7  C   UNL     1      -0.727  -3.062   6.524  0.00  0.00    +0.018 A 
ATOM      8  C   UNL     1      -0.165  -2.194   5.615  0.00  0.00    +0.032 A 
ATOM      9  S   UNL     1       0.574  -2.449   4.016  0.00  0.00    -0.082 S 
ATOM     10  H   UNL     1       0.590   0.935   4.963  0.00  0.00    +0.149 HD
ENDROOT
BRANCH   1  13
ATOM     11  C   UNL     1       0.747  -0.546   1.227  0.00  0.00    +0.218 C 
ATOM     12  O   UNL     1       1.745  -1.225   1.109  0.00  0.00    -0.275 OA
ATOM     13  N   UNL     1       0.289  -0.227   2.454  0.00  0.00    -0.288 N 
ATOM     14  H   UNL     1      -0.509   0.316   2.548  0.00  0.00    +0.151 HD
BRANCH  11  16
ATOM     15  C   UNL     1      -0.011   1.471  -0.002  0.00  0.00    +0.017 C 
ATOM     16  C   UNL     1       0.018  -0.059   0.001  0.00  0.00    +0.069 C 
ATOM     17  C   UNL     1       0.739  -0.557  -1.253  0.00  0.00    +0.017 C 
ENDBRANCH  11  16
ENDBRANCH   1  13
BRANCH   5  18
ATOM     18  N   UNL     1      -1.680  -0.713   9.177  0.00  0.00    -0.283 N 
ATOM     19  C   UNL     1      -2.777  -1.270   9.728  0.00  0.00    +0.244 C 
ATOM     20  O   UNL     1      -3.273  -2.257   9.227  0.00  0.00    -0.273 OA
ATOM     21  H   UNL     1      -1.245   0.035   9.614  0.00  0.00    +0.155 HD
BRANCH  19  22
ATOM     22  C   UNL     1      -3.388  -0.666  10.966  0.00  0.00    +0.190 C 
ATOM     23  C   UNL     1      -2.404  -0.722  12.113  0.00  0.00    +0.016 C 
ATOM     24  C   UNL     1      -2.989  -1.476  13.072  0.00  0.00    -0.002 A 
ATOM     25  C   UNL     1      -2.553  -1.898  14.409  0.00  0.00    +0.029 A 
ATOM     26  C   UNL     1      -3.377  -2.670  15.154  0.00  0.00    +0.042 A 
ATOM     27  C   UNL     1      -4.635  -3.075  14.683  0.00  0.00    +0.022 A 
ATOM     28  C   UNL     1      -5.104  -2.726  13.466  0.00  0.00    +0.027 A 
ATOM     29  C   UNL     1      -4.320  -1.917  12.598  0.00  0.00    +0.043 A 
ATOM     30  N   UNL     1      -4.550  -1.452  11.392  0.00  0.00    -0.370 N 
ATOM     31 CL   UNL     1      -2.865  -3.172  16.735  0.00  0.00    -0.084 Cl
ATOM     32  H   UNL     1      -5.353  -1.604  10.870  0.00  0.00    +0.161 HD
ENDBRANCH  19  22
ENDBRANCH   5  18
TORSDOF 4
