REMARK  Name = ZINC21738318
REMARK  10 active torsions:
REMARK  status: ('A' for Active; 'I' for Inactive)
REMARK    1  A    between atoms: C_1  and  N_2
REMARK    2  A    between atoms: N_2  and  C_20
REMARK    3  A    between atoms: C_3  and  C_5
REMARK    4  A    between atoms: C_5  and  O_6
REMARK    5  A    between atoms: O_6  and  C_7
REMARK    6  A    between atoms: C_7  and  C_9
REMARK    7  A    between atoms: C_12  and  O_15
REMARK    8  A    between atoms: O_15  and  C_16
REMARK    9  A    between atoms: C_16  and  C_17
REMARK   10  A    between atoms: C_20  and  C_27
REMARK                            x       y       z     vdW  Elec       q    Type
REMARK                         _______ _______ _______ _____ _____    ______ ____
ROOT
ATOM      1  C   UNL     1      -1.591  -3.067  -1.038  0.00  0.00    +0.133 C 
ATOM      2  N   UNL     1      -1.009  -2.213   0.000  0.00  0.00    -0.285 N 
ATOM      3  C   UNL     1      -0.254  -2.757   0.975  0.00  0.00    +0.254 C 
ATOM      4  O   UNL     1       0.228  -2.050   1.835  0.00  0.00    -0.272 OA
ENDROOT
BRANCH   2   5
ATOM      5  C   UNL     1      -1.247  -0.767  -0.021  0.00  0.00    +0.122 C 
ATOM      6  C   UNL     1       0.092  -0.024   0.031  0.00  0.00    +0.038 C 
ATOM      7  C   UNL     1       0.882  -0.312  -1.247  0.00  0.00    +0.003 C 
ATOM      8  C   UNL     1       0.129   0.232  -2.462  0.00  0.00    +0.008 C 
ATOM      9  C   UNL     1      -1.206  -0.505  -2.605  0.00  0.00    +0.077 C 
ATOM     10  C   UNL     1      -1.962  -0.389  -1.300  0.00  0.00    +0.161 C 
ATOM     11  O   UNL     1      -3.107  -0.004  -1.279  0.00  0.00    -0.295 OA
BRANCH   5  12
ATOM     12  C   UNL     1      -2.090  -0.376   1.165  0.00  0.00    +0.002 A 
ATOM     13  C   UNL     1      -2.509  -1.339   2.063  0.00  0.00    +0.007 A 
ATOM     14  C   UNL     1      -3.283  -0.980   3.151  0.00  0.00    +0.000 A 
ATOM     15  C   UNL     1      -3.638   0.343   3.341  0.00  0.00    +0.001 A 
ATOM     16  C   UNL     1      -3.219   1.307   2.444  0.00  0.00    +0.020 A 
ATOM     17  C   UNL     1      -2.445   0.948   1.354  0.00  0.00    +0.047 A 
ATOM     18 CL   UNL     1      -1.913   2.159   0.230  0.00  0.00    -0.083 Cl
ENDBRANCH   5  12
ENDBRANCH   2   5
BRANCH   3  19
ATOM     19  C   UNL     1      -0.009  -4.244   0.997  0.00  0.00    +0.328 C 
BRANCH  19  20
ATOM     20  O   UNL     1       0.827  -4.579   2.136  0.00  0.00    -0.452 OA
BRANCH  20  21
ATOM     21  C   UNL     1       1.141  -5.879   2.302  0.00  0.00    +0.340 C 
ATOM     22  O   UNL     1       0.729  -6.709   1.516  0.00  0.00    -0.245 OA
BRANCH  21  23
ATOM     23  C   UNL     1       1.986  -6.294   3.437  0.00  0.00    +0.059 A 
ATOM     24  C   UNL     1       2.467  -5.340   4.339  0.00  0.00    +0.018 A 
ATOM     25  C   UNL     1       3.251  -5.733   5.400  0.00  0.00    +0.046 A 
ATOM     26  C   UNL     1       3.574  -7.074   5.570  0.00  0.00    +0.121 A 
ATOM     27  C   UNL     1       3.103  -8.025   4.671  0.00  0.00    +0.046 A 
ATOM     28  C   UNL     1       2.314  -7.642   3.611  0.00  0.00    +0.018 A 
BRANCH  26  29
ATOM     29  O   UNL     1       4.351  -7.456   6.614  0.00  0.00    -0.483 OA
BRANCH  29  30
ATOM     30  C   UNL     1       4.801  -6.428   7.499  0.00  0.00    +0.324 C 
BRANCH  30  31
ATOM     31  C   UNL     1       5.644  -7.036   8.589  0.00  0.00    +0.248 C 
ATOM     32  O   UNL     1       5.841  -8.233   8.607  0.00  0.00    -0.272 OA
ATOM     33  N   UNL     1       6.180  -6.251   9.545  0.00  0.00    -0.327 N 
ATOM     34  H   UNL     1       6.795  -6.695  10.341  0.00  0.00    +0.145 HD
ATOM     35  H   UNL     1       6.001  -5.166   9.528  0.00  0.00    +0.145 HD
ENDBRANCH  30  31
ENDBRANCH  29  30
ENDBRANCH  26  29
ENDBRANCH  21  23
ENDBRANCH  20  21
ENDBRANCH  19  20
ENDBRANCH   3  19
TORSDOF 9
