REMARK  Name = ZINC01336170
REMARK  12 active torsions:
REMARK  status: ('A' for Active; 'I' for Inactive)
REMARK    1  A    between atoms: C_1  and  O_2
REMARK    2  A    between atoms: O_2  and  C_3
REMARK    3  A    between atoms: C_6  and  C_9
REMARK    4  A    between atoms: C_9  and  N_10
REMARK    5  A    between atoms: C_11  and  C_15
REMARK    6  A    between atoms: C_15  and  C_17
REMARK    7  A    between atoms: C_15  and  N_27
REMARK    8  A    between atoms: C_20  and  C_23
REMARK    9  A    between atoms: N_27  and  C_28
REMARK   10  A    between atoms: N_27  and  C_35
REMARK   11  A    between atoms: C_28  and  C_29
REMARK   12  A    between atoms: C_35  and  C_36
REMARK                            x       y       z     vdW  Elec       q    Type
REMARK                         _______ _______ _______ _____ _____    ______ ____
ROOT
ATOM      1  C   UNL     1       5.134  -0.730  -4.508  0.00  0.00    +0.158 C 
ENDROOT
BRANCH   1   2
ATOM      2  C   UNL     1       5.838  -1.015  -5.809  0.00  0.00    -0.023 A 
ATOM      3  C   UNL     1       7.190  -0.758  -5.935  0.00  0.00    +0.006 A 
ATOM      4  C   UNL     1       7.835  -1.019  -7.129  0.00  0.00    +0.013 A 
ATOM      5  C   UNL     1       7.128  -1.539  -8.198  0.00  0.00    +0.055 A 
ATOM      6  C   UNL     1       5.776  -1.798  -8.072  0.00  0.00    +0.013 A 
ATOM      7  C   UNL     1       5.132  -1.540  -6.876  0.00  0.00    +0.006 A 
BRANCH   5   8
ATOM      8  C   UNL     1       7.832  -1.823  -9.500  0.00  0.00    +0.417 C 
ATOM      9  F   UNL     1       8.322  -3.133  -9.489  0.00  0.00    -0.166 F 
ATOM     10  F   UNL     1       6.931  -1.671 -10.559  0.00  0.00    -0.166 F 
ATOM     11  F   UNL     1       8.895  -0.928  -9.661  0.00  0.00    -0.166 F 
ENDBRANCH   5   8
ENDBRANCH   1   2
BRANCH   1  13
ATOM     12  N   UNL     1       4.550  -2.821  -3.169  0.00  0.00    -0.223 N 
ATOM     13  C   UNL     1       5.405  -1.849  -3.535  0.00  0.00    +0.173 A 
ATOM     14  N   UNL     1       6.521  -2.064  -2.881  0.00  0.00    -0.111 NA
ATOM     15  N   UNL     1       6.359  -3.114  -2.151  0.00  0.00    -0.023 NA
ATOM     16  N   UNL     1       5.167  -3.571  -2.319  0.00  0.00    -0.044 NA
BRANCH  12  17
ATOM     17  C   UNL     1       3.174  -2.993  -3.643  0.00  0.00    +0.182 C 
BRANCH  17  21
ATOM     18  C   UNL     1       0.509  -0.838  -1.090  0.00  0.00    +0.120 A 
ATOM     19  C   UNL     1       1.061  -0.217  -2.201  0.00  0.00    +0.046 A 
ATOM     20  C   UNL     1       1.922  -0.916  -3.025  0.00  0.00    +0.009 A 
ATOM     21  C   UNL     1       2.234  -2.233  -2.742  0.00  0.00    -0.026 A 
ATOM     22  C   UNL     1       1.685  -2.854  -1.635  0.00  0.00    +0.009 A 
ATOM     23  C   UNL     1       0.828  -2.157  -0.805  0.00  0.00    +0.046 A 
BRANCH  18  25
ATOM     24  C   UNL     1      -0.622   1.203  -0.632  0.00  0.00    +0.277 C 
ATOM     25  O   UNL     1      -0.338  -0.152  -0.278  0.00  0.00    -0.495 OA
ENDBRANCH  18  25
ENDBRANCH  17  21
ENDBRANCH  12  17
ENDBRANCH   1  13
BRANCH   1  26
ATOM     26  N   UNL     1       5.630   0.535  -3.950  0.00  0.00    -0.278 NA
BRANCH  26  27
ATOM     27  C   UNL     1       5.382   1.650  -4.873  0.00  0.00    +0.122 C 
BRANCH  27  28
ATOM     28  C   UNL     1       3.904   1.755  -5.149  0.00  0.00    -0.015 A 
ATOM     29  C   UNL     1       3.350   1.127  -6.254  0.00  0.00    +0.008 A 
ATOM     30  C   UNL     1       1.986   1.251  -6.468  0.00  0.00    +0.020 A 
ATOM     31  C   UNL     1       1.229   1.991  -5.579  0.00  0.00    +0.111 A 
ATOM     32  N   UNL     1       1.790   2.576  -4.539  0.00  0.00    -0.263 NA
ATOM     33  C   UNL     1       3.084   2.474  -4.301  0.00  0.00    +0.115 A 
ENDBRANCH  27  28
ENDBRANCH  26  27
BRANCH  26  34
ATOM     34  C   UNL     1       5.034   0.799  -2.633  0.00  0.00    +0.160 C 
BRANCH  34  35
ATOM     35  C   UNL     1       5.830   1.867  -1.927  0.00  0.00    +0.119 A 
ATOM     36  C   UNL     1       5.648   3.194  -2.051  0.00  0.00    +0.046 A 
ATOM     37  C   UNL     1       6.605   3.818  -1.217  0.00  0.00    +0.041 A 
ATOM     38  C   UNL     1       7.314   2.834  -0.634  0.00  0.00    +0.195 A 
ATOM     39  O   UNL     1       6.836   1.655  -1.064  0.00  0.00    -0.467 OA
ENDBRANCH  34  35
ENDBRANCH  26  34
ENDBRANCH   1  26
TORSDOF 11
