REMARK  Name = ZINC09359325
REMARK  6 active torsions:
REMARK  status: ('A' for Active; 'I' for Inactive)
REMARK    1  A    between atoms: C_7  and  C_11
REMARK    2  A    between atoms: C_11  and  C_12
REMARK    3  A    between atoms: C_12  and  N_13
REMARK    4  A    between atoms: C_14  and  C_15
REMARK    5  A    between atoms: C_16  and  O_30
REMARK    6  A    between atoms: N_20  and  C_23
REMARK                            x       y       z     vdW  Elec       q    Type
REMARK                         _______ _______ _______ _____ _____    ______ ____
ROOT
ATOM      1  C   UNL     1      -1.212   3.498   0.161  0.00  0.00    +0.199 C 
ATOM      2  C   UNL     1      -2.476   4.242   0.243  0.00  0.00    +0.198 C 
ATOM      3  N   UNL     1      -2.427   5.562   0.325  0.00  0.00    -0.131 NA
ATOM      4  C   UNL     1      -1.276   6.227   0.324  0.00  0.00    +0.339 C 
ATOM      5  O   UNL     1      -1.312   7.442   0.397  0.00  0.00    -0.250 OA
ATOM      6  N   UNL     1      -0.076   5.632   0.246  0.00  0.00    -0.192 N 
ATOM      7  C   UNL     1       0.032   4.289   0.164  0.00  0.00    +0.245 C 
ATOM      8  O   UNL     1       1.120   3.749   0.094  0.00  0.00    -0.274 OA
ENDROOT
BRANCH   6   9
ATOM      9  C   UNL     1       1.084   6.418   0.252  0.00  0.00    +0.047 A 
ATOM     10  C   UNL     1       1.890   6.476  -0.877  0.00  0.00    +0.024 A 
ATOM     11  C   UNL     1       3.034   7.251  -0.870  0.00  0.00    +0.003 A 
ATOM     12  C   UNL     1       3.376   7.969   0.262  0.00  0.00    +0.020 A 
ATOM     13  C   UNL     1       2.575   7.913   1.389  0.00  0.00    +0.043 A 
ATOM     14  C   UNL     1       1.427   7.144   1.384  0.00  0.00    +0.044 A 
ATOM     15 CL   UNL     1       3.009   8.817   2.806  0.00  0.00    -0.083 Cl
ENDBRANCH   6   9
BRANCH   1  17
ATOM     16  N   UNL     1      -0.018   1.455   0.130  0.00  0.00    -0.294 NA
ATOM     17  C   UNL     1      -1.190   2.114   0.078  0.00  0.00    +0.099 C 
BRANCH  16  18
ATOM     18  C   UNL     1       0.006  -0.007   0.043  0.00  0.00    +0.146 C 
BRANCH  18  19
ATOM     19  C   UNL     1       1.452  -0.500   0.120  0.00  0.00    +0.060 C 
BRANCH  19  26
ATOM     20  C   UNL     1       1.457  -3.498  -3.484  0.00  0.00    +0.001 A 
ATOM     21  C   UNL     1       1.484  -4.827  -3.082  0.00  0.00    +0.002 A 
ATOM     22  C   UNL     1       1.506  -5.156  -1.745  0.00  0.00    +0.026 A 
ATOM     23  C   UNL     1       1.501  -4.149  -0.785  0.00  0.00    +0.047 A 
ATOM     24  C   UNL     1       1.468  -2.804  -1.197  0.00  0.00    +0.003 A 
ATOM     25  C   UNL     1       1.452  -2.493  -2.558  0.00  0.00    +0.010 A 
ATOM     26  C   UNL     1       1.476  -2.004   0.030  0.00  0.00    -0.021 A 
ATOM     27  C   UNL     1       1.502  -2.865   1.060  0.00  0.00    +0.087 A 
ATOM     28  N   UNL     1       1.518  -4.151   0.592  0.00  0.00    -0.360 N 
ATOM     29  H   UNL     1       1.538  -4.946   1.147  0.00  0.00    +0.165 HD
ENDBRANCH  19  26
ENDBRANCH  18  19
ENDBRANCH  16  18
ENDBRANCH   1  17
BRANCH   2  30
ATOM     30  O   UNL     1      -3.660   3.594   0.240  0.00  0.00    -0.496 OA
ATOM     31  H   UNL     1      -4.428   4.178   0.298  0.00  0.00    +0.293 HD
ENDBRANCH   2  30
TORSDOF 6
