REMARK  Name = ZINC37154305
REMARK  7 active torsions:
REMARK  status: ('A' for Active; 'I' for Inactive)
REMARK    1  A    between atoms: C_1  and  C_2
REMARK    2  A    between atoms: C_2  and  C_3
REMARK    3  A    between atoms: C_3  and  C_4
REMARK    4  A    between atoms: C_8  and  C_20
REMARK    5  A    between atoms: C_10  and  S_13
REMARK    6  A    between atoms: S_13  and  C_14
REMARK    7  A    between atoms: N_18  and  C_19
REMARK                            x       y       z     vdW  Elec       q    Type
REMARK                         _______ _______ _______ _____ _____    ______ ____
ROOT
ATOM      1  C   UNL     1       1.148  -1.553  -1.591  0.00  0.00    -0.010 C 
ATOM      2  C   UNL     1       2.016  -1.975  -0.404  0.00  0.00    +0.005 C 
ATOM      3  C   UNL     1       1.903  -3.487  -0.203  0.00  0.00    +0.020 C 
ATOM      4  C   UNL     1       2.381  -4.207  -1.465  0.00  0.00    +0.105 C 
ATOM      5  C   UNL     1       1.513  -3.785  -2.652  0.00  0.00    +0.071 C 
ATOM      6  C   UNL     1       1.626  -2.272  -2.854  0.00  0.00    +0.019 C 
ENDROOT
BRANCH   4   7
ATOM      7  C   UNL     1       2.273  -5.662  -1.271  0.00  0.00    +0.067 C 
ATOM      8  N   UNL     1       2.189  -6.785  -1.122  0.00  0.00    -0.196 NA
ENDBRANCH   4   7
BRANCH   1   9
ATOM      9  C   UNL     1       1.260  -0.040  -1.793  0.00  0.00    +0.003 C 
BRANCH   9  11
ATOM     10  C   UNL     1       0.780   2.194  -0.783  0.00  0.00    +0.004 C 
ATOM     11  C   UNL     1       0.667   0.681  -0.581  0.00  0.00    -0.003 C 
ENDBRANCH   9  11
ENDBRANCH   1   9
BRANCH   5  12
ATOM     12  S   UNL     1       2.080  -4.638  -4.150  0.00  0.00    -0.080 S 
BRANCH  12  13
ATOM     13  C   UNL     1       0.859  -4.239  -5.356  0.00  0.00    +0.209 A 
ATOM     14  N   UNL     1      -0.251  -3.564  -5.150  0.00  0.00    -0.102 NA
ATOM     15  N   UNL     1      -0.917  -3.450  -6.242  0.00  0.00    -0.022 NA
ATOM     16  N   UNL     1      -0.295  -4.033  -7.209  0.00  0.00    -0.043 NA
ATOM     17  N   UNL     1       0.890  -4.564  -6.670  0.00  0.00    -0.223 N 
ATOM     18  C   UNL     1       1.932  -5.312  -7.377  0.00  0.00    +0.177 C 
ENDBRANCH  12  13
ENDBRANCH   5  12
TORSDOF 5
