REMARK  Name = ZINC35224015
REMARK  4 active torsions:
REMARK  status: ('A' for Active; 'I' for Inactive)
REMARK    1  A    between atoms: C_6  and  C_7
REMARK    2  A    between atoms: C_7  and  N_8
REMARK    3  A    between atoms: N_8  and  C_9
REMARK    4  A    between atoms: C_13  and  N_15
REMARK                            x       y       z     vdW  Elec       q    Type
REMARK                         _______ _______ _______ _____ _____    ______ ____
ROOT
ATOM      1  N   UNL     1      -1.727  -1.016  -1.368  0.00  0.00    -0.340 N 
ATOM      2  H   UNL     1      -1.192  -0.690  -2.109  0.00  0.00    +0.146 HD
ENDROOT
BRANCH   1   3
ATOM      3  C   UNL     1      -2.911  -1.716  -1.616  0.00  0.00    +0.030 A 
ATOM      4  C   UNL     1      -3.681  -2.178  -0.556  0.00  0.00    +0.026 A 
ATOM      5  C   UNL     1      -4.850  -2.870  -0.804  0.00  0.00    +0.042 A 
ATOM      6  C   UNL     1      -5.255  -3.103  -2.107  0.00  0.00    +0.154 A 
ATOM      7  C   UNL     1      -4.490  -2.644  -3.165  0.00  0.00    +0.163 A 
ATOM      8  C   UNL     1      -3.322  -1.946  -2.922  0.00  0.00    +0.058 A 
ATOM      9  F   UNL     1      -6.400  -3.780  -2.347  0.00  0.00    -0.203 F 
BRANCH   7  10
ATOM     10  N   UNL     1      -4.925  -2.896  -4.557  0.00  0.00    +0.059 N 
ATOM     11  O   UNL     1      -4.257  -2.495  -5.481  0.00  0.00    -0.126 OA
ATOM     12  O   UNL     1      -5.949  -3.502  -4.770  0.00  0.00    -0.126 OA
ENDBRANCH   7  10
ENDBRANCH   1   3
BRANCH   1  13
ATOM     13  C   UNL     1      -1.294  -0.774   0.010  0.00  0.00    +0.137 C 
BRANCH  13  19
ATOM     14  C   UNL     1      -0.017   1.378   0.010  0.00  0.00    +0.009 A 
ATOM     15  C   UNL     1       1.170   2.088   0.002  0.00  0.00    +0.050 A 
ATOM     16  C   UNL     1       2.380   1.416  -0.013  0.00  0.00    +0.166 A 
ATOM     17  C   UNL     1       2.399   0.023  -0.021  0.00  0.00    +0.167 A 
ATOM     18  C   UNL     1       1.207  -0.682  -0.014  0.00  0.00    +0.054 A 
ATOM     19  C   UNL     1       0.002  -0.004   0.002  0.00  0.00    -0.027 A 
ATOM     20  O   UNL     1       3.698  -0.395  -0.036  0.00  0.00    -0.453 OA
ATOM     21  C   UNL     1       4.466   0.750  -0.450  0.00  0.00    +0.466 C 
ATOM     22  O   UNL     1       3.668   1.870  -0.024  0.00  0.00    -0.453 OA
ENDBRANCH  13  19
ENDBRANCH   1  13
TORSDOF 4
