REMARK  Name = ZINC09685439
REMARK  6 active torsions:
REMARK  status: ('A' for Active; 'I' for Inactive)
REMARK    1  A    between atoms: C_1  and  C_2
REMARK    2  A    between atoms: C_7  and  S_8
REMARK    3  A    between atoms: S_8  and  N_11
REMARK    4  A    between atoms: C_16  and  C_18
REMARK    5  A    between atoms: C_26  and  C_28
REMARK    6  A    between atoms: C_26  and  C_29
REMARK                            x       y       z     vdW  Elec       q    Type
REMARK                         _______ _______ _______ _____ _____    ______ ____
ROOT
ATOM      1  C   UNL     1      -4.814  -0.436  -2.026  0.00  0.00    +0.046 C 
ATOM      2  C   UNL     1      -5.620  -0.702  -0.781  0.00  0.00    -0.023 A 
ATOM      3  C   UNL     1      -6.407  -1.831  -0.701  0.00  0.00    +0.016 A 
ATOM      4  C   UNL     1      -7.157  -2.073   0.446  0.00  0.00    +0.011 A 
ATOM      5  C   UNL     1      -7.104  -1.168   1.523  0.00  0.00    +0.049 A 
ATOM      6  C   UNL     1      -6.299  -0.039   1.424  0.00  0.00    +0.055 A 
ATOM      7  C   UNL     1      -5.563   0.187   0.281  0.00  0.00    +0.110 A 
ATOM      8  N   UNL     1      -7.934  -1.647   2.520  0.00  0.00    -0.357 N 
ATOM      9  H   UNL     1      -8.077  -1.212   3.375  0.00  0.00    +0.166 HD
ATOM     10  C   UNL     1      -8.513  -2.794   2.143  0.00  0.00    +0.028 A 
ATOM     11  C   UNL     1      -8.079  -3.130   0.869  0.00  0.00    +0.046 A 
ATOM     12  C   UNL     1      -8.508  -4.301   0.199  0.00  0.00    +0.166 C 
ATOM     13  O   UNL     1      -8.136  -4.553  -0.928  0.00  0.00    -0.292 OA
ATOM     14  C   UNL     1      -9.448  -5.228   0.940  0.00  0.00    +0.086 C 
ATOM     15  C   UNL     1     -10.344  -4.422   1.881  0.00  0.00    -0.023 C 
ATOM     16  C   UNL     1      -9.497  -3.654   2.902  0.00  0.00    +0.060 C 
ATOM     17  C   UNL     1     -11.171  -3.429   1.062  0.00  0.00    +0.011 C 
ATOM     18  C   UNL     1     -11.285  -5.375   2.620  0.00  0.00    +0.011 C 
ENDROOT
BRANCH   7  19
ATOM     19  S   UNL     1      -4.547   1.622   0.166  0.00  0.00    +0.061 S 
ATOM     20  O   UNL     1      -4.680   2.314   1.400  0.00  0.00    -0.153 OA
ATOM     21  O   UNL     1      -4.841   2.229  -1.084  0.00  0.00    -0.153 OA
BRANCH  19  22
ATOM     22  N   UNL     1      -2.976   1.103   0.082  0.00  0.00    -0.174 NA
ATOM     23  C   UNL     1      -2.261   1.086  -1.201  0.00  0.00    +0.110 C 
ATOM     24  C   UNL     1      -0.950   1.863  -1.046  0.00  0.00    +0.017 C 
ATOM     25  C   UNL     1      -0.154   1.284   0.125  0.00  0.00    +0.003 C 
ATOM     26  C   UNL     1      -0.961   1.435   1.417  0.00  0.00    +0.020 C 
ATOM     27  C   UNL     1      -2.271   0.652   1.290  0.00  0.00    +0.077 C 
ATOM     28  C   UNL     1      -3.144   0.911   2.520  0.00  0.00    +0.026 C 
ENDBRANCH  19  22
ENDBRANCH   7  19
TORSDOF 2
