REMARK  Name = ZINC12926761
REMARK  9 active torsions:
REMARK  status: ('A' for Active; 'I' for Inactive)
REMARK    1  A    between atoms: C_1  and  C_2
REMARK    2  A    between atoms: C_3  and  C_32
REMARK    3  A    between atoms: C_7  and  N_18
REMARK    4  A    between atoms: C_9  and  C_11
REMARK    5  A    between atoms: C_11  and  N_67
REMARK    6  A    between atoms: C_14  and  C_17
REMARK    7  A    between atoms: N_18  and  C_19
REMARK    8  A    between atoms: C_19  and  C_21
REMARK    9  A    between atoms: C_19  and  C_22
REMARK                            x       y       z     vdW  Elec       q    Type
REMARK                         _______ _______ _______ _____ _____    ______ ____
ROOT
ATOM      1  C   UNL     1       5.069   2.081  -0.044  0.00  0.00    +0.045 C 
ATOM      2  C   UNL     1       3.656   2.603  -0.028  0.00  0.00    -0.028 A 
ATOM      3  C   UNL     1       3.401   3.882  -0.340  0.00  0.00    -0.008 A 
ATOM      4  S   UNL     1       1.630   4.007  -0.177  0.00  0.00    -0.074 S 
ATOM      5  C   UNL     1       1.279   2.337   0.305  0.00  0.00    +0.114 A 
ATOM      6  C   UNL     1       2.553   1.727   0.327  0.00  0.00    +0.051 A 
ATOM      7  C   UNL     1       2.564   0.352   0.691  0.00  0.00    +0.131 A 
ATOM      8  N   UNL     1       1.420  -0.249   0.977  0.00  0.00    -0.219 NA
ATOM      9  C   UNL     1       0.263   0.386   0.936  0.00  0.00    +0.116 A 
ATOM     10  N   UNL     1       0.188   1.661   0.605  0.00  0.00    -0.227 NA
ATOM     11  C   UNL     1       4.380   4.959  -0.733  0.00  0.00    +0.052 C 
ENDROOT
BRANCH   7  12
ATOM     12  N   UNL     1       3.756  -0.348   0.746  0.00  0.00    -0.319 N 
ATOM     13  H   UNL     1       4.579   0.072   0.450  0.00  0.00    +0.148 HD
BRANCH  12  14
ATOM     14  C   UNL     1       3.775  -1.723   1.250  0.00  0.00    +0.137 C 
ATOM     15  C   UNL     1       3.429  -2.688   0.114  0.00  0.00    +0.036 C 
BRANCH  14  16
ATOM     16  C   UNL     1       5.147  -2.044   1.783  0.00  0.00    +0.154 A 
ATOM     17  N   UNL     1       6.287  -1.768   1.206  0.00  0.00    -0.132 NA
ATOM     18  N   UNL     1       7.258  -2.180   1.945  0.00  0.00    -0.134 NA
ATOM     19  C   UNL     1       6.781  -2.731   3.024  0.00  0.00    +0.134 A 
ATOM     20  N   UNL     1       5.431  -2.666   2.949  0.00  0.00    -0.313 N 
ATOM     21  C   UNL     1       4.478  -3.196   3.924  0.00  0.00    +0.125 C 
ATOM     22  C   UNL     1       5.120  -3.190   5.314  0.00  0.00    +0.022 C 
ATOM     23  C   UNL     1       5.853  -4.510   5.548  0.00  0.00    +0.002 C 
ATOM     24  C   UNL     1       6.968  -4.692   4.522  0.00  0.00    +0.008 C 
ATOM     25  C   UNL     1       7.564  -3.327   4.165  0.00  0.00    +0.076 C 
ENDBRANCH  14  16
ENDBRANCH  12  14
ENDBRANCH   7  12
BRANCH   9  26
ATOM     26  C   UNL     1      -1.001  -0.362   1.274  0.00  0.00    -0.001 C 
BRANCH  26  33
ATOM     27  C   UNL     1      -0.511  -1.622  -0.735  0.00  0.00    -0.078 C 
ATOM     28  C   UNL     1      -1.099  -2.103  -2.063  0.00  0.00    -0.016 C 
ATOM     29  C   UNL     1      -2.247  -3.077  -1.786  0.00  0.00    -0.018 C 
ATOM     30  C   UNL     1      -3.301  -2.377  -0.923  0.00  0.00    -0.016 C 
ATOM     31  C   UNL     1      -2.651  -1.888   0.373  0.00  0.00    -0.078 C 
ATOM     32  C   UNL     1      -2.878  -3.514  -3.109  0.00  0.00    +0.007 C 
ATOM     33  N   UNL     1      -1.570  -0.936   0.037  0.00  0.00    +0.384 N 
ATOM     34  H   UNL     1      -1.960  -0.177  -0.534  0.00  0.00    -0.081 HD
ENDBRANCH  26  33
ENDBRANCH   9  26
TORSDOF 5
