REMARK  Name = ZINC38701969
REMARK  11 active torsions:
REMARK  status: ('A' for Active; 'I' for Inactive)
REMARK    1  A    between atoms: C_1  and  C_2
REMARK    2  A    between atoms: C_5  and  O_39
REMARK    3  A    between atoms: C_6  and  C_8
REMARK    4  A    between atoms: N_16  and  C_31
REMARK    5  A    between atoms: C_17  and  C_19
REMARK    6  A    between atoms: C_23  and  O_25
REMARK    7  A    between atoms: O_25  and  C_26
REMARK    8  A    between atoms: C_26  and  C_27
REMARK    9  A    between atoms: C_27  and  C_28
REMARK   10  A    between atoms: C_28  and  C_29
REMARK   11  A    between atoms: C_28  and  C_30
REMARK                            x       y       z     vdW  Elec       q    Type
REMARK                         _______ _______ _______ _____ _____    ______ ____
ROOT
ATOM      1  C   UNL     1       0.296  -2.931   2.857  0.00  0.00    +0.102 A 
ATOM      2  C   UNL     1       0.291  -4.329   2.801  0.00  0.00    +0.035 A 
ATOM      3  C   UNL     1       0.224  -4.758   4.113  0.00  0.00    +0.126 A 
ATOM      4  N   UNL     1       0.193  -3.628   4.881  0.00  0.00    -0.272 N 
ATOM      5  H   UNL     1       0.145  -3.614   5.849  0.00  0.00    +0.189 HD
ATOM      6  N   UNL     1       0.240  -2.587   4.129  0.00  0.00    -0.173 NA
ATOM      7  C   UNL     1       0.216  -6.225   4.125  0.00  0.00    +0.266 C 
ATOM      8  O   UNL     1       0.163  -6.911   5.127  0.00  0.00    -0.268 OA
ATOM      9  N   UNL     1       0.275  -6.704   2.869  0.00  0.00    -0.280 N 
ATOM     10  C   UNL     1       0.327  -5.564   1.944  0.00  0.00    +0.142 C 
ENDROOT
BRANCH   1  16
ATOM     11  C   UNL     1      -1.295  -1.571  -1.675  0.00  0.00    +0.044 C 
ATOM     12  C   UNL     1      -0.403  -1.348  -0.481  0.00  0.00    -0.050 A 
ATOM     13  C   UNL     1       0.476  -0.279  -0.467  0.00  0.00    +0.007 A 
ATOM     14  C   UNL     1       1.297  -0.067   0.624  0.00  0.00    +0.046 A 
ATOM     15  C   UNL     1       1.245  -0.926   1.710  0.00  0.00    +0.126 A 
ATOM     16  C   UNL     1       0.358  -2.006   1.698  0.00  0.00    +0.044 A 
ATOM     17  C   UNL     1      -0.470  -2.207   0.597  0.00  0.00    +0.017 A 
BRANCH  15  18
ATOM     18  O   UNL     1       2.053  -0.718   2.782  0.00  0.00    -0.506 OA
ATOM     19  H   UNL     1       1.698  -0.092   3.427  0.00  0.00    +0.292 HD
ENDBRANCH  15  18
ENDBRANCH   1  16
BRANCH   9  20
ATOM     20  C   UNL     1       0.286  -8.118   2.489  0.00  0.00    +0.100 C 
ATOM     21  C   UNL     1      -0.982  -8.808   3.020  0.00  0.00    +0.047 C 
ATOM     22  C   UNL     1      -0.832 -10.345   2.908  0.00  0.00    +0.168 C 
ATOM     23  S   UNL     1       0.987 -10.584   3.031  0.00  0.00    -0.029 S 
ATOM     24  O   UNL     1       1.287 -11.221   4.266  0.00  0.00    -0.174 OA
ATOM     25  O   UNL     1       1.462 -11.151   1.818  0.00  0.00    -0.174 OA
ATOM     26  C   UNL     1       1.521  -8.822   3.121  0.00  0.00    +0.188 C 
ENDBRANCH   9  20
BRANCH  10  27
ATOM     27  C   UNL     1       1.604  -5.603   1.143  0.00  0.00    -0.019 A 
ATOM     28  C   UNL     1       2.800  -5.912   1.765  0.00  0.00    +0.006 A 
ATOM     29  C   UNL     1       3.972  -5.949   1.034  0.00  0.00    +0.004 A 
ATOM     30  C   UNL     1       3.952  -5.675  -0.320  0.00  0.00    +0.045 A 
ATOM     31  C   UNL     1       2.754  -5.364  -0.946  0.00  0.00    +0.121 A 
ATOM     32  C   UNL     1       1.577  -5.334  -0.211  0.00  0.00    +0.051 A 
BRANCH  31  33
ATOM     33  O   UNL     1       2.731  -5.094  -2.278  0.00  0.00    -0.492 OA
BRANCH  33  34
ATOM     34  C   UNL     1       3.979  -5.149  -2.972  0.00  0.00    +0.229 C 
BRANCH  34  35
ATOM     35  C   UNL     1       3.756  -4.819  -4.449  0.00  0.00    +0.044 C 
BRANCH  35  36
ATOM     36  C   UNL     1       5.092  -4.878  -5.192  0.00  0.00    -0.014 C 
ATOM     37  C   UNL     1       5.623  -6.312  -5.174  0.00  0.00    +0.007 C 
ATOM     38  C   UNL     1       4.891  -4.427  -6.641  0.00  0.00    +0.007 C 
ENDBRANCH  35  36
ENDBRANCH  34  35
ENDBRANCH  33  34
ENDBRANCH  31  33
ENDBRANCH  10  27
TORSDOF 8
