REMARK  Name = ZINC37361547
REMARK  10 active torsions:
REMARK  status: ('A' for Active; 'I' for Inactive)
REMARK    1  A    between atoms: C_1  and  C_2
REMARK    2  A    between atoms: C_2  and  C_3
REMARK    3  A    between atoms: C_2  and  C_4
REMARK    4  A    between atoms: C_7  and  C_10
REMARK    5  A    between atoms: C_12  and  N_30
REMARK    6  A    between atoms: N_13  and  C_29
REMARK    7  A    between atoms: N_22  and  C_25
REMARK    8  A    between atoms: C_25  and  C_26
REMARK    9  A    between atoms: C_26  and  O_27
REMARK   10  A    between atoms: O_27  and  C_28
REMARK                            x       y       z     vdW  Elec       q    Type
REMARK                         _______ _______ _______ _____ _____    ______ ____
ROOT
ATOM      1  C   UNL     1       2.922  -1.353   4.847  0.00  0.00    +0.089 A 
ATOM      2  C   UNL     1       2.199  -1.733   6.000  0.00  0.00    +0.086 A 
ATOM      3  C   UNL     1       0.869  -1.684   6.402  0.00  0.00    +0.126 A 
ATOM      4  N   UNL     1       0.800  -2.210   7.637  0.00  0.00    -0.251 N 
ATOM      5  N   UNL     1       2.074  -2.607   8.059  0.00  0.00    -0.149 NA
ATOM      6  C   UNL     1       2.948  -2.342   7.113  0.00  0.00    +0.188 A 
ATOM      7  N   UNL     1       4.278  -2.501   6.965  0.00  0.00    -0.193 NA
ATOM      8  C   UNL     1       4.873  -2.118   5.854  0.00  0.00    +0.220 A 
ATOM      9  N   UNL     1       4.231  -1.570   4.827  0.00  0.00    -0.214 NA
ATOM     10  N   UNL     1       6.240  -2.302   5.749  0.00  0.00    -0.303 N 
ATOM     11  C   UNL     1       6.967  -1.890   4.537  0.00  0.00    +0.089 C 
ATOM     12  C   UNL     1       8.170  -1.039   4.958  0.00  0.00    -0.059 C 
ATOM     13  N   UNL     1       8.981  -1.786   5.928  0.00  0.00    +0.383 N 
ATOM     14  C   UNL     1       8.209  -2.014   7.156  0.00  0.00    -0.059 C 
ATOM     15  C   UNL     1       7.009  -2.908   6.846  0.00  0.00    +0.089 C 
ATOM     16  C   UNL     1      -0.427  -2.346   8.425  0.00  0.00    +0.174 C 
ATOM     17  H   UNL     1       9.246  -2.674   5.529  0.00  0.00    -0.082 HD
ENDROOT
BRANCH   1  21
ATOM     18  C   UNL     1       0.955   0.421   1.524  0.00  0.00    -0.045 A 
ATOM     19  C   UNL     1       1.881  -0.587   1.319  0.00  0.00    +0.004 A 
ATOM     20  C   UNL     1       2.523  -1.167   2.394  0.00  0.00    +0.010 A 
ATOM     21  C   UNL     1       2.237  -0.735   3.689  0.00  0.00    +0.001 A 
ATOM     22  C   UNL     1       1.303   0.282   3.890  0.00  0.00    +0.010 A 
ATOM     23  C   UNL     1       0.672   0.858   2.806  0.00  0.00    +0.004 A 
BRANCH  18  25
ATOM     24  C   UNL     1       1.296   1.676  -0.587  0.00  0.00    +0.012 C 
ATOM     25  C   UNL     1       0.257   1.050   0.346  0.00  0.00    +0.013 C 
ATOM     26  C   UNL     1      -0.529  -0.021  -0.412  0.00  0.00    +0.012 C 
ENDBRANCH  18  25
ENDBRANCH   1  21
BRANCH   3  27
ATOM     27  N   UNL     1      -0.190  -1.186   5.665  0.00  0.00    -0.343 N 
ATOM     28  H   UNL     1      -0.105  -1.081   4.705  0.00  0.00    +0.144 HD
ATOM     29  H   UNL     1      -1.017  -0.943   6.109  0.00  0.00    +0.144 HD
ENDBRANCH   3  27
BRANCH  13  30
ATOM     30  C   UNL     1      10.191  -1.016   6.247  0.00  0.00    -0.050 C 
BRANCH  30  31
ATOM     31  C   UNL     1      11.097  -1.845   7.160  0.00  0.00    +0.141 C 
BRANCH  31  32
ATOM     32  O   UNL     1      11.559  -2.998   6.453  0.00  0.00    -0.385 OA
ATOM     33  C   UNL     1      12.417  -3.845   7.219  0.00  0.00    +0.193 C 
ENDBRANCH  31  32
ENDBRANCH  30  31
ENDBRANCH  13  30
TORSDOF 6
