REMARK  Name = ZINC63804216
REMARK  9 active torsions:
REMARK  status: ('A' for Active; 'I' for Inactive)
REMARK    1  A    between atoms: C_1  and  S_2
REMARK    2  A    between atoms: S_2  and  C_3
REMARK    3  A    between atoms: C_3  and  C_4
REMARK    4  A    between atoms: C_4  and  C_5
REMARK    5  A    between atoms: C_5  and  C_7
REMARK    6  A    between atoms: C_5  and  N_16
REMARK    7  A    between atoms: C_17  and  C_19
REMARK    8  A    between atoms: C_21  and  N_28
REMARK    9  A    between atoms: C_23  and  N_25
REMARK                            x       y       z     vdW  Elec       q    Type
REMARK                         _______ _______ _______ _____ _____    ______ ____
ROOT
ATOM      1  C   UNL     1      -3.356  -2.382   0.021  0.00  0.00    +0.116 C 
ENDROOT
BRANCH   1   2
ATOM      2  C   UNL     1      -3.484  -3.901  -0.111  0.00  0.00    +0.195 C 
ATOM      3  N   UNL     1      -2.837  -4.355  -1.348  0.00  0.00    -0.362 N 
ATOM      4  C   UNL     1      -3.750  -4.923  -2.082  0.00  0.00    +0.060 A 
ATOM      5  C   UNL     1      -3.715  -5.560  -3.405  0.00  0.00    +0.027 A 
ATOM      6  C   UNL     1      -4.847  -6.074  -3.926  0.00  0.00    +0.002 A 
ATOM      7  C   UNL     1      -6.080  -6.029  -3.252  0.00  0.00    +0.002 A 
ATOM      8  C   UNL     1      -6.223  -5.468  -2.035  0.00  0.00    +0.027 A 
ATOM      9  C   UNL     1      -5.055  -4.875  -1.368  0.00  0.00    +0.060 A 
ATOM     10  N   UNL     1      -4.899  -4.280  -0.221  0.00  0.00    -0.362 N 
ATOM     11  H   UNL     1      -1.900  -4.251  -1.577  0.00  0.00    +0.162 HD
ATOM     12  H   UNL     1      -5.589  -4.117   0.440  0.00  0.00    +0.162 HD
ENDBRANCH   1   2
BRANCH   1  13
ATOM     13  N   UNL     1      -3.966  -1.949   1.281  0.00  0.00    -0.305 N 
ATOM     14  C   UNL     1      -4.430  -0.690   1.408  0.00  0.00    +0.245 C 
ATOM     15  O   UNL     1      -4.343   0.086   0.476  0.00  0.00    -0.270 OA
ATOM     16  H   UNL     1      -4.035  -2.568   2.025  0.00  0.00    +0.149 HD
BRANCH  14  17
ATOM     17  C   UNL     1      -5.044  -0.253   2.679  0.00  0.00    +0.041 A 
ATOM     18  C   UNL     1      -5.140  -1.140   3.753  0.00  0.00    +0.046 A 
ATOM     19  C   UNL     1      -5.715  -0.725   4.937  0.00  0.00    +0.129 A 
ATOM     20  C   UNL     1      -6.195   0.566   5.061  0.00  0.00    +0.065 A 
ATOM     21  C   UNL     1      -6.103   1.450   4.001  0.00  0.00    +0.129 A 
ATOM     22  C   UNL     1      -5.526   1.050   2.813  0.00  0.00    +0.046 A 
BRANCH  21  23
ATOM     23  N   UNL     1      -6.620   2.830   4.143  0.00  0.00    +0.057 N 
ATOM     24  O   UNL     1      -7.122   3.183   5.185  0.00  0.00    -0.126 OA
ATOM     25  O   UNL     1      -6.541   3.603   3.217  0.00  0.00    -0.126 OA
ENDBRANCH  21  23
BRANCH  19  26
ATOM     26  N   UNL     1      -5.817  -1.665   6.076  0.00  0.00    +0.057 N 
ATOM     27  O   UNL     1      -5.398  -2.793   5.969  0.00  0.00    -0.126 OA
ATOM     28  O   UNL     1      -6.320  -1.303   7.114  0.00  0.00    -0.126 OA
ENDBRANCH  19  26
ENDBRANCH  14  17
ENDBRANCH   1  13
BRANCH   1  29
ATOM     29  C   UNL     1      -1.877  -1.992   0.009  0.00  0.00    +0.037 C 
BRANCH  29  30
ATOM     30  C   UNL     1      -1.752  -0.467   0.016  0.00  0.00    +0.071 C 
BRANCH  30  32
ATOM     31  C   UNL     1      -0.022   1.810   0.012  0.00  0.00    +0.084 C 
ATOM     32  S   UNL     1       0.002  -0.004   0.002  0.00  0.00    -0.164 S 
ENDBRANCH  30  32
ENDBRANCH  29  30
ENDBRANCH   1  29
TORSDOF 8
