REMARK  Name = ZINC08836593
REMARK  17 active torsions:
REMARK  status: ('A' for Active; 'I' for Inactive)
REMARK    1  A    between atoms: C_1  and  C_2
REMARK    2  A    between atoms: C_2  and  O_3
REMARK    3  A    between atoms: O_3  and  C_4
REMARK    4  A    between atoms: C_4  and  C_6
REMARK    5  A    between atoms: C_7  and  C_41
REMARK    6  A    between atoms: C_8  and  C_13
REMARK    7  A    between atoms: C_9  and  C_12
REMARK    8  A    between atoms: C_13  and  C_15
REMARK    9  A    between atoms: N_19  and  C_32
REMARK   10  A    between atoms: C_20  and  C_22
REMARK   11  A    between atoms: C_25  and  C_28
REMARK   12  A    between atoms: C_28  and  C_29
REMARK   13  A    between atoms: C_28  and  C_30
REMARK   14  A    between atoms: C_28  and  C_31
REMARK   15  A    between atoms: C_32  and  C_33
REMARK   16  A    between atoms: C_33  and  C_34
REMARK   17  A    between atoms: C_34  and  N_35
REMARK                            x       y       z     vdW  Elec       q    Type
REMARK                         _______ _______ _______ _____ _____    ______ ____
ROOT
ATOM      1  C   UNL     1       3.769  -5.512  -5.920  0.00  0.00    +0.076 C 
ATOM      2  C   UNL     1       3.917  -6.629  -6.668  0.00  0.00    +0.249 C 
ATOM      3  C   UNL     1       4.723  -6.309  -7.865  0.00  0.00    +0.288 C 
ATOM      4  O   UNL     1       5.029  -7.102  -8.732  0.00  0.00    -0.266 OA
ATOM      5  N   UNL     1       5.067  -5.008  -7.852  0.00  0.00    -0.283 N 
ATOM      6  C   UNL     1       4.496  -4.402  -6.643  0.00  0.00    +0.145 C 
ATOM      7  O   UNL     1       3.408  -7.846  -6.369  0.00  0.00    -0.282 OA
ENDROOT
BRANCH   6   8
ATOM      8  C   UNL     1       5.597  -3.852  -5.774  0.00  0.00    -0.022 A 
ATOM      9  C   UNL     1       6.757  -4.580  -5.583  0.00  0.00    +0.006 A 
ATOM     10  C   UNL     1       7.767  -4.075  -4.785  0.00  0.00    +0.004 A 
ATOM     11  C   UNL     1       7.617  -2.841  -4.179  0.00  0.00    -0.042 A 
ATOM     12  C   UNL     1       6.458  -2.113  -4.371  0.00  0.00    +0.004 A 
ATOM     13  C   UNL     1       5.450  -2.616  -5.172  0.00  0.00    +0.006 A 
BRANCH  11  14
ATOM     14  C   UNL     1       8.718  -2.291  -3.309  0.00  0.00    -0.013 C 
ATOM     15  C   UNL     1       9.997  -2.144  -4.136  0.00  0.00    +0.015 C 
ATOM     16  C   UNL     1       8.302  -0.923  -2.765  0.00  0.00    +0.015 C 
ATOM     17  C   UNL     1       8.972  -3.248  -2.142  0.00  0.00    +0.015 C 
ENDBRANCH  11  14
ENDBRANCH   6   8
BRANCH   1  18
ATOM     18  C   UNL     1       3.038  -5.398  -4.653  0.00  0.00    +0.197 C 
ATOM     19  O   UNL     1       3.647  -5.343  -3.601  0.00  0.00    -0.287 OA
BRANCH  18  22
ATOM     20  C   UNL     1      -0.562  -5.292  -3.974  0.00  0.00    +0.128 A 
ATOM     21  C   UNL     1       0.723  -5.343  -3.519  0.00  0.00    -0.008 A 
ATOM     22  C   UNL     1       1.564  -5.350  -4.654  0.00  0.00    +0.046 A 
ATOM     23  C   UNL     1       0.744  -5.302  -5.768  0.00  0.00    +0.025 A 
ATOM     24  N   UNL     1      -0.532  -5.273  -5.353  0.00  0.00    -0.352 N 
ATOM     25  H   UNL     1      -1.311  -5.241  -5.931  0.00  0.00    +0.166 HD
ATOM     26  C   UNL     1       1.204  -5.291  -7.203  0.00  0.00    +0.064 C 
ATOM     27  C   UNL     1       1.162  -5.383  -2.078  0.00  0.00    +0.047 C 
BRANCH  20  28
ATOM     28  C   UNL     1      -1.768  -5.268  -3.141  0.00  0.00    +0.356 C 
ATOM     29  O   UNL     1      -1.670  -5.289  -1.929  0.00  0.00    -0.243 OA
BRANCH  28  30
ATOM     30  O   UNL     1      -2.986  -5.223  -3.718  0.00  0.00    -0.460 OA
BRANCH  30  32
ATOM     31  C   UNL     1      -5.401  -5.151  -3.676  0.00  0.00    +0.048 C 
ATOM     32  C   UNL     1      -4.117  -5.202  -2.845  0.00  0.00    +0.229 C 
ENDBRANCH  30  32
ENDBRANCH  28  30
ENDBRANCH  20  28
ENDBRANCH  18  22
ENDBRANCH   1  18
BRANCH   5  33
ATOM     33  C   UNL     1       5.865  -4.317  -8.868  0.00  0.00    +0.111 C 
BRANCH  33  34
ATOM     34  C   UNL     1       4.938  -3.750  -9.946  0.00  0.00    +0.040 C 
BRANCH  34  35
ATOM     35  C   UNL     1       5.771  -3.029 -11.007  0.00  0.00    +0.124 C 
BRANCH  35  36
ATOM     36  N   UNL     1       4.884  -2.486 -12.039  0.00  0.00    -0.338 N 
ATOM     37  C   UNL     1       4.475  -3.127 -13.177  0.00  0.00    +0.104 A 
ATOM     38  C   UNL     1       3.672  -2.272 -13.838  0.00  0.00    +0.101 A 
ATOM     39  N   UNL     1       3.592  -1.140 -13.123  0.00  0.00    -0.352 N 
ATOM     40  C   UNL     1       4.311  -1.263 -12.041  0.00  0.00    +0.173 A 
ATOM     41  H   UNL     1       3.078  -0.355 -13.369  0.00  0.00    +0.166 HD
ENDBRANCH  35  36
ENDBRANCH  34  35
ENDBRANCH  33  34
ENDBRANCH   5  33
TORSDOF 11
