REMARK  Name = ZINC13140985
REMARK  7 active torsions:
REMARK  status: ('A' for Active; 'I' for Inactive)
REMARK    1  A    between atoms: C_1  and  C_2
REMARK    2  A    between atoms: C_5  and  S_8
REMARK    3  A    between atoms: S_8  and  N_11
REMARK    4  A    between atoms: C_17  and  C_19
REMARK    5  A    between atoms: C_19  and  N_20
REMARK    6  A    between atoms: C_23  and  C_27
REMARK    7  A    between atoms: C_23  and  C_28
REMARK                            x       y       z     vdW  Elec       q    Type
REMARK                         _______ _______ _______ _____ _____    ______ ____
ROOT
ATOM      1  C   UNL     1      -0.109   4.497   6.318  0.00  0.00    +0.213 C 
ENDROOT
BRANCH   1   2
ATOM      2  N   UNL     1       0.166   4.919   7.693  0.00  0.00    -0.215 N 
ATOM      3  C   UNL     1       0.320   4.071   8.729  0.00  0.00    +0.251 C 
ATOM      4  O   UNL     1       0.259   2.860   8.700  0.00  0.00    -0.272 OA
ATOM      5  C   UNL     1       0.586   4.945   9.939  0.00  0.00    +0.135 C 
ATOM      6  N   UNL     1       0.540   6.313   9.394  0.00  0.00    -0.281 N 
ATOM      7  C   UNL     1       0.290   6.195   8.078  0.00  0.00    +0.310 C 
ATOM      8  O   UNL     1       0.187   7.141   7.322  0.00  0.00    -0.252 OA
ATOM      9  C   UNL     1       1.965   4.649  10.533  0.00  0.00    +0.047 C 
ATOM     10  H   UNL     1       0.666   7.138   9.888  0.00  0.00    +0.152 HD
BRANCH   5  11
ATOM     11  C   UNL     1      -0.490   4.751  10.976  0.00  0.00    -0.015 A 
ATOM     12  C   UNL     1      -1.071   3.494  11.134  0.00  0.00    +0.007 A 
ATOM     13  C   UNL     1      -2.042   3.284  12.065  0.00  0.00    +0.009 A 
ATOM     14  C   UNL     1      -2.474   4.350  12.872  0.00  0.00    -0.018 A 
ATOM     15  C   UNL     1      -3.478   4.172  13.840  0.00  0.00    +0.008 A 
ATOM     16  C   UNL     1      -3.871   5.228  14.604  0.00  0.00    +0.001 A 
ATOM     17  C   UNL     1      -3.293   6.486  14.441  0.00  0.00    +0.001 A 
ATOM     18  C   UNL     1      -2.318   6.695  13.515  0.00  0.00    +0.008 A 
ATOM     19  C   UNL     1      -1.887   5.629  12.707  0.00  0.00    -0.018 A 
ATOM     20  C   UNL     1      -0.883   5.806  11.739  0.00  0.00    +0.014 A 
ENDBRANCH   5  11
ENDBRANCH   1   2
BRANCH   1  27
ATOM     21  N   UNL     1       1.155   4.329   1.596  0.00  0.00    -0.174 NA
ATOM     22  C   UNL     1      -0.106   4.535   2.321  0.00  0.00    +0.128 C 
ATOM     23  C   UNL     1      -0.083   3.668   3.591  0.00  0.00    +0.125 C 
ATOM     24  N   UNL     1       1.186   3.903   4.295  0.00  0.00    -0.298 N 
ATOM     25  C   UNL     1       2.447   3.702   3.568  0.00  0.00    +0.125 C 
ATOM     26  C   UNL     1       2.424   4.564   2.300  0.00  0.00    +0.128 C 
ATOM     27  C   UNL     1       1.193   4.295   5.585  0.00  0.00    +0.234 C 
ATOM     28  O   UNL     1       2.246   4.485   6.155  0.00  0.00    -0.274 OA
BRANCH  21  29
ATOM     29  S   UNL     1       1.147   3.847   0.011  0.00  0.00    +0.061 S 
ATOM     30  O   UNL     1       2.382   4.273  -0.549  0.00  0.00    -0.153 OA
ATOM     31  O   UNL     1      -0.109   4.239  -0.526  0.00  0.00    -0.153 OA
BRANCH  29  36
ATOM     32  C   UNL     1       1.229  -2.186  -0.022  0.00  0.00    +0.044 C 
ATOM     33  C   UNL     1       1.208  -0.679  -0.014  0.00  0.00    -0.050 A 
ATOM     34  C   UNL     1       0.002  -0.004   0.002  0.00  0.00    +0.005 A 
ATOM     35  C   UNL     1      -0.017   1.378   0.010  0.00  0.00    +0.029 A 
ATOM     36  C   UNL     1       1.171   2.086   0.002  0.00  0.00    +0.105 A 
ATOM     37  C   UNL     1       2.377   1.411  -0.014  0.00  0.00    +0.029 A 
ATOM     38  C   UNL     1       2.396   0.029  -0.021  0.00  0.00    +0.005 A 
ENDBRANCH  29  36
ENDBRANCH  21  29
ENDBRANCH   1  27
TORSDOF 5
