REMARK  Name = ZINC14732485
REMARK  6 active torsions:
REMARK  status: ('A' for Active; 'I' for Inactive)
REMARK    1  A    between atoms: C_1  and  C_2
REMARK    2  A    between atoms: C_2  and  N_3
REMARK    3  A    between atoms: N_6  and  C_27
REMARK    4  A    between atoms: C_14  and  C_15
REMARK    5  A    between atoms: C_14  and  N_66
REMARK    6  A    between atoms: C_20  and  C_21
REMARK                            x       y       z     vdW  Elec       q    Type
REMARK                         _______ _______ _______ _____ _____    ______ ____
ROOT
ATOM      1  N   UNL     1       6.154   2.505  -2.013  0.00  0.00    -0.271 N 
ATOM      2  C   UNL     1       4.867   2.497  -1.616  0.00  0.00    +0.312 C 
ATOM      3  O   UNL     1       3.924   2.449  -2.382  0.00  0.00    -0.252 OA
ATOM      4  N   UNL     1       4.743   2.546  -0.284  0.00  0.00    -0.220 N 
ATOM      5  C   UNL     1       5.946   2.596   0.325  0.00  0.00    +0.247 C 
ATOM      6  O   UNL     1       6.163   2.651   1.516  0.00  0.00    -0.273 OA
ATOM      7  C   UNL     1       6.964   2.566  -0.790  0.00  0.00    +0.112 C 
ATOM      8  C   UNL     1       7.808   3.837  -0.771  0.00  0.00    +0.017 C 
ATOM      9  C   UNL     1       8.848   3.772  -1.894  0.00  0.00    -0.076 C 
ATOM     10  C   UNL     1       8.892   1.349  -1.800  0.00  0.00    -0.076 C 
ATOM     11  C   UNL     1       7.854   1.333  -0.674  0.00  0.00    +0.017 C 
ATOM     12  N   UNL     1       9.701   2.582  -1.687  0.00  0.00    +0.383 N 
ATOM     13  H   UNL     1      10.111   2.625  -0.746  0.00  0.00    -0.081 HD
ENDROOT
BRANCH   4  14
ATOM     14  C   UNL     1       3.460   2.550   0.424  0.00  0.00    +0.094 C 
ATOM     15  C   UNL     1       2.581   1.365  -0.026  0.00  0.00    +0.058 C 
ATOM     16  C   UNL     1       1.162   1.893  -0.005  0.00  0.00    -0.042 A 
ATOM     17  C   UNL     1      -0.047   1.218  -0.005  0.00  0.00    +0.004 A 
ATOM     18  C   UNL     1      -1.235   1.921   0.011  0.00  0.00    +0.000 A 
ATOM     19  C   UNL     1      -1.219   3.303   0.037  0.00  0.00    +0.000 A 
ATOM     20  C   UNL     1      -0.014   3.978   0.036  0.00  0.00    +0.004 A 
ATOM     21  C   UNL     1       1.179   3.275   0.015  0.00  0.00    -0.042 A 
ATOM     22  C   UNL     1       2.609   3.770   0.009  0.00  0.00    +0.058 C 
ENDBRANCH   4  14
BRANCH   1  24
ATOM     23  C   UNL     1       6.304   1.106  -4.014  0.00  0.00    +0.024 C 
ATOM     24  C   UNL     1       6.648   2.461  -3.392  0.00  0.00    +0.107 C 
ENDBRANCH   1  24
BRANCH  12  25
ATOM     25  C   UNL     1      10.791   2.563  -2.684  0.00  0.00    -0.039 C 
BRANCH  25  26
ATOM     26  C   UNL     1      11.431   3.926  -2.741  0.00  0.00    -0.019 A 
ATOM     27  C   UNL     1      11.209   4.870  -3.682  0.00  0.00    +0.107 A 
ATOM     28  N   UNL     1      11.969   5.945  -3.381  0.00  0.00    -0.284 N 
ATOM     29  H   UNL     1      12.011   6.798  -3.901  0.00  0.00    +0.188 HD
ATOM     30  N   UNL     1      12.686   5.658  -2.212  0.00  0.00    -0.174 NA
ATOM     31  C   UNL     1      12.362   4.444  -1.820  0.00  0.00    +0.094 A 
BRANCH  31  32
ATOM     32  C   UNL     1      12.886   3.744  -0.621  0.00  0.00    +0.002 A 
ATOM     33  C   UNL     1      12.061   2.889   0.106  0.00  0.00    +0.010 A 
ATOM     34  C   UNL     1      12.556   2.236   1.217  0.00  0.00    +0.001 A 
ATOM     35  C   UNL     1      13.866   2.438   1.615  0.00  0.00    +0.000 A 
ATOM     36  C   UNL     1      14.687   3.290   0.899  0.00  0.00    +0.001 A 
ATOM     37  C   UNL     1      14.204   3.944  -0.216  0.00  0.00    +0.010 A 
ENDBRANCH  31  32
ENDBRANCH  25  26
ENDBRANCH  12  25
TORSDOF 5
