REMARK  Name = ZINC35395925
REMARK  12 active torsions:
REMARK  status: ('A' for Active; 'I' for Inactive)
REMARK    1  A    between atoms: C_1  and  C_2
REMARK    2  A    between atoms: C_2  and  C_3
REMARK    3  A    between atoms: C_3  and  C_4
REMARK    4  A    between atoms: C_4  and  N_5
REMARK    5  A    between atoms: C_10  and  C_32
REMARK    6  A    between atoms: C_13  and  C_18
REMARK    7  A    between atoms: C_13  and  C_29
REMARK    8  A    between atoms: C_18  and  C_19
REMARK    9  A    between atoms: C_35  and  O_38
REMARK   10  A    between atoms: O_38  and  C_39
REMARK   11  A    between atoms: C_39  and  C_40
REMARK   12  A    between atoms: C_40  and  C_41
REMARK                            x       y       z     vdW  Elec       q    Type
REMARK                         _______ _______ _______ _____ _____    ______ ____
ROOT
ATOM      1  N   UNL     1      -2.787  -2.571   0.015  0.00  0.00    -0.242 N 
ATOM      2  C   UNL     1      -3.492  -2.834   1.163  0.00  0.00    +0.224 C 
ATOM      3  O   UNL     1      -3.212  -2.502   2.295  0.00  0.00    -0.275 OA
ATOM      4  C   UNL     1      -4.637  -3.594   0.726  0.00  0.00    +0.077 C 
ATOM      5  C   UNL     1      -5.992  -3.964   1.169  0.00  0.00    -0.027 C 
ATOM      6  N   UNL     1      -6.568  -4.590  -0.071  0.00  0.00    +0.396 N 
ATOM      7  C   UNL     1      -5.809  -4.063  -1.244  0.00  0.00    +0.052 C 
ATOM      8  C   UNL     1      -4.941  -2.930  -0.675  0.00  0.00    +0.086 C 
ATOM      9  C   UNL     1      -3.508  -2.826  -1.117  0.00  0.00    +0.225 C 
ATOM     10  O   UNL     1      -3.080  -2.947  -2.245  0.00  0.00    -0.275 OA
ATOM     11  H   UNL     1      -6.471  -5.593  -0.024  0.00  0.00    -0.083 HD
ATOM     12  H   UNL     1      -7.543  -4.344  -0.156  0.00  0.00    -0.083 HD
ENDROOT
BRANCH   5  13
ATOM     13  C   UNL     1      -5.935  -4.960   2.299  0.00  0.00    -0.060 A 
ATOM     14  C   UNL     1      -5.709  -6.297   2.029  0.00  0.00    +0.005 A 
ATOM     15  C   UNL     1      -5.657  -7.212   3.063  0.00  0.00    +0.046 A 
ATOM     16  C   UNL     1      -5.832  -6.789   4.372  0.00  0.00    +0.121 A 
ATOM     17  C   UNL     1      -6.058  -5.447   4.640  0.00  0.00    +0.046 A 
ATOM     18  C   UNL     1      -6.104  -4.535   3.603  0.00  0.00    +0.005 A 
BRANCH  16  19
ATOM     19  O   UNL     1      -5.781  -7.687   5.391  0.00  0.00    -0.492 OA
BRANCH  19  20
ATOM     20  C   UNL     1      -5.970  -7.179   6.713  0.00  0.00    +0.229 C 
BRANCH  20  21
ATOM     21  C   UNL     1      -5.881  -8.329   7.718  0.00  0.00    +0.038 C 
ATOM     22  C   UNL     1      -6.083  -7.786   9.134  0.00  0.00    +0.007 C 
ENDBRANCH  20  21
ENDBRANCH  19  20
ENDBRANCH  16  19
ENDBRANCH   5  13
BRANCH   7  23
ATOM     23  C   UNL     1      -6.760  -3.509  -2.274  0.00  0.00    +0.347 C 
ATOM     24  O   UNL     1      -7.963  -3.563  -2.085  0.00  0.00    -0.248 OA
ATOM     25  O   UNL     1      -6.325  -3.006  -3.296  0.00  0.00    -0.248 OA
ENDBRANCH   7  23
BRANCH   1  26
ATOM     26  C   UNL     1      -1.413  -2.063   0.004  0.00  0.00    +0.116 C 
BRANCH  26  27
ATOM     27  C   UNL     1      -1.433  -0.534   0.013  0.00  0.00    +0.019 C 
BRANCH  27  29
ATOM     28  C   UNL     1      -0.019   1.526   0.010  0.00  0.00    +0.004 C 
ATOM     29  C   UNL     1       0.002  -0.004   0.002  0.00  0.00    -0.002 C 
ENDBRANCH  27  29
ENDBRANCH  26  27
ENDBRANCH   1  26
BRANCH   7  30
ATOM     30  C   UNL     1      -4.947  -5.168  -1.857  0.00  0.00    +0.037 C 
BRANCH  30  31
ATOM     31  C   UNL     1      -5.834  -6.285  -2.344  0.00  0.00    -0.023 A 
ATOM     32  C   UNL     1      -6.159  -7.398  -1.668  0.00  0.00    +0.087 A 
ATOM     33  N   UNL     1      -6.983  -8.182  -2.429  0.00  0.00    -0.360 N 
ATOM     34  H   UNL     1      -7.350  -9.037  -2.153  0.00  0.00    +0.165 HD
ATOM     35  C   UNL     1      -7.213  -7.577  -3.644  0.00  0.00    +0.047 A 
ATOM     36  C   UNL     1      -6.509  -6.359  -3.642  0.00  0.00    +0.003 A 
ATOM     37  C   UNL     1      -6.563  -5.521  -4.757  0.00  0.00    +0.010 A 
ATOM     38  C   UNL     1      -7.305  -5.886  -5.845  0.00  0.00    +0.001 A 
ATOM     39  C   UNL     1      -8.005  -7.085  -5.850  0.00  0.00    +0.002 A 
ATOM     40  C   UNL     1      -7.958  -7.931  -4.764  0.00  0.00    +0.026 A 
ENDBRANCH  30  31
ENDBRANCH   7  30
TORSDOF 10
