REMARK  Name = ZINC20719441
REMARK  7 active torsions:
REMARK  status: ('A' for Active; 'I' for Inactive)
REMARK    1  A    between atoms: C_1  and  O_2
REMARK    2  A    between atoms: O_2  and  C_3
REMARK    3  A    between atoms: C_12  and  C_13
REMARK    4  A    between atoms: C_24  and  S_29
REMARK    5  A    between atoms: S_29  and  N_32
REMARK    6  A    between atoms: N_32  and  C_33
REMARK    7  A    between atoms: C_33  and  C_34
REMARK                            x       y       z     vdW  Elec       q    Type
REMARK                         _______ _______ _______ _____ _____    ______ ____
ROOT
ATOM      1  C   UNL     1       1.240   6.095   5.329  0.00  0.00    +0.109 C 
ATOM      2  C   UNL     1       1.520   7.325   4.485  0.00  0.00    +0.029 C 
ATOM      3  C   UNL     1       1.087   8.681   5.059  0.00  0.00    +0.033 C 
ATOM      4  C   UNL     1       0.809   9.480   3.785  0.00  0.00    -0.030 C 
ATOM      5  C   UNL     1       0.492   8.657   2.793  0.00  0.00    -0.023 C 
ATOM      6  C   UNL     1       0.517   7.249   3.295  0.00  0.00    +0.049 C 
ATOM      7  C   UNL     1       0.902   6.098   2.450  0.00  0.00    -0.018 A 
ATOM      8  C   UNL     1       0.762   6.107   1.079  0.00  0.00    +0.034 A 
ATOM      9  C   UNL     1       1.112   4.995   0.335  0.00  0.00    +0.106 A 
ATOM     10  C   UNL     1       1.618   3.873   0.966  0.00  0.00    +0.030 A 
ATOM     11  C   UNL     1       1.774   3.860   2.336  0.00  0.00    +0.025 A 
ATOM     12  C   UNL     1       1.421   4.970   3.094  0.00  0.00    +0.031 A 
ATOM     13  N   UNL     1       1.606   4.939   4.481  0.00  0.00    -0.336 N 
ATOM     14  H   UNL     1       2.033   4.034   4.939  0.00  0.00    +0.147 HD
ENDROOT
BRANCH   1  24
ATOM     15  C   UNL     1      -1.081   5.271   4.952  0.00  0.00    +0.126 A 
ATOM     16  C   UNL     1      -2.439   5.198   5.280  0.00  0.00    +0.046 A 
ATOM     17  C   UNL     1      -2.940   5.889   6.338  0.00  0.00    +0.012 A 
ATOM     18  C   UNL     1      -2.085   6.685   7.120  0.00  0.00    -0.017 A 
ATOM     19  C   UNL     1      -2.570   7.413   8.219  0.00  0.00    +0.008 A 
ATOM     20  C   UNL     1      -1.714   8.174   8.954  0.00  0.00    +0.001 A 
ATOM     21  C   UNL     1      -0.360   8.245   8.633  0.00  0.00    +0.001 A 
ATOM     22  C   UNL     1       0.146   7.554   7.575  0.00  0.00    +0.009 A 
ATOM     23  C   UNL     1      -0.708   6.757   6.793  0.00  0.00    -0.009 A 
ATOM     24  C   UNL     1      -0.221   6.031   5.693  0.00  0.00    +0.022 A 
BRANCH  15  26
ATOM     25  C   UNL     1      -1.558   3.797   3.149  0.00  0.00    +0.277 C 
ATOM     26  O   UNL     1      -0.611   4.574   3.885  0.00  0.00    -0.495 OA
ENDBRANCH  15  26
ENDBRANCH   1  24
BRANCH   9  27
ATOM     27  S   UNL     1       0.920   5.011  -1.416  0.00  0.00    +0.058 S 
ATOM     28  O   UNL     1       1.833   4.054  -1.934  0.00  0.00    -0.153 OA
ATOM     29  O   UNL     1       0.938   6.375  -1.815  0.00  0.00    -0.153 OA
BRANCH  27  30
ATOM     30  N   UNL     1      -0.600   4.442  -1.747  0.00  0.00    -0.187 NA
ATOM     31  H   UNL     1      -0.718   3.421  -2.139  0.00  0.00    +0.148 HD
BRANCH  30  32
ATOM     32  C   UNL     1      -1.776   5.203  -1.319  0.00  0.00    +0.137 C 
BRANCH  32  33
ATOM     33  C   UNL     1      -3.014   4.687  -2.057  0.00  0.00    +0.134 C 
ATOM     34  C   UNL     1      -4.265   5.502  -1.644  0.00  0.00    +0.035 C 
ATOM     35  C   UNL     1      -5.172   5.299  -2.889  0.00  0.00    +0.031 C 
ATOM     36  C   UNL     1      -4.144   5.244  -4.040  0.00  0.00    +0.160 C 
ATOM     37  O   UNL     1      -2.876   4.898  -3.471  0.00  0.00    -0.375 OA
ENDBRANCH  32  33
ENDBRANCH  30  32
ENDBRANCH  27  30
ENDBRANCH   9  27
TORSDOF 6
