REMARK  Name = ZINC64173352
REMARK  7 active torsions:
REMARK  status: ('A' for Active; 'I' for Inactive)
REMARK    1  A    between atoms: C_1  and  C_2
REMARK    2  A    between atoms: C_4  and  C_12
REMARK    3  A    between atoms: C_18  and  C_20
REMARK    4  A    between atoms: C_20  and  C_22
REMARK    5  A    between atoms: C_20  and  N_32
REMARK    6  A    between atoms: C_22  and  C_23
REMARK    7  A    between atoms: C_33  and  C_35
REMARK                            x       y       z     vdW  Elec       q    Type
REMARK                         _______ _______ _______ _____ _____    ______ ____
ROOT
ATOM      1  C   UNL     1       0.379  -0.285  -2.575  0.00  0.00    +0.079 A 
ATOM      2  C   UNL     1       1.196  -0.730  -3.606  0.00  0.00    +0.076 A 
ATOM      3  S   UNL     1       0.358  -0.230  -4.976  0.00  0.00    -0.060 S 
ATOM      4  C   UNL     1      -1.030   0.543  -4.167  0.00  0.00    +0.165 A 
ATOM      5  N   UNL     1      -0.752   0.356  -2.895  0.00  0.00    -0.225 NA
ATOM      6  N   UNL     1      -2.126   1.176  -4.734  0.00  0.00    -0.263 N 
ATOM      7  C   UNL     1      -2.236   1.262  -6.075  0.00  0.00    +0.239 C 
ATOM      8  O   UNL     1      -1.375   0.787  -6.785  0.00  0.00    -0.273 OA
ATOM      9  H   UNL     1      -2.814   1.557  -4.166  0.00  0.00    +0.157 HD
ENDROOT
BRANCH   1  12
ATOM     10  C   UNL     1       1.782  -2.769  -1.166  0.00  0.00    +0.035 C 
ATOM     11  C   UNL     1       1.898  -1.315  -0.705  0.00  0.00    +0.109 C 
ATOM     12  C   UNL     1       0.728  -0.508  -1.226  0.00  0.00    +0.009 C 
ATOM     13  C   UNL     1       0.068  -0.033  -0.096  0.00  0.00    +0.005 A 
ATOM     14  C   UNL     1      -1.082   0.770   0.069  0.00  0.00    +0.010 A 
ATOM     15  C   UNL     1      -1.509   1.086   1.318  0.00  0.00    +0.001 A 
ATOM     16  C   UNL     1      -0.837   0.636   2.457  0.00  0.00    +0.002 A 
ATOM     17  C   UNL     1       0.273  -0.138   2.373  0.00  0.00    +0.026 A 
ATOM     18  C   UNL     1       0.779  -0.510   1.101  0.00  0.00    +0.043 A 
ATOM     19  N   UNL     1       1.824  -1.241   0.757  0.00  0.00    -0.377 N 
ATOM     20  H   UNL     1       2.443  -1.662   1.373  0.00  0.00    +0.160 HD
ENDBRANCH   1  12
BRANCH   7  21
ATOM     21  C   UNL     1      -3.426   1.950  -6.691  0.00  0.00    +0.163 C 
BRANCH  21  22
ATOM     22  N   UNL     1      -3.108   2.337  -8.068  0.00  0.00    -0.304 N 
ATOM     23  C   UNL     1      -2.772   1.397  -8.972  0.00  0.00    +0.211 C 
ATOM     24  O   UNL     1      -2.732   0.229  -8.646  0.00  0.00    -0.276 OA
ATOM     25  C   UNL     1      -2.444   1.795 -10.388  0.00  0.00    +0.109 C 
ATOM     26  H   UNL     1      -3.140   3.271  -8.328  0.00  0.00    +0.149 HD
ENDBRANCH  21  22
BRANCH  21  27
ATOM     27  C   UNL     1      -4.622   0.995  -6.694  0.00  0.00    +0.065 C 
BRANCH  27  28
ATOM     28  C   UNL     1      -5.843   1.721  -7.196  0.00  0.00    -0.039 C 
ATOM     29  C   UNL     1      -6.318   1.733  -8.462  0.00  0.00    -0.001 A 
ATOM     30  C   UNL     1      -5.857   1.101  -9.704  0.00  0.00    +0.010 A 
ATOM     31  C   UNL     1      -6.557   1.303 -10.843  0.00  0.00    +0.001 A 
ATOM     32  C   UNL     1      -7.709   2.101 -10.868  0.00  0.00    +0.002 A 
ATOM     33  C   UNL     1      -8.195   2.715  -9.768  0.00  0.00    +0.026 A 
ATOM     34  C   UNL     1      -7.538   2.570  -8.515  0.00  0.00    +0.043 A 
ATOM     35  N   UNL     1      -7.807   3.056  -7.328  0.00  0.00    -0.380 N 
ATOM     36  C   UNL     1      -6.790   2.577  -6.385  0.00  0.00    +0.144 C 
ATOM     37  H   UNL     1      -8.556   3.633  -7.108  0.00  0.00    +0.160 HD
ENDBRANCH  27  28
ENDBRANCH  21  27
ENDBRANCH   7  21
TORSDOF 5
