REMARK  Name = ZINC22709212
REMARK  11 active torsions:
REMARK  status: ('A' for Active; 'I' for Inactive)
REMARK    1  A    between atoms: C_1  and  C_2
REMARK    2  A    between atoms: C_4  and  C_15
REMARK    3  A    between atoms: C_5  and  C_14
REMARK    4  A    between atoms: N_6  and  C_7
REMARK    5  A    between atoms: C_7  and  C_8
REMARK    6  A    between atoms: C_8  and  C_9
REMARK    7  A    between atoms: C_15  and  C_17
REMARK    8  A    between atoms: C_17  and  O_18
REMARK    9  A    between atoms: O_18  and  C_19
REMARK   10  A    between atoms: C_19  and  C_21
REMARK   11  A    between atoms: C_23  and  N_29
REMARK                            x       y       z     vdW  Elec       q    Type
REMARK                         _______ _______ _______ _____ _____    ______ ____
ROOT
ATOM      1  C   UNL     1      -6.906  -2.178   1.462  0.00  0.00    +0.202 C 
ATOM      2  O   UNL     1      -6.345  -3.254   1.453  0.00  0.00    -0.288 OA
ENDROOT
BRANCH   1   6
ATOM      3  C   UNL     1      -5.598   2.746   1.499  0.00  0.00    +0.063 C 
ATOM      4  C   UNL     1      -5.561   1.240   1.482  0.00  0.00    +0.017 A 
ATOM      5  C   UNL     1      -6.636   0.434   1.476  0.00  0.00    +0.034 A 
ATOM      6  C   UNL     1      -6.121  -0.942   1.465  0.00  0.00    +0.042 A 
ATOM      7  C   UNL     1      -4.743  -0.831   1.460  0.00  0.00    +0.026 A 
ATOM      8  N   UNL     1      -4.429   0.477   1.466  0.00  0.00    -0.347 N 
ATOM      9  C   UNL     1      -3.764  -1.976   1.449  0.00  0.00    +0.064 C 
BRANCH   8  10
ATOM     10  C   UNL     1      -3.063   1.008   1.463  0.00  0.00    +0.127 C 
BRANCH  10  11
ATOM     11  C   UNL     1      -2.594   1.202   0.020  0.00  0.00    +0.064 C 
BRANCH  11  12
ATOM     12  C   UNL     1      -1.190   1.748   0.017  0.00  0.00    -0.009 A 
ATOM     13  C   UNL     1      -0.013   1.076   0.008  0.00  0.00    +0.011 A 
ATOM     14  C   UNL     1       1.169   1.793   0.001  0.00  0.00    +0.008 A 
ATOM     15  C   UNL     1       1.115   3.148   0.008  0.00  0.00    +0.045 A 
ATOM     16  S   UNL     1      -0.644   3.448   0.027  0.00  0.00    -0.102 S 
ENDBRANCH  11  12
ENDBRANCH  10  11
ENDBRANCH   8  10
ENDBRANCH   1   6
BRANCH   1  17
ATOM     17  C   UNL     1      -8.412  -2.115   1.468  0.00  0.00    +0.312 C 
BRANCH  17  18
ATOM     18  O   UNL     1      -8.954  -3.462   1.463  0.00  0.00    -0.452 OA
BRANCH  18  19
ATOM     19  C   UNL     1     -10.295  -3.581   1.468  0.00  0.00    +0.360 C 
ATOM     20  O   UNL     1     -10.993  -2.588   1.477  0.00  0.00    -0.243 OA
BRANCH  19  21
ATOM     21  C   UNL     1     -10.918  -4.923   1.463  0.00  0.00    +0.169 A 
ATOM     22  C   UNL     1     -12.305  -5.039   1.474  0.00  0.00    +0.095 A 
ATOM     23  C   UNL     1     -12.877  -6.312   1.464  0.00  0.00    +0.067 A 
ATOM     24  C   UNL     1     -12.029  -7.418   1.455  0.00  0.00    +0.100 A 
ATOM     25  C   UNL     1     -10.657  -7.221   1.450  0.00  0.00    +0.150 A 
ATOM     26  N   UNL     1     -10.148  -6.007   1.454  0.00  0.00    -0.226 NA
ATOM     27 CL   UNL     1      -9.595  -8.594   1.437  0.00  0.00    -0.060 Cl
ATOM     28 CL   UNL     1     -12.684  -9.026   1.449  0.00  0.00    -0.078 Cl
ATOM     29 CL   UNL     1     -13.308  -3.623   1.494  0.00  0.00    -0.079 Cl
BRANCH  23  30
ATOM     30  N   UNL     1     -14.261  -6.473   1.470  0.00  0.00    -0.356 N 
ATOM     31  H   UNL     1     -14.697  -7.483   1.462  0.00  0.00    +0.142 HD
ATOM     32  H   UNL     1     -14.918  -5.591   1.482  0.00  0.00    +0.142 HD
ENDBRANCH  23  30
ENDBRANCH  19  21
ENDBRANCH  18  19
ENDBRANCH  17  18
ENDBRANCH   1  17
TORSDOF 9
