REMARK  Name = ZINC36597626
REMARK  11 active torsions:
REMARK  status: ('A' for Active; 'I' for Inactive)
REMARK    1  A    between atoms: C_1  and  C_2
REMARK    2  A    between atoms: C_5  and  C_8
REMARK    3  A    between atoms: C_8  and  C_10
REMARK    4  A    between atoms: C_8  and  N_19
REMARK    5  A    between atoms: N_12  and  C_13
REMARK    6  A    between atoms: N_19  and  C_20
REMARK    7  A    between atoms: C_20  and  C_21
REMARK    8  A    between atoms: C_24  and  C_26
REMARK    9  A    between atoms: C_27  and  C_29
REMARK   10  A    between atoms: C_30  and  O_36
REMARK   11  A    between atoms: C_34  and  O_35
REMARK                            x       y       z     vdW  Elec       q    Type
REMARK                         _______ _______ _______ _____ _____    ______ ____
ROOT
ATOM      1  N   UNL     1      -0.767  -4.750   1.025  0.00  0.00    -0.274 N 
ATOM      2  C   UNL     1      -2.104  -4.763   0.860  0.00  0.00    +0.255 C 
ATOM      3  O   UNL     1      -2.607  -4.184  -0.084  0.00  0.00    -0.270 OA
ENDROOT
BRANCH   2   4
ATOM      4  C   UNL     1      -2.958  -5.479   1.824  0.00  0.00    +0.119 A 
ATOM      5  C   UNL     1      -3.464  -4.813   2.949  0.00  0.00    +0.133 A 
ATOM      6  C   UNL     1      -4.266  -5.495   3.849  0.00  0.00    +0.046 A 
ATOM      7  C   UNL     1      -4.568  -6.828   3.641  0.00  0.00    +0.007 A 
ATOM      8  C   UNL     1      -4.074  -7.494   2.535  0.00  0.00    +0.046 A 
ATOM      9  C   UNL     1      -3.275  -6.830   1.619  0.00  0.00    +0.133 A 
BRANCH   9  10
ATOM     10  O   UNL     1      -2.797  -7.484   0.531  0.00  0.00    -0.506 OA
ATOM     11  H   UNL     1      -1.941  -7.912   0.674  0.00  0.00    +0.292 HD
ENDBRANCH   9  10
BRANCH   5  12
ATOM     12  O   UNL     1      -3.168  -3.505   3.156  0.00  0.00    -0.506 OA
ATOM     13  H   UNL     1      -3.799  -2.891   2.756  0.00  0.00    +0.292 HD
ENDBRANCH   5  12
ENDBRANCH   2   4
BRANCH   1  14
ATOM     14  C   UNL     1       0.082  -4.038   0.066  0.00  0.00    +0.193 C 
BRANCH  14  19
ATOM     15  C   UNL     1      -1.188   1.598   0.185  0.00  0.00    +0.044 C 
ATOM     16  C   UNL     1      -0.856   0.128   0.154  0.00  0.00    -0.050 A 
ATOM     17  C   UNL     1      -0.498  -0.475  -1.037  0.00  0.00    +0.004 A 
ATOM     18  C   UNL     1      -0.194  -1.823  -1.065  0.00  0.00    +0.006 A 
ATOM     19  C   UNL     1      -0.248  -2.568   0.098  0.00  0.00    -0.018 A 
ATOM     20  C   UNL     1      -0.606  -1.966   1.289  0.00  0.00    +0.006 A 
ATOM     21  C   UNL     1      -0.905  -0.616   1.318  0.00  0.00    +0.004 A 
ENDBRANCH  14  19
BRANCH  14  22
ATOM     22  C   UNL     1       1.530  -4.236   0.435  0.00  0.00    +0.238 C 
ATOM     23  O   UNL     1       1.827  -4.962   1.359  0.00  0.00    -0.273 OA
ATOM     24  N   UNL     1       2.495  -3.605  -0.264  0.00  0.00    -0.311 N 
ATOM     25  H   UNL     1       2.257  -3.025  -1.004  0.00  0.00    +0.149 HD
BRANCH  24  26
ATOM     26  C   UNL     1       3.903  -3.797   0.094  0.00  0.00    +0.073 C 
ATOM     27  C   UNL     1       4.281  -2.825   1.213  0.00  0.00    +0.022 C 
ATOM     28  C   UNL     1       5.752  -3.026   1.587  0.00  0.00    +0.002 C 
ATOM     29  C   UNL     1       6.630  -2.761   0.362  0.00  0.00    +0.000 C 
ATOM     30  C   UNL     1       6.251  -3.733  -0.757  0.00  0.00    +0.002 C 
ATOM     31  C   UNL     1       4.781  -3.533  -1.131  0.00  0.00    +0.022 C 
ENDBRANCH  24  26
ENDBRANCH  14  22
ENDBRANCH   1  14
BRANCH   1  32
ATOM     32  C   UNL     1      -0.162  -5.448   2.162  0.00  0.00    +0.183 C 
BRANCH  32  33
ATOM     33  C   UNL     1       0.305  -4.439   3.180  0.00  0.00    +0.122 A 
ATOM     34  C   UNL     1      -0.386  -4.034   4.261  0.00  0.00    +0.046 A 
ATOM     35  C   UNL     1       0.422  -3.087   4.932  0.00  0.00    +0.045 A 
ATOM     36  C   UNL     1       1.558  -2.970   4.221  0.00  0.00    +0.102 A 
ATOM     37  O   UNL     1       1.484  -3.795   3.164  0.00  0.00    -0.463 OA
ATOM     38  C   UNL     1       2.719  -2.070   4.557  0.00  0.00    +0.086 C 
ENDBRANCH  32  33
ENDBRANCH   1  32
TORSDOF 9
