REMARK  Name = ZINC65236370
REMARK  4 active torsions:
REMARK  status: ('A' for Active; 'I' for Inactive)
REMARK    1  A    between atoms: C_1  and  C_2
REMARK    2  A    between atoms: C_3  and  C_13
REMARK    3  A    between atoms: N_6  and  C_7
REMARK    4  A    between atoms: C_15  and  C_18
REMARK                            x       y       z     vdW  Elec       q    Type
REMARK                         _______ _______ _______ _____ _____    ______ ____
ROOT
ATOM      1  C   UNL     1      -0.988   1.302   0.166  0.00  0.00    +0.064 C 
ATOM      2  C   UNL     1      -0.425  -0.092   0.070  0.00  0.00    +0.052 C 
ATOM      3  C   UNL     1      -0.361  -0.839  -1.042  0.00  0.00    +0.109 C 
ATOM      4  N   UNL     1       0.232  -2.070  -0.702  0.00  0.00    -0.259 N 
ATOM      5  N   UNL     1       0.516  -2.036   0.635  0.00  0.00    -0.156 NA
ATOM      6  N   UNL     1       0.122  -0.821   1.117  0.00  0.00    -0.222 N 
ATOM      7  H   UNL     1       0.405  -2.809  -1.306  0.00  0.00    +0.168 HD
ATOM      8  H   UNL     1       0.056  -2.790   1.122  0.00  0.00    +0.168 HD
ENDROOT
BRANCH   6   9
ATOM      9  C   UNL     1       0.244  -0.388   2.439  0.00  0.00    +0.051 A 
ATOM     10  C   UNL     1      -0.148  -1.217   3.483  0.00  0.00    +0.025 A 
ATOM     11  C   UNL     1      -0.026  -0.785   4.788  0.00  0.00    +0.002 A 
ATOM     12  C   UNL     1       0.486   0.471   5.058  0.00  0.00    +0.000 A 
ATOM     13  C   UNL     1       0.877   1.299   4.021  0.00  0.00    +0.002 A 
ATOM     14  C   UNL     1       0.764   0.872   2.713  0.00  0.00    +0.025 A 
ENDBRANCH   6   9
BRANCH   3  15
ATOM     15  C   UNL     1      -0.828  -0.441  -2.384  0.00  0.00    +0.219 A 
ATOM     16  N   UNL     1      -0.765  -1.200  -3.493  0.00  0.00    -0.186 NA
ATOM     17  C   UNL     1      -1.267  -0.544  -4.512  0.00  0.00    +0.259 A 
ATOM     18  O   UNL     1      -1.670   0.664  -4.081  0.00  0.00    -0.332 OA
ATOM     19  N   UNL     1      -1.381   0.711  -2.692  0.00  0.00    -0.054 NA
BRANCH  17  20
ATOM     20  C   UNL     1      -1.371  -1.048  -5.899  0.00  0.00    +0.038 C 
ATOM     21  C   UNL     1      -1.911  -0.244  -6.842  0.00  0.00    +0.017 C 
ATOM     22  C   UNL     1      -1.938  -0.715  -8.266  0.00  0.00    +0.159 C 
ATOM     23  C   UNL     1      -2.000  -2.231  -8.248  0.00  0.00    -0.018 C 
ATOM     24  C   UNL     1      -2.996  -2.560  -9.088  0.00  0.00    +0.025 C 
ATOM     25  C   UNL     1      -3.667  -1.387  -9.503  0.00  0.00    +0.106 C 
ATOM     26  N   UNL     1      -3.112  -0.307  -9.025  0.00  0.00    -0.279 NA
ATOM     27  C   UNL     1      -1.223  -3.010  -7.367  0.00  0.00    +0.007 C 
ATOM     28  C   UNL     1      -0.878  -2.399  -6.196  0.00  0.00    +0.013 C 
ENDBRANCH  17  20
ENDBRANCH   3  15
TORSDOF 3
