REMARK  Name = ZINC20889523
REMARK  5 active torsions:
REMARK  status: ('A' for Active; 'I' for Inactive)
REMARK    1  A    between atoms: C_1  and  C_2
REMARK    2  A    between atoms: N_16  and  C_19
REMARK    3  A    between atoms: C_19  and  C_20
REMARK    4  A    between atoms: C_23  and  C_25
REMARK    5  A    between atoms: C_28  and  C_31
REMARK                            x       y       z     vdW  Elec       q    Type
REMARK                         _______ _______ _______ _____ _____    ______ ____
ROOT
ATOM      1  C   UNL     1      -1.591   3.620  -2.418  0.00  0.00    +0.007 C 
ATOM      2  C   UNL     1      -0.798   3.112  -1.213  0.00  0.00    -0.011 C 
ATOM      3  C   UNL     1      -0.762   1.581  -1.233  0.00  0.00    +0.022 C 
ATOM      4  C   UNL     1      -0.020   1.077   0.007  0.00  0.00    +0.108 C 
ATOM      5  N   UNL     1      -0.705   1.552   1.216  0.00  0.00    -0.301 N 
ATOM      6  C   UNL     1      -0.711   3.019   1.281  0.00  0.00    +0.108 C 
ATOM      7  C   UNL     1      -1.473   3.582   0.079  0.00  0.00    +0.022 C 
ATOM      8  C   UNL     1      -0.138   1.008   2.355  0.00  0.00    +0.198 A 
ATOM      9  N   UNL     1      -0.632   1.329   3.540  0.00  0.00    -0.221 NA
ATOM     10  C   UNL     1      -0.116   0.826   4.655  0.00  0.00    +0.050 A 
ATOM     11  C   UNL     1       0.955  -0.034   4.570  0.00  0.00    +0.022 A 
ATOM     12  C   UNL     1       1.459  -0.351   3.307  0.00  0.00    +0.254 A 
ATOM     13  N   UNL     1       0.887   0.177   2.232  0.00  0.00    -0.295 N 
ATOM     14  O   UNL     1       2.511  -1.196   3.179  0.00  0.00    -0.268 OA
ATOM     15  C   UNL     1       1.591  -0.643   5.789  0.00  0.00    -0.035 C 
ATOM     16  N   UNL     1       1.211   0.106   6.992  0.00  0.00    +0.387 N 
ATOM     17  C   UNL     1      -0.252   0.246   7.066  0.00  0.00    -0.072 C 
ATOM     18  C   UNL     1      -0.706   1.224   5.982  0.00  0.00    +0.037 C 
ATOM     19  H   UNL     1       1.271  -0.079   1.234  0.00  0.00    +0.172 HD
ATOM     20  H   UNL     1       1.655   1.111   6.926  0.00  0.00    -0.081 HD
ENDROOT
BRANCH  16  21
ATOM     21  C   UNL     1       1.740  -0.536   8.202  0.00  0.00    -0.003 C 
BRANCH  21  22
ATOM     22  C   UNL     1       3.244  -0.442   8.204  0.00  0.00    +0.089 A 
ATOM     23  C   UNL     1       3.968   0.565   8.733  0.00  0.00    +0.043 A 
ATOM     24  C   UNL     1       5.325   0.254   8.521  0.00  0.00    +0.050 A 
ATOM     25  C   UNL     1       5.355  -0.935   7.858  0.00  0.00    +0.135 A 
ATOM     26  O   UNL     1       4.085  -1.344   7.673  0.00  0.00    -0.462 OA
BRANCH  25  27
ATOM     27  C   UNL     1       6.569  -1.650   7.418  0.00  0.00    +0.017 A 
ATOM     28  C   UNL     1       7.832  -1.106   7.672  0.00  0.00    +0.013 A 
ATOM     29  C   UNL     1       8.955  -1.771   7.270  0.00  0.00    +0.019 A 
ATOM     30  C   UNL     1       8.841  -2.990   6.594  0.00  0.00    +0.052 A 
ATOM     31  C   UNL     1       7.578  -3.532   6.336  0.00  0.00    +0.019 A 
ATOM     32  C   UNL     1       6.455  -2.869   6.743  0.00  0.00    +0.013 A 
BRANCH  30  33
ATOM     33  C   UNL     1      10.019  -3.684   6.167  0.00  0.00    +0.099 C 
ATOM     34  N   UNL     1      10.953  -4.235   5.828  0.00  0.00    -0.191 NA
ENDBRANCH  30  33
ENDBRANCH  25  27
ENDBRANCH  21  22
ENDBRANCH  16  21
TORSDOF 4
