REMARK  Name = ZINC12488905
REMARK  15 active torsions:
REMARK  status: ('A' for Active; 'I' for Inactive)
REMARK    1  A    between atoms: C_1  and  C_2
REMARK    2  A    between atoms: C_2  and  C_3
REMARK    3  A    between atoms: C_6  and  N_9
REMARK    4  A    between atoms: N_9  and  C_10
REMARK    5  A    between atoms: C_10  and  C_12
REMARK    6  A    between atoms: C_10  and  C_19
REMARK    7  A    between atoms: C_15  and  C_18
REMARK    8  A    between atoms: N_21  and  C_22
REMARK    9  A    between atoms: C_22  and  C_23
REMARK   10  A    between atoms: C_22  and  C_24
REMARK   11  A    between atoms: C_22  and  C_25
REMARK   12  A    between atoms: C_25  and  C_26
REMARK   13  A    between atoms: C_27  and  C_29
REMARK   14  A    between atoms: C_29  and  N_30
REMARK   15  A    between atoms: C_31  and  C_33
REMARK                            x       y       z     vdW  Elec       q    Type
REMARK                         _______ _______ _______ _____ _____    ______ ____
ROOT
ATOM      1  N   UNL     1      -2.997   2.986   4.762  0.00  0.00    -0.254 N 
ATOM      2  C   UNL     1      -2.988   1.913   5.579  0.00  0.00    +0.238 C 
ATOM      3  O   UNL     1      -2.456   1.983   6.666  0.00  0.00    -0.274 OA
ENDROOT
BRANCH   1   7
ATOM      4  C   UNL     1      -5.091   2.848   1.164  0.00  0.00    -0.048 A 
ATOM      5  C   UNL     1      -3.946   2.091   1.325  0.00  0.00    +0.005 A 
ATOM      6  C   UNL     1      -3.246   2.138   2.514  0.00  0.00    +0.024 A 
ATOM      7  C   UNL     1      -3.700   2.940   3.554  0.00  0.00    +0.037 A 
ATOM      8  C   UNL     1      -4.854   3.695   3.391  0.00  0.00    +0.024 A 
ATOM      9  C   UNL     1      -5.546   3.647   2.197  0.00  0.00    +0.005 A 
BRANCH   4  11
ATOM     10  C   UNL     1      -5.317   3.879  -1.080  0.00  0.00    +0.009 C 
ATOM     11  C   UNL     1      -5.849   2.798  -0.138  0.00  0.00    +0.032 C 
ENDBRANCH   4  11
ENDBRANCH   1   7
BRANCH   1  12
ATOM     12  C   UNL     1      -2.269   4.200   5.141  0.00  0.00    +0.197 C 
BRANCH  12  13
ATOM     13  C   UNL     1      -2.546   5.286   4.133  0.00  0.00    -0.018 A 
ATOM     14  C   UNL     1      -2.250   5.082   2.799  0.00  0.00    +0.006 A 
ATOM     15  C   UNL     1      -2.508   6.076   1.873  0.00  0.00    +0.004 A 
ATOM     16  C   UNL     1      -3.052   7.278   2.285  0.00  0.00    -0.050 A 
ATOM     17  C   UNL     1      -3.343   7.484   3.620  0.00  0.00    +0.004 A 
ATOM     18  C   UNL     1      -3.090   6.488   4.545  0.00  0.00    +0.006 A 
ATOM     19  C   UNL     1      -3.328   8.364   1.277  0.00  0.00    +0.044 C 
ENDBRANCH  12  13
BRANCH  12  20
ATOM     20  C   UNL     1      -0.791   3.910   5.174  0.00  0.00    +0.239 C 
ATOM     21  O   UNL     1      -0.385   2.799   4.908  0.00  0.00    -0.273 OA
ATOM     22  N   UNL     1       0.080   4.886   5.500  0.00  0.00    -0.308 N 
ATOM     23  H   UNL     1      -0.245   5.774   5.713  0.00  0.00    +0.149 HD
BRANCH  22  24
ATOM     24  C   UNL     1       1.517   4.604   5.532  0.00  0.00    +0.029 C 
ATOM     25  C   UNL     1       1.798   3.501   6.555  0.00  0.00    +0.031 C 
ATOM     26  C   UNL     1       1.978   4.144   4.147  0.00  0.00    +0.031 C 
BRANCH  24  27
ATOM     27  C   UNL     1       2.277   5.872   5.927  0.00  0.00    +0.022 C 
ATOM     28  C   UNL     1       3.778   5.577   5.961  0.00  0.00    +0.006 C 
ENDBRANCH  24  27
ENDBRANCH  22  24
ENDBRANCH  12  20
ENDBRANCH   1  12
BRANCH   2  29
ATOM     29  C   UNL     1      -3.640   0.627   5.140  0.00  0.00    +0.201 C 
BRANCH  29  30
ATOM     30  N   UNL     1      -3.609  -0.337   6.242  0.00  0.00    -0.302 N 
ATOM     31  C   UNL     1      -4.139  -1.565   6.078  0.00  0.00    +0.251 C 
ATOM     32  O   UNL     1      -4.644  -1.873   5.014  0.00  0.00    -0.270 OA
ATOM     33  H   UNL     1      -3.207  -0.092   7.090  0.00  0.00    +0.150 HD
BRANCH  31  34
ATOM     34  C   UNL     1      -4.108  -2.530   7.181  0.00  0.00    +0.074 A 
ATOM     35  C   UNL     1      -4.596  -3.827   7.221  0.00  0.00    +0.021 A 
ATOM     36  C   UNL     1      -4.431  -4.521   8.394  0.00  0.00    +0.008 A 
ATOM     37  C   UNL     1      -3.817  -3.914   9.443  0.00  0.00    +0.046 A 
ATOM     38  S   UNL     1      -3.439  -2.340   8.823  0.00  0.00    -0.092 S 
ENDBRANCH  31  34
ENDBRANCH  29  30
ENDBRANCH   2  29
TORSDOF 10
