REMARK  Name = ZINC64290363
REMARK  7 active torsions:
REMARK  status: ('A' for Active; 'I' for Inactive)
REMARK    1  A    between atoms: C_1  and  N_2
REMARK    2  A    between atoms: N_2  and  C_17
REMARK    3  A    between atoms: C_3  and  C_5
REMARK    4  A    between atoms: C_5  and  C_6
REMARK    5  A    between atoms: C_6  and  C_7
REMARK    6  A    between atoms: C_7  and  C_8
REMARK    7  A    between atoms: C_17  and  C_21
REMARK                            x       y       z     vdW  Elec       q    Type
REMARK                         _______ _______ _______ _____ _____    ______ ____
ROOT
ATOM      1  C   UNL     1       0.049  -0.938   3.632  0.00  0.00    +0.014 C 
ENDROOT
BRANCH   1   2
ATOM      2  C   UNL     1       0.025   0.062   2.475  0.00  0.00    +0.096 C 
BRANCH   2   5
ATOM      3  C   UNL     1      -0.018   1.461   0.010  0.00  0.00    +0.133 C 
ATOM      4  N   UNL     1       0.002  -0.004   0.002  0.00  0.00    -0.286 N 
ATOM      5  C   UNL     1       0.022  -0.684   1.165  0.00  0.00    +0.217 C 
ATOM      6  O   UNL     1       0.039  -1.897   1.159  0.00  0.00    -0.276 OA
BRANCH   4   7
ATOM      7  C   UNL     1      -0.000  -0.730  -1.271  0.00  0.00    +0.123 C 
ATOM      8  C   UNL     1      -1.395  -1.214  -1.702  0.00  0.00    +0.041 C 
ATOM      9  C   UNL     1      -1.559   0.140  -2.412  0.00  0.00    +0.006 C 
ATOM     10  C   UNL     1      -0.024   0.189  -2.504  0.00  0.00    +0.041 C 
BRANCH   7  11
ATOM     11  C   UNL     1       1.034  -1.775  -1.335  0.00  0.00    +0.089 C 
ATOM     12  N   UNL     1       1.833  -2.582  -1.384  0.00  0.00    -0.194 NA
ENDBRANCH   7  11
ENDBRANCH   4   7
ENDBRANCH   2   5
ENDBRANCH   1   2
BRANCH   1  13
ATOM     13  C   UNL     1       0.051  -0.180   4.961  0.00  0.00    +0.033 C 
BRANCH  13  14
ATOM     14  C   UNL     1       0.076  -1.166   6.101  0.00  0.00    -0.042 C 
ATOM     15  C   UNL     1       1.164  -1.607   6.771  0.00  0.00    -0.001 A 
ATOM     16  C   UNL     1       2.597  -1.315   6.644  0.00  0.00    +0.010 A 
ATOM     17  C   UNL     1       3.469  -1.927   7.477  0.00  0.00    +0.001 A 
ATOM     18  C   UNL     1       3.039  -2.832   8.458  0.00  0.00    +0.002 A 
ATOM     19  C   UNL     1       1.740  -3.151   8.636  0.00  0.00    +0.026 A 
ATOM     20  C   UNL     1       0.736  -2.566   7.815  0.00  0.00    +0.043 A 
ATOM     21  N   UNL     1      -0.566  -2.712   7.791  0.00  0.00    -0.380 N 
ATOM     22  C   UNL     1      -1.113  -1.856   6.732  0.00  0.00    +0.144 C 
ATOM     23  H   UNL     1      -1.083  -3.286   8.377  0.00  0.00    +0.160 HD
ENDBRANCH  13  14
ENDBRANCH   1  13
TORSDOF 6
