REMARK  Name = ZINC37458323
REMARK  4 active torsions:
REMARK  status: ('A' for Active; 'I' for Inactive)
REMARK    1  A    between atoms: C_4  and  C_7
REMARK    2  A    between atoms: C_18  and  C_20
REMARK    3  A    between atoms: C_20  and  N_21
REMARK    4  A    between atoms: C_23  and  C_32
REMARK                            x       y       z     vdW  Elec       q    Type
REMARK                         _______ _______ _______ _____ _____    ______ ____
ROOT
ATOM      1  C   UNL     1       3.193  -1.173  -0.490  0.00  0.00    +0.122 C 
ATOM      2  C   UNL     1       2.870  -1.962  -1.768  0.00  0.00    +0.102 C 
ATOM      3  S   UNL     1       4.314  -2.996  -2.157  0.00  0.00    -0.121 S 
ATOM      4  C   UNL     1       4.727  -3.716  -0.600  0.00  0.00    +0.029 A 
ATOM      5  C   UNL     1       5.578  -4.815  -0.569  0.00  0.00    +0.016 A 
ATOM      6  C   UNL     1       5.922  -5.394   0.637  0.00  0.00    +0.001 A 
ATOM      7  C   UNL     1       5.419  -4.879   1.818  0.00  0.00    +0.002 A 
ATOM      8  C   UNL     1       4.572  -3.789   1.795  0.00  0.00    +0.024 A 
ATOM      9  C   UNL     1       4.213  -3.199   0.585  0.00  0.00    +0.050 A 
ATOM     10  N   UNL     1       3.339  -2.110   0.619  0.00  0.00    -0.261 N 
ATOM     11  C   UNL     1       2.593  -1.918   1.725  0.00  0.00    +0.238 C 
ATOM     12  O   UNL     1       1.944  -0.901   1.850  0.00  0.00    -0.274 OA
ENDROOT
BRANCH   1  16
ATOM     13  C   UNL     1       0.015   1.557   0.346  0.00  0.00    +0.000 A 
ATOM     14  C   UNL     1       1.324   2.002   0.333  0.00  0.00    +0.000 A 
ATOM     15  C   UNL     1       2.352   1.119   0.062  0.00  0.00    +0.005 A 
ATOM     16  C   UNL     1       2.072  -0.210  -0.195  0.00  0.00    -0.026 A 
ATOM     17  C   UNL     1       0.763  -0.656  -0.180  0.00  0.00    +0.005 A 
ATOM     18  C   UNL     1      -0.265   0.228   0.089  0.00  0.00    +0.000 A 
ENDBRANCH   1  16
BRANCH  11  19
ATOM     19  C   UNL     1       2.565  -2.967   2.807  0.00  0.00    +0.201 C 
BRANCH  19  20
ATOM     20  N   UNL     1       1.250  -2.967   3.453  0.00  0.00    -0.314 N 
ATOM     21  C   UNL     1       0.976  -2.112   4.621  0.00  0.00    +0.160 C 
ATOM     22  C   UNL     1      -0.421  -1.504   4.433  0.00  0.00    +0.275 C 
ATOM     23  O   UNL     1      -1.372  -2.564   4.303  0.00  0.00    -0.476 OA
ATOM     24  C   UNL     1      -1.095  -3.559   3.419  0.00  0.00    +0.143 A 
ATOM     25  C   UNL     1       0.207  -3.777   2.978  0.00  0.00    +0.073 A 
ATOM     26  C   UNL     1       0.473  -4.793   2.075  0.00  0.00    +0.027 A 
ATOM     27  C   UNL     1      -0.559  -5.587   1.607  0.00  0.00    +0.002 A 
ATOM     28  C   UNL     1      -1.853  -5.366   2.039  0.00  0.00    +0.004 A 
ATOM     29  C   UNL     1      -2.121  -4.362   2.947  0.00  0.00    +0.047 A 
BRANCH  22  30
ATOM     30  C   UNL     1      -0.768  -0.654   5.628  0.00  0.00    +0.253 C 
ATOM     31  O   UNL     1      -1.687  -0.972   6.352  0.00  0.00    -0.272 OA
ATOM     32  N   UNL     1      -0.056   0.459   5.892  0.00  0.00    -0.326 N 
ATOM     33  H   UNL     1       0.679   0.714   5.312  0.00  0.00    +0.145 HD
ATOM     34  H   UNL     1      -0.279   1.006   6.661  0.00  0.00    +0.145 HD
ENDBRANCH  22  30
ENDBRANCH  19  20
ENDBRANCH  11  19
TORSDOF 4
