REMARK  Name = ZINC36156821
REMARK  12 active torsions:
REMARK  status: ('A' for Active; 'I' for Inactive)
REMARK    1  A    between atoms: C_1  and  O_2
REMARK    2  A    between atoms: O_2  and  C_3
REMARK    3  A    between atoms: C_3  and  C_4
REMARK    4  A    between atoms: C_4  and  N_5
REMARK    5  A    between atoms: N_5  and  C_6
REMARK    6  A    between atoms: N_5  and  C_22
REMARK    7  A    between atoms: C_6  and  C_7
REMARK    8  A    between atoms: C_22  and  C_23
REMARK    9  A    between atoms: C_23  and  C_25
REMARK   10  A    between atoms: C_23  and  O_33
REMARK   11  A    between atoms: C_25  and  O_26
REMARK   12  A    between atoms: O_26  and  C_27
REMARK                            x       y       z     vdW  Elec       q    Type
REMARK                         _______ _______ _______ _____ _____    ______ ____
ROOT
ATOM      1  N   UNL     1      -0.783  -2.554  -1.000  0.00  0.00    +0.388 N 
ATOM      2  H   UNL     1      -1.241  -1.981  -0.307  0.00  0.00    -0.081 HD
ENDROOT
BRANCH   1   3
ATOM      3  C   UNL     1       0.640  -2.193  -1.070  0.00  0.00    -0.050 C 
BRANCH   3   4
ATOM      4  C   UNL     1       0.773  -0.687  -1.302  0.00  0.00    +0.141 C 
BRANCH   4   6
ATOM      5  C   UNL     1       0.306   1.439  -0.299  0.00  0.00    +0.193 C 
ATOM      6  O   UNL     1       0.231   0.017  -0.183  0.00  0.00    -0.385 OA
ENDBRANCH   4   6
ENDBRANCH   3   4
ENDBRANCH   1   3
BRANCH   1   7
ATOM      7  C   UNL     1      -0.912  -3.969  -0.629  0.00  0.00    -0.003 C 
BRANCH   7   8
ATOM      8  C   UNL     1      -0.380  -4.173   0.766  0.00  0.00    +0.094 A 
ATOM      9  N   UNL     1      -0.397  -5.416   1.312  0.00  0.00    -0.312 N 
ATOM     10  H   UNL     1      -0.751  -6.157   0.795  0.00  0.00    +0.170 HD
ATOM     11  C   UNL     1       0.069  -5.643   2.554  0.00  0.00    +0.260 A 
ATOM     12  O   UNL     1       0.047  -6.765   3.029  0.00  0.00    -0.267 OA
ATOM     13  C   UNL     1       0.591  -4.542   3.309  0.00  0.00    +0.075 A 
ATOM     14  C   UNL     1       1.143  -4.550   4.663  0.00  0.00    -0.023 A 
ATOM     15  C   UNL     1       1.573  -3.369   5.156  0.00  0.00    -0.004 A 
ATOM     16  S   UNL     1       1.273  -2.195   3.862  0.00  0.00    -0.073 S 
ATOM     17  C   UNL     1       0.567  -3.296   2.662  0.00  0.00    +0.116 A 
ATOM     18  N   UNL     1       0.095  -3.151   1.427  0.00  0.00    -0.229 NA
ATOM     19  C   UNL     1       2.173  -3.112   6.504  0.00  0.00    +0.043 C 
ATOM     20  C   UNL     1       1.890  -4.327   7.399  0.00  0.00    +0.005 C 
ATOM     21  C   UNL     1       2.246  -5.600   6.626  0.00  0.00    +0.005 C 
ATOM     22  C   UNL     1       1.237  -5.823   5.499  0.00  0.00    +0.037 C 
ENDBRANCH   7   8
ENDBRANCH   1   7
BRANCH   1  23
ATOM     23  C   UNL     1      -1.409  -2.332  -2.311  0.00  0.00    -0.043 C 
BRANCH  23  24
ATOM     24  C   UNL     1      -2.917  -2.567  -2.201  0.00  0.00    +0.135 C 
BRANCH  24  25
ATOM     25  O   UNL     1      -3.473  -1.655  -1.252  0.00  0.00    -0.390 OA
ATOM     26  H   UNL     1      -3.413  -0.727  -1.516  0.00  0.00    +0.210 HD
ENDBRANCH  24  25
BRANCH  24  27
ATOM     27  C   UNL     1      -3.568  -2.342  -3.567  0.00  0.00    +0.258 C 
BRANCH  27  28
ATOM     28  O   UNL     1      -4.957  -2.673  -3.493  0.00  0.00    -0.489 OA
BRANCH  28  29
ATOM     29  C   UNL     1      -5.687  -2.528  -4.630  0.00  0.00    +0.121 A 
ATOM     30  C   UNL     1      -5.079  -2.081  -5.794  0.00  0.00    +0.045 A 
ATOM     31  C   UNL     1      -5.823  -1.935  -6.949  0.00  0.00    +0.004 A 
ATOM     32  C   UNL     1      -7.173  -2.233  -6.944  0.00  0.00    +0.000 A 
ATOM     33  C   UNL     1      -7.782  -2.678  -5.785  0.00  0.00    +0.004 A 
ATOM     34  C   UNL     1      -7.040  -2.832  -4.630  0.00  0.00    +0.045 A 
ENDBRANCH  28  29
ENDBRANCH  27  28
ENDBRANCH  24  27
ENDBRANCH  23  24
ENDBRANCH   1  23
TORSDOF 11
