REMARK  Name = ZINC22936240
REMARK  6 active torsions:
REMARK  status: ('A' for Active; 'I' for Inactive)
REMARK    1  A    between atoms: C_4  and  C_7
REMARK    2  A    between atoms: C_7  and  N_8
REMARK    3  A    between atoms: N_11  and  C_14
REMARK    4  A    between atoms: C_14  and  C_15
REMARK    5  A    between atoms: C_15  and  N_16
REMARK    6  A    between atoms: C_17  and  C_19
REMARK                            x       y       z     vdW  Elec       q    Type
REMARK                         _______ _______ _______ _____ _____    ______ ____
ROOT
ATOM      1  N   UNL     1       7.320  -3.654   6.283  0.00  0.00    -0.312 N 
ATOM      2  C   UNL     1       8.511  -4.228   6.544  0.00  0.00    +0.261 C 
ATOM      3  O   UNL     1       9.182  -4.678   5.634  0.00  0.00    -0.269 OA
ATOM      4  H   UNL     1       6.752  -3.361   7.012  0.00  0.00    +0.149 HD
ENDROOT
BRANCH   2   5
ATOM      5  C   UNL     1       8.998  -4.309   7.924  0.00  0.00    +0.110 A 
ATOM      6  C   UNL     1       8.303  -3.943   9.058  0.00  0.00    +0.033 A 
ATOM      7  C   UNL     1       9.139  -4.186  10.152  0.00  0.00    +0.020 A 
ATOM      8  C   UNL     1      10.307  -4.685   9.680  0.00  0.00    +0.094 A 
ATOM      9  N   UNL     1      10.233  -4.771   8.327  0.00  0.00    -0.290 N 
ATOM     10  C   UNL     1      11.239  -5.245   7.486  0.00  0.00    +0.202 A 
ATOM     11  N   UNL     1      11.301  -5.269   6.165  0.00  0.00    -0.121 NA
ATOM     12  N   UNL     1      12.297  -5.739   5.550  0.00  0.00    -0.124 NA
ATOM     13  C   UNL     1      13.344  -6.238   6.191  0.00  0.00    +0.186 A 
ATOM     14  S   UNL     1      12.819  -5.988   7.885  0.00  0.00    -0.013 S 
ATOM     15  N   UNL     1      14.515  -6.792   5.693  0.00  0.00    -0.308 N 
ATOM     16  C   UNL     1      15.507  -7.274   6.628  0.00  0.00    +0.107 C 
ATOM     17  C   UNL     1      16.480  -6.126   6.991  0.00  0.00    +0.019 C 
ATOM     18  C   UNL     1      17.352  -5.815   5.847  0.00  0.00    +0.002 C 
ATOM     19  C   UNL     1      16.611  -5.307   4.613  0.00  0.00    +0.002 C 
ATOM     20  C   UNL     1      16.125  -6.484   3.803  0.00  0.00    +0.019 C 
ATOM     21  C   UNL     1      14.694  -6.871   4.230  0.00  0.00    +0.107 C 
ENDBRANCH   2   5
BRANCH   1  22
ATOM     22  C   UNL     1       6.883  -3.473   4.896  0.00  0.00    +0.086 C 
BRANCH  22  23
ATOM     23  C   UNL     1       5.507  -2.804   4.878  0.00  0.00    -0.060 C 
BRANCH  23  27
ATOM     24  N   UNL     1       4.146  -0.998   1.327  0.00  0.00    -0.302 NA
ATOM     25  C   UNL     1       3.236  -1.918   2.024  0.00  0.00    +0.066 C 
ATOM     26  C   UNL     1       3.700  -2.090   3.472  0.00  0.00    -0.063 C 
ATOM     27  N   UNL     1       5.069  -2.622   3.488  0.00  0.00    +0.382 N 
ATOM     28  C   UNL     1       5.970  -1.681   2.810  0.00  0.00    -0.063 C 
ATOM     29  C   UNL     1       5.525  -1.505   1.357  0.00  0.00    +0.066 C 
ATOM     30  H   UNL     1       5.090  -3.510   3.011  0.00  0.00    -0.082 HD
BRANCH  24  31
ATOM     31  C   UNL     1       3.700  -0.763  -0.053  0.00  0.00    +0.119 C 
BRANCH  31  35
ATOM     32  C   UNL     1      -0.015   1.344  -0.013  0.00  0.00    +0.000 A 
ATOM     33  C   UNL     1       1.176   2.044  -0.031  0.00  0.00    +0.000 A 
ATOM     34  C   UNL     1       2.378   1.363  -0.044  0.00  0.00    +0.005 A 
ATOM     35  C   UNL     1       2.390  -0.020  -0.038  0.00  0.00    -0.033 A 
ATOM     36  C   UNL     1       1.198  -0.720  -0.019  0.00  0.00    +0.005 A 
ATOM     37  C   UNL     1      -0.004  -0.039  -0.008  0.00  0.00    +0.000 A 
ENDBRANCH  31  35
ENDBRANCH  24  31
ENDBRANCH  23  27
ENDBRANCH  22  23
ENDBRANCH   1  22
TORSDOF 6
