REMARK  Name = ZINC12456876
REMARK  6 active torsions:
REMARK  status: ('A' for Active; 'I' for Inactive)
REMARK    1  A    between atoms: C_1  and  C_2
REMARK    2  A    between atoms: C_3  and  C_7
REMARK    3  A    between atoms: C_7  and  N_45
REMARK    4  A    between atoms: C_8  and  C_9
REMARK    5  A    between atoms: C_8  and  N_45
REMARK    6  A    between atoms: C_18  and  C_19
REMARK                            x       y       z     vdW  Elec       q    Type
REMARK                         _______ _______ _______ _____ _____    ______ ____
ROOT
ATOM      1  C   UNL     1       5.105  -1.857   3.288  0.00  0.00    -0.038 A 
ATOM      2  C   UNL     1       4.414  -0.685   3.196  0.00  0.00    +0.014 A 
ATOM      3  C   UNL     1       3.167  -0.694   2.541  0.00  0.00    +0.004 A 
ATOM      4  C   UNL     1       2.406   0.478   2.411  0.00  0.00    +0.059 A 
ATOM      5  C   UNL     1       1.201   0.438   1.771  0.00  0.00    +0.167 A 
ATOM      6  C   UNL     1       0.713  -0.768   1.239  0.00  0.00    +0.168 A 
ATOM      7  C   UNL     1       1.433  -1.922   1.351  0.00  0.00    +0.078 A 
ATOM      8  C   UNL     1       2.678  -1.912   2.004  0.00  0.00    +0.075 A 
ATOM      9  N   UNL     1       3.399  -3.030   2.123  0.00  0.00    -0.246 NA
ATOM     10  C   UNL     1       4.568  -3.030   2.736  0.00  0.00    +0.073 A 
ATOM     11  O   UNL     1      -0.500  -0.523   0.662  0.00  0.00    -0.453 OA
ATOM     12  C   UNL     1      -0.938   0.737   1.201  0.00  0.00    +0.466 C 
ATOM     13  O   UNL     1       0.288   1.422   1.519  0.00  0.00    -0.453 OA
ENDROOT
BRANCH  10  14
ATOM     14  C   UNL     1       5.330  -4.296   2.842  0.00  0.00    +0.001 A 
ATOM     15  C   UNL     1       6.697  -4.316   2.565  0.00  0.00    +0.013 A 
ATOM     16  C   UNL     1       7.403  -5.495   2.670  0.00  0.00    +0.039 A 
ATOM     17  C   UNL     1       6.755  -6.663   3.041  0.00  0.00    +0.123 A 
ATOM     18  C   UNL     1       5.396  -6.650   3.312  0.00  0.00    +0.039 A 
ATOM     19  C   UNL     1       4.682  -5.473   3.215  0.00  0.00    +0.013 A 
ATOM     20  F   UNL     1       7.450  -7.817   3.137  0.00  0.00    -0.205 F 
ENDBRANCH  10  14
BRANCH   1  21
ATOM     21  C   UNL     1       6.442  -1.893   3.982  0.00  0.00    -0.044 C 
BRANCH  21  22
ATOM     22  N   UNL     1       6.684  -0.592   4.632  0.00  0.00    +0.386 N 
ATOM     23  H   UNL     1       6.774   0.135   3.912  0.00  0.00    -0.085 HD
ATOM     24  H   UNL     1       5.894  -0.368   5.248  0.00  0.00    -0.085 HD
BRANCH  22  25
ATOM     25  C   UNL     1       7.924  -0.641   5.430  0.00  0.00    -0.020 C 
BRANCH  25  28
ATOM     26  C   UNL     1       6.842   0.209   8.265  0.00  0.00    +0.071 C 
ATOM     27  C   UNL     1       7.662   1.080   7.349  0.00  0.00    +0.103 A 
ATOM     28  C   UNL     1       8.146   0.700   6.081  0.00  0.00    +0.090 A 
ATOM     29  N   UNL     1       8.817   1.685   5.563  0.00  0.00    -0.056 NA
ATOM     30  O   UNL     1       8.783   2.757   6.491  0.00  0.00    -0.242 OA
ATOM     31  N   UNL     1       8.033   2.299   7.605  0.00  0.00    -0.054 NA
ENDBRANCH  25  28
ENDBRANCH  22  25
ENDBRANCH  21  22
ENDBRANCH   1  21
TORSDOF 5
