REMARK  Name = ZINC35447650
REMARK  7 active torsions:
REMARK  status: ('A' for Active; 'I' for Inactive)
REMARK    1  A    between atoms: C_1  and  C_2
REMARK    2  A    between atoms: C_5  and  C_38
REMARK    3  A    between atoms: N_8  and  S_10
REMARK    4  A    between atoms: S_10  and  C_13
REMARK    5  A    between atoms: C_17  and  C_19
REMARK    6  A    between atoms: C_20  and  C_30
REMARK    7  A    between atoms: N_22  and  C_24
REMARK                            x       y       z     vdW  Elec       q    Type
REMARK                         _______ _______ _______ _____ _____    ______ ____
ROOT
ATOM      1  C   UNL     1       0.126   5.143   2.839  0.00  0.00    +0.100 A 
ATOM      2  C   UNL     1       0.060   6.532   3.308  0.00  0.00    +0.022 A 
ATOM      3  C   UNL     1      -1.245   6.746   3.709  0.00  0.00    +0.123 A 
ATOM      4  N   UNL     1      -1.929   5.603   3.510  0.00  0.00    -0.239 N 
ATOM      5  N   UNL     1      -1.079   4.634   2.972  0.00  0.00    -0.166 NA
ENDROOT
BRANCH   2   6
ATOM      6  C   UNL     1       1.162   7.501   3.344  0.00  0.00    +0.032 C 
ATOM      7  C   UNL     1       0.945   8.758   3.809  0.00  0.00    +0.078 C 
ATOM      8  C   UNL     1       1.886   9.884   3.930  0.00  0.00    +0.256 C 
ATOM      9  O   UNL     1       3.051   9.778   3.593  0.00  0.00    -0.269 OA
ATOM     10  N   UNL     1       1.410  11.016   4.421  0.00  0.00    -0.261 N 
ATOM     11  C   UNL     1       0.086  11.116   4.797  0.00  0.00    +0.158 C 
ATOM     12  N   UNL     1      -0.542  12.146   5.294  0.00  0.00    -0.279 NA
ATOM     13  S   UNL     1      -0.561   9.493   4.429  0.00  0.00    -0.049 S 
ATOM     14  H   UNL     1       1.996  11.783   4.519  0.00  0.00    +0.157 HD
ATOM     15  H   UNL     1      -1.484  12.080   5.517  0.00  0.00    +0.189 HD
ENDBRANCH   2   6
BRANCH   1  20
ATOM     16  C   UNL     1       2.629   2.448   2.067  0.00  0.00    +0.106 A 
ATOM     17  C   UNL     1       3.559   3.149   1.320  0.00  0.00    +0.028 A 
ATOM     18  C   UNL     1       3.376   4.496   1.066  0.00  0.00    +0.003 A 
ATOM     19  C   UNL     1       2.263   5.149   1.556  0.00  0.00    +0.010 A 
ATOM     20  C   UNL     1       1.323   4.447   2.309  0.00  0.00    +0.005 A 
ATOM     21  C   UNL     1       1.510   3.088   2.558  0.00  0.00    +0.038 A 
BRANCH  16  22
ATOM     22  S   UNL     1       2.871   0.732   2.387  0.00  0.00    +0.061 S 
ATOM     23  O   UNL     1       2.133   0.430   3.563  0.00  0.00    -0.153 OA
ATOM     24  O   UNL     1       4.268   0.492   2.281  0.00  0.00    -0.153 OA
BRANCH  22  30
ATOM     25  C   UNL     1      -0.019   1.526   0.010  0.00  0.00    +0.009 C 
ATOM     26  C   UNL     1       0.002  -0.004   0.002  0.00  0.00    +0.002 C 
ATOM     27  C   UNL     1       0.720  -0.498  -1.256  0.00  0.00    +0.009 C 
ATOM     28  C   UNL     1       2.145   0.059  -1.285  0.00  0.00    +0.002 C 
ATOM     29  C   UNL     1       2.912  -0.448  -0.060  0.00  0.00    +0.112 C 
ATOM     30  N   UNL     1       2.153  -0.103   1.150  0.00  0.00    -0.176 NA
ATOM     31  C   UNL     1       0.744  -0.512   1.242  0.00  0.00    +0.112 C 
ATOM     32  C   UNL     1       2.850  -0.408  -2.559  0.00  0.00    +0.009 C 
ENDBRANCH  22  30
ENDBRANCH  16  22
ENDBRANCH   1  20
BRANCH   4  33
ATOM     33  C   UNL     1      -3.288   5.416   3.795  0.00  0.00    +0.065 A 
ATOM     34  C   UNL     1      -4.039   6.460   4.320  0.00  0.00    +0.028 A 
ATOM     35  C   UNL     1      -5.379   6.272   4.599  0.00  0.00    +0.002 A 
ATOM     36  C   UNL     1      -5.972   5.047   4.357  0.00  0.00    +0.000 A 
ATOM     37  C   UNL     1      -5.227   4.006   3.835  0.00  0.00    +0.002 A 
ATOM     38  C   UNL     1      -3.888   4.189   3.547  0.00  0.00    +0.028 A 
ENDBRANCH   4  33
TORSDOF 5
