REMARK  Name = ZINC39487607
REMARK  11 active torsions:
REMARK  status: ('A' for Active; 'I' for Inactive)
REMARK    1  A    between atoms: C_1  and  C_2
REMARK    2  A    between atoms: C_2  and  C_3
REMARK    3  A    between atoms: C_2  and  C_4
REMARK    4  A    between atoms: C_4  and  C_5
REMARK    5  A    between atoms: C_5  and  C_32
REMARK    6  A    between atoms: N_7  and  O_31
REMARK    7  A    between atoms: N_10  and  C_11
REMARK    8  A    between atoms: C_11  and  C_12
REMARK    9  A    between atoms: C_12  and  C_25
REMARK   10  A    between atoms: N_15  and  C_18
REMARK   11  A    between atoms: C_18  and  C_19
REMARK                            x       y       z     vdW  Elec       q    Type
REMARK                         _______ _______ _______ _____ _____    ______ ____
ROOT
ATOM      1  C   UNL     1       2.623  -2.509   3.464  0.00  0.00    -0.014 C 
ATOM      2  C   UNL     1       2.837  -2.033   2.024  0.00  0.00    -0.010 C 
ATOM      3  C   UNL     1       2.752  -0.506   1.978  0.00  0.00    -0.078 C 
ATOM      4  N   UNL     1       3.787   0.071   2.845  0.00  0.00    +0.382 N 
ATOM      5  C   UNL     1       3.546  -0.322   4.238  0.00  0.00    -0.078 C 
ATOM      6  C   UNL     1       3.662  -1.842   4.370  0.00  0.00    -0.010 C 
ATOM      7  H   UNL     1       4.693  -0.264   2.553  0.00  0.00    -0.081 HD
ENDROOT
BRANCH   1   8
ATOM      8  C   UNL     1       2.785  -4.028   3.532  0.00  0.00    -0.003 C 
ATOM      9  C   UNL     1       2.768  -4.478   4.995  0.00  0.00    +0.004 C 
ATOM     10  C   UNL     1       2.929  -5.998   5.063  0.00  0.00    +0.000 C 
ATOM     11  C   UNL     1       4.259  -6.399   4.422  0.00  0.00    +0.000 C 
ATOM     12  C   UNL     1       4.276  -5.949   2.959  0.00  0.00    +0.000 C 
ATOM     13  C   UNL     1       4.115  -4.429   2.891  0.00  0.00    +0.004 C 
ENDBRANCH   1   8
BRANCH   1  14
ATOM     14  C   UNL     1       1.217  -2.122   3.926  0.00  0.00    +0.117 C 
BRANCH  14  20
ATOM     15  C   UNL     1      -0.682  -3.788   3.277  0.00  0.00    +0.054 C 
ATOM     16  C   UNL     1      -1.491  -3.945   1.975  0.00  0.00    +0.167 C 
ATOM     17  N   UNL     1      -0.949  -2.898   1.096  0.00  0.00    -0.165 N 
ATOM     18  C   UNL     1       0.011  -2.229   1.747  0.00  0.00    +0.328 C 
ATOM     19  O   UNL     1       0.630  -1.307   1.252  0.00  0.00    -0.250 OA
ATOM     20  N   UNL     1       0.229  -2.669   2.994  0.00  0.00    -0.276 N 
ATOM     21  C   UNL     1      -1.606  -3.445   4.448  0.00  0.00    +0.033 C 
BRANCH  17  22
ATOM     22  O   UNL     1      -1.376  -2.638  -0.229  0.00  0.00    -0.291 OA
ATOM     23  H   UNL     1      -0.906  -1.909  -0.658  0.00  0.00    +0.242 HD
ENDBRANCH  17  22
BRANCH  15  24
ATOM     24  C   UNL     1       0.109  -5.063   3.575  0.00  0.00    +0.030 C 
BRANCH  24  26
ATOM     25  C   UNL     1      -1.748  -6.560   2.831  0.00  0.00    +0.007 C 
ATOM     26  C   UNL     1      -0.853  -6.171   4.009  0.00  0.00    -0.015 C 
ATOM     27  C   UNL     1      -0.051  -7.392   4.466  0.00  0.00    +0.007 C 
ENDBRANCH  24  26
ENDBRANCH  15  24
ENDBRANCH  14  20
ENDBRANCH   1  14
BRANCH   4  28
ATOM     28  C   UNL     1       3.752   1.536   2.737  0.00  0.00    -0.043 C 
BRANCH  28  29
ATOM     29  C   UNL     1       4.912   2.123   3.498  0.00  0.00    -0.064 A 
ATOM     30  C   UNL     1       4.772   2.443   4.835  0.00  0.00    +0.002 A 
ATOM     31  C   UNL     1       5.837   2.982   5.533  0.00  0.00    +0.000 A 
ATOM     32  C   UNL     1       7.042   3.200   4.893  0.00  0.00    +0.000 A 
ATOM     33  C   UNL     1       7.184   2.879   3.556  0.00  0.00    +0.000 A 
ATOM     34  C   UNL     1       6.120   2.337   2.860  0.00  0.00    +0.002 A 
ENDBRANCH  28  29
ENDBRANCH   4  28
TORSDOF 8
