REMARK  Name = ZINC01046754
REMARK  8 active torsions:
REMARK  status: ('A' for Active; 'I' for Inactive)
REMARK    1  A    between atoms: C_1  and  O_2
REMARK    2  A    between atoms: O_2  and  C_3
REMARK    3  A    between atoms: C_3  and  C_5
REMARK    4  A    between atoms: C_5  and  C_6
REMARK    5  A    between atoms: C_6  and  C_26
REMARK    6  A    between atoms: N_7  and  C_18
REMARK    7  A    between atoms: C_26  and  O_28
REMARK    8  A    between atoms: O_28  and  C_29
REMARK                            x       y       z     vdW  Elec       q    Type
REMARK                         _______ _______ _______ _____ _____    ______ ____
ROOT
ATOM      1  C   UNL     1       0.993   6.687   0.645  0.00  0.00    +0.292 C 
ATOM      2  N   UNL     1       2.277   6.109   0.246  0.00  0.00    -0.217 N 
ATOM      3  C   UNL     1       2.380   4.781   0.015  0.00  0.00    +0.258 C 
ATOM      4  O   UNL     1       3.460   4.261  -0.188  0.00  0.00    -0.269 OA
ATOM      5  C   UNL     1       1.138   3.982   0.016  0.00  0.00    +0.080 A 
ATOM      6  C   UNL     1       1.165   2.590   0.005  0.00  0.00    +0.032 A 
ATOM      7  C   UNL     1      -0.024   1.887   0.012  0.00  0.00    +0.019 A 
ATOM      8  C   UNL     1      -1.235   2.560   0.022  0.00  0.00    +0.019 A 
ATOM      9  C   UNL     1      -1.272   3.942   0.029  0.00  0.00    +0.047 A 
ATOM     10  C   UNL     1      -0.090   4.662   0.017  0.00  0.00    +0.136 A 
ATOM     11  O   UNL     1      -0.089   6.018  -0.000  0.00  0.00    -0.456 OA
ATOM     12 BR   UNL     1       0.002  -0.004   0.002  0.00  0.00    -0.050 Br
ENDROOT
BRANCH   2  13
ATOM     13  C   UNL     1       3.401   6.932   0.106  0.00  0.00    +0.059 A 
ATOM     14  C   UNL     1       3.685   7.517  -1.121  0.00  0.00    +0.026 A 
ATOM     15  C   UNL     1       4.791   8.333  -1.256  0.00  0.00    +0.017 A 
ATOM     16  C   UNL     1       5.622   8.560  -0.173  0.00  0.00    +0.019 A 
ATOM     17  C   UNL     1       5.345   7.974   1.049  0.00  0.00    +0.037 A 
ATOM     18  C   UNL     1       4.236   7.161   1.192  0.00  0.00    +0.064 A 
ATOM     19 CL   UNL     1       3.888   6.427   2.726  0.00  0.00    -0.082 Cl
ATOM     20 BR   UNL     1       7.140   9.671  -0.365  0.00  0.00    -0.050 Br
ENDBRANCH   2  13
BRANCH   1  21
ATOM     21  C   UNL     1       0.968   8.146   0.268  0.00  0.00    +0.372 C 
ATOM     22  O   UNL     1       0.075   8.576  -0.423  0.00  0.00    -0.244 OA
BRANCH  21  23
ATOM     23  O   UNL     1       1.938   8.967   0.700  0.00  0.00    -0.464 OA
ATOM     24  C   UNL     1       1.850  10.360   0.298  0.00  0.00    +0.280 C 
ENDBRANCH  21  23
ENDBRANCH   1  21
BRANCH   1  25
ATOM     25  C   UNL     1       0.832   6.558   2.161  0.00  0.00    +0.202 C 
BRANCH  25  26
ATOM     26  C   UNL     1      -0.489   7.151   2.578  0.00  0.00    +0.313 C 
ATOM     27  O   UNL     1      -1.226   7.628   1.748  0.00  0.00    -0.251 OA
BRANCH  26  29
ATOM     28  C   UNL     1      -2.133   7.737   4.201  0.00  0.00    +0.280 C 
ATOM     29  O   UNL     1      -0.847   7.149   3.872  0.00  0.00    -0.468 OA
ENDBRANCH  26  29
ENDBRANCH  25  26
ENDBRANCH   1  25
TORSDOF 6
