REMARK  Name = ZINC01085948
REMARK  8 active torsions:
REMARK  status: ('A' for Active; 'I' for Inactive)
REMARK    1  A    between atoms: C_1  and  C_2
REMARK    2  A    between atoms: C_5  and  S_8
REMARK    3  A    between atoms: S_8  and  C_11
REMARK    4  A    between atoms: C_13  and  N_18
REMARK    5  A    between atoms: C_16  and  O_17
REMARK    6  A    between atoms: N_18  and  S_19
REMARK    7  A    between atoms: S_19  and  C_22
REMARK    8  A    between atoms: C_25  and  C_28
REMARK                            x       y       z     vdW  Elec       q    Type
REMARK                         _______ _______ _______ _____ _____    ______ ____
ROOT
ATOM      1  C   UNL     1       1.830  -4.919  -0.021  0.00  0.00    +0.137 A 
ATOM      2  C   UNL     1       2.326  -5.630   1.054  0.00  0.00    +0.055 A 
ATOM      3  C   UNL     1       3.634  -6.096   1.034  0.00  0.00    +0.050 A 
ATOM      4  C   UNL     1       4.442  -5.847  -0.068  0.00  0.00    +0.028 A 
ATOM      5  C   UNL     1       3.944  -5.136  -1.142  0.00  0.00    +0.049 A 
ATOM      6  C   UNL     1       2.636  -4.675  -1.123  0.00  0.00    +0.142 A 
ENDROOT
BRANCH   1   7
ATOM      7  S   UNL     1       0.171  -4.327   0.004  0.00  0.00    +0.029 S 
ATOM      8  O   UNL     1      -0.377  -4.708   1.259  0.00  0.00    -0.164 OA
ATOM      9  O   UNL     1      -0.416  -4.712  -1.232  0.00  0.00    -0.164 OA
BRANCH   7  14
ATOM     10  C   UNL     1       0.421   1.701  -0.011  0.00  0.00    +0.044 C 
ATOM     11  C   UNL     1       0.359   0.196  -0.007  0.00  0.00    -0.050 A 
ATOM     12  C   UNL     1       0.312  -0.497  -1.202  0.00  0.00    +0.005 A 
ATOM     13  C   UNL     1       0.255  -1.878  -1.199  0.00  0.00    +0.027 A 
ATOM     14  C   UNL     1       0.245  -2.567  -0.000  0.00  0.00    +0.094 A 
ATOM     15  C   UNL     1       0.292  -1.874   1.195  0.00  0.00    +0.027 A 
ATOM     16  C   UNL     1       0.354  -0.493   1.192  0.00  0.00    +0.005 A 
ENDBRANCH   7  14
ENDBRANCH   1   7
BRANCH   6  17
ATOM     17  O   UNL     1       2.145  -3.979  -2.184  0.00  0.00    -0.505 OA
ATOM     18  H   UNL     1       2.278  -3.023  -2.123  0.00  0.00    +0.292 HD
ENDBRANCH   6  17
BRANCH   3  19
ATOM     19  N   UNL     1       4.137  -6.816   2.123  0.00  0.00    -0.216 N 
ATOM     20  H   UNL     1       3.989  -6.496   3.026  0.00  0.00    +0.174 HD
BRANCH  19  21
ATOM     21  S   UNL     1       4.987  -8.214   1.869  0.00  0.00    +0.072 S 
ATOM     22  O   UNL     1       6.010  -7.904   0.933  0.00  0.00    -0.150 OA
ATOM     23  O   UNL     1       5.268  -8.757   3.152  0.00  0.00    -0.150 OA
BRANCH  21  24
ATOM     24  C   UNL     1       3.900  -9.347   1.070  0.00  0.00    +0.109 A 
ATOM     25  C   UNL     1       3.036 -10.122   1.820  0.00  0.00    +0.029 A 
ATOM     26  C   UNL     1       2.183 -11.011   1.193  0.00  0.00    +0.005 A 
ATOM     27  C   UNL     1       2.193 -11.124  -0.185  0.00  0.00    -0.050 A 
ATOM     28  C   UNL     1       3.057 -10.348  -0.935  0.00  0.00    +0.005 A 
ATOM     29  C   UNL     1       3.907  -9.457  -0.308  0.00  0.00    +0.029 A 
ATOM     30  C   UNL     1       1.264 -12.094  -0.868  0.00  0.00    +0.044 C 
ENDBRANCH  21  24
ENDBRANCH  19  21
ENDBRANCH   3  19
TORSDOF 6
