REMARK  Name = ZINC12982489
REMARK  11 active torsions:
REMARK  status: ('A' for Active; 'I' for Inactive)
REMARK    1  A    between atoms: C_1  and  C_2
REMARK    2  A    between atoms: C_2  and  N_3
REMARK    3  A    between atoms: N_3  and  C_4
REMARK    4  A    between atoms: C_4  and  C_5
REMARK    5  A    between atoms: N_7  and  C_8
REMARK    6  A    between atoms: C_8  and  C_9
REMARK    7  A    between atoms: C_14  and  C_16
REMARK    8  A    between atoms: C_16  and  N_55
REMARK    9  A    between atoms: C_19  and  N_22
REMARK   10  A    between atoms: N_22  and  S_23
REMARK   11  A    between atoms: S_23  and  C_26
REMARK                            x       y       z     vdW  Elec       q    Type
REMARK                         _______ _______ _______ _____ _____    ______ ____
ROOT
ATOM      1  N   UNL     1       6.992   2.702  -4.817  0.00  0.00    -0.294 N 
ATOM      2  C   UNL     1       5.840   2.217  -4.315  0.00  0.00    +0.199 C 
ATOM      3  O   UNL     1       4.825   2.878  -4.380  0.00  0.00    -0.278 OA
ENDROOT
BRANCH   1   5
ATOM      4  C   UNL     1       8.339   1.031  -5.990  0.00  0.00    +0.024 C 
ATOM      5  C   UNL     1       8.218   1.904  -4.739  0.00  0.00    +0.105 C 
ENDBRANCH   1   5
BRANCH   1   6
ATOM      6  C   UNL     1       7.020   4.027  -5.441  0.00  0.00    +0.203 C 
BRANCH   6   7
ATOM      7  C   UNL     1       7.331   5.068  -4.396  0.00  0.00    +0.231 C 
ATOM      8  O   UNL     1       7.512   4.735  -3.243  0.00  0.00    -0.274 OA
ATOM      9  N   UNL     1       7.408   6.368  -4.741  0.00  0.00    -0.309 N 
ATOM     10  H   UNL     1       7.263   6.634  -5.663  0.00  0.00    +0.149 HD
BRANCH   9  11
ATOM     11  C   UNL     1       7.711   7.380  -3.725  0.00  0.00    +0.146 C 
BRANCH  11  12
ATOM     12  C   UNL     1       7.739   8.743  -4.367  0.00  0.00    +0.007 A 
ATOM     13  C   UNL     1       6.725   9.626  -4.541  0.00  0.00    +0.013 A 
ATOM     14  C   UNL     1       6.987  10.833  -5.160  0.00  0.00    +0.008 A 
ATOM     15  C   UNL     1       8.247  11.095  -5.584  0.00  0.00    +0.045 A 
ATOM     16  S   UNL     1       9.115   9.611  -5.101  0.00  0.00    -0.100 S 
ENDBRANCH  11  12
ENDBRANCH   9  11
ENDBRANCH   6   7
ENDBRANCH   1   6
BRANCH   2  17
ATOM     17  C   UNL     1       5.811   0.854  -3.674  0.00  0.00    +0.019 C 
BRANCH  17  23
ATOM     18  C   UNL     1       3.624   0.318  -4.564  0.00  0.00    -0.077 C 
ATOM     19  C   UNL     1       2.159   0.090  -4.184  0.00  0.00    +0.002 C 
ATOM     20  C   UNL     1       2.054  -1.152  -3.296  0.00  0.00    +0.073 C 
ATOM     21  C   UNL     1       2.935  -0.961  -2.058  0.00  0.00    +0.002 C 
ATOM     22  C   UNL     1       4.377  -0.703  -2.499  0.00  0.00    -0.077 C 
ATOM     23  N   UNL     1       4.414   0.519  -3.330  0.00  0.00    +0.385 N 
ATOM     24  H   UNL     1       4.006   1.296  -2.797  0.00  0.00    -0.081 HD
BRANCH  20  25
ATOM     25  N   UNL     1       0.662  -1.342  -2.882  0.00  0.00    -0.192 NA
ATOM     26  H   UNL     1       0.098  -0.572  -2.710  0.00  0.00    +0.148 HD
BRANCH  25  27
ATOM     27  S   UNL     1       0.051  -2.871  -2.708  0.00  0.00    +0.027 S 
ATOM     28  O   UNL     1       0.376  -3.532  -3.923  0.00  0.00    -0.158 OA
ATOM     29  O   UNL     1      -1.305  -2.678  -2.328  0.00  0.00    -0.158 OA
ATOM     30  C   UNL     1       0.987  -3.594  -1.333  0.00  0.00    +0.214 C 
ENDBRANCH  25  27
ENDBRANCH  20  25
ENDBRANCH  17  23
ENDBRANCH   2  17
TORSDOF 9
