REMARK  Name = ZINC41026405
REMARK  6 active torsions:
REMARK  status: ('A' for Active; 'I' for Inactive)
REMARK    1  A    between atoms: C_5  and  C_7
REMARK    2  A    between atoms: C_7  and  N_8
REMARK    3  A    between atoms: C_12  and  N_28
REMARK    4  A    between atoms: C_13  and  N_15
REMARK    5  A    between atoms: N_15  and  C_16
REMARK    6  A    between atoms: C_17  and  C_25
REMARK                            x       y       z     vdW  Elec       q    Type
REMARK                         _______ _______ _______ _____ _____    ______ ____
ROOT
ATOM      1  N   UNL     1       1.489  -2.679   1.333  0.00  0.00    -0.309 N 
ATOM      2  C   UNL     1       1.553  -4.040   1.574  0.00  0.00    +0.219 A 
ATOM      3  N   UNL     1       1.383  -4.882   0.566  0.00  0.00    -0.197 NA
ATOM      4  C   UNL     1       1.439  -6.197   0.759  0.00  0.00    +0.154 A 
ATOM      5  C   UNL     1       1.680  -6.684   2.042  0.00  0.00    +0.205 A 
ATOM      6  C   UNL     1       1.854  -5.769   3.075  0.00  0.00    +0.161 A 
ATOM      7  N   UNL     1       1.790  -4.466   2.805  0.00  0.00    -0.197 NA
ATOM      8  N   UNL     1       1.259  -7.072  -0.301  0.00  0.00    -0.341 N 
ATOM      9  H   UNL     1       1.615  -2.051   2.062  0.00  0.00    +0.149 HD
ATOM     10  H   UNL     1       1.091  -6.726  -1.192  0.00  0.00    +0.144 HD
ATOM     11  H   UNL     1       1.301  -8.030  -0.152  0.00  0.00    +0.144 HD
ENDROOT
BRANCH   5  12
ATOM     12  N   UNL     1       1.749  -8.140   2.299  0.00  0.00    +0.063 N 
ATOM     13  O   UNL     1       2.808  -8.719   2.217  0.00  0.00    -0.126 OA
ATOM     14  O   UNL     1       0.748  -8.750   2.592  0.00  0.00    -0.126 OA
ENDBRANCH   5  12
BRANCH   6  15
ATOM     15  N   UNL     1       2.096  -6.207   4.369  0.00  0.00    -0.291 N 
ATOM     16  H   UNL     1       2.145  -7.157   4.558  0.00  0.00    +0.154 HD
BRANCH  15  17
ATOM     17  C   UNL     1       2.268  -5.289   5.390  0.00  0.00    +0.084 A 
ATOM     18  C   UNL     1       2.521  -5.541   6.731  0.00  0.00    +0.068 A 
ATOM     19  C   UNL     1       2.662  -4.391   7.607  0.00  0.00    -0.023 A 
ATOM     20  C   UNL     1       2.524  -3.201   6.984  0.00  0.00    -0.004 A 
ATOM     21  S   UNL     1       2.224  -3.613   5.290  0.00  0.00    -0.077 S 
ATOM     22  C   UNL     1       2.612  -1.843   7.609  0.00  0.00    +0.043 C 
ATOM     23  C   UNL     1       2.510  -2.005   9.132  0.00  0.00    +0.005 C 
ATOM     24  C   UNL     1       3.464  -3.117   9.578  0.00  0.00    +0.005 C 
ATOM     25  C   UNL     1       2.941  -4.474   9.101  0.00  0.00    +0.037 C 
BRANCH  18  26
ATOM     26  C   UNL     1       2.641  -6.909   7.241  0.00  0.00    +0.244 C 
ATOM     27  O   UNL     1       3.727  -7.458   7.261  0.00  0.00    -0.270 OA
ATOM     28  N   UNL     1       1.549  -7.560   7.688  0.00  0.00    -0.325 N 
ATOM     29  H   UNL     1       0.683  -7.122   7.672  0.00  0.00    +0.145 HD
ATOM     30  H   UNL     1       1.628  -8.466   8.026  0.00  0.00    +0.145 HD
ENDBRANCH  18  26
ENDBRANCH  15  17
ENDBRANCH   6  15
BRANCH   1  31
ATOM     31  C   UNL     1       1.229  -2.186  -0.022  0.00  0.00    +0.141 C 
BRANCH  31  36
ATOM     32  C   UNL     1      -0.017   1.378   0.010  0.00  0.00    +0.000 A 
ATOM     33  C   UNL     1       1.171   2.086   0.002  0.00  0.00    +0.001 A 
ATOM     34  C   UNL     1       2.377   1.412  -0.013  0.00  0.00    +0.020 A 
ATOM     35  C   UNL     1       2.397   0.029  -0.021  0.00  0.00    +0.046 A 
ATOM     36  C   UNL     1       1.208  -0.679  -0.013  0.00  0.00    -0.012 A 
ATOM     37  C   UNL     1       0.002  -0.004   0.002  0.00  0.00    +0.006 A 
ATOM     38 CL   UNL     1       3.912  -0.818  -0.041  0.00  0.00    -0.083 Cl
ENDBRANCH  31  36
ENDBRANCH   1  31
TORSDOF 6
