REMARK  Name = ZINC32948662
REMARK  9 active torsions:
REMARK  status: ('A' for Active; 'I' for Inactive)
REMARK    1  A    between atoms: C_1  and  C_2
REMARK    2  A    between atoms: C_5  and  N_8
REMARK    3  A    between atoms: C_15  and  S_17
REMARK    4  A    between atoms: S_17  and  C_18
REMARK    5  A    between atoms: C_18  and  C_19
REMARK    6  A    between atoms: N_21  and  C_22
REMARK    7  A    between atoms: C_25  and  C_28
REMARK    8  A    between atoms: C_28  and  O_30
REMARK    9  A    between atoms: O_30  and  C_31
REMARK                            x       y       z     vdW  Elec       q    Type
REMARK                         _______ _______ _______ _____ _____    ______ ____
ROOT
ATOM      1  N   UNL     1       3.078  -0.975  -3.103  0.00  0.00    -0.282 N 
ATOM      2  C   UNL     1       1.865  -0.369  -3.314  0.00  0.00    +0.161 A 
ATOM      3  C   UNL     1       1.447  -0.276  -4.643  0.00  0.00    +0.122 A 
ATOM      4  C   UNL     1       0.240   0.314  -4.993  0.00  0.00    +0.268 A 
ATOM      5  O   UNL     1      -0.107   0.385  -6.161  0.00  0.00    -0.267 OA
ATOM      6  N   UNL     1      -0.545   0.804  -4.003  0.00  0.00    -0.301 N 
ATOM      7  H   UNL     1      -1.511   1.270  -4.247  0.00  0.00    +0.171 HD
ATOM      8  C   UNL     1      -0.116   0.707  -2.713  0.00  0.00    +0.172 A 
ATOM      9  N   UNL     1       1.023   0.150  -2.386  0.00  0.00    -0.204 NA
ATOM     10  S   UNL     1       2.774  -1.042  -5.539  0.00  0.00    -0.055 S 
ATOM     11  C   UNL     1       3.806  -1.444  -4.138  0.00  0.00    +0.132 A 
ATOM     12  S   UNL     1       5.329  -2.225  -4.114  0.00  0.00    -0.024 S 
ENDROOT
BRANCH   1  17
ATOM     13  C   UNL     1       5.061  -1.511   2.187  0.00  0.00    +0.044 C 
ATOM     14  C   UNL     1       4.535  -1.368   0.782  0.00  0.00    -0.050 A 
ATOM     15  C   UNL     1       4.212  -2.495   0.048  0.00  0.00    +0.005 A 
ATOM     16  C   UNL     1       3.729  -2.368  -1.239  0.00  0.00    +0.026 A 
ATOM     17  C   UNL     1       3.568  -1.107  -1.798  0.00  0.00    +0.050 A 
ATOM     18  C   UNL     1       3.898   0.022  -1.060  0.00  0.00    +0.026 A 
ATOM     19  C   UNL     1       4.375  -0.111   0.229  0.00  0.00    +0.005 A 
ENDBRANCH   1  17
BRANCH   8  20
ATOM     20  S   UNL     1      -1.140   1.352  -1.432  0.00  0.00    -0.078 S 
BRANCH  20  21
ATOM     21  C   UNL     1      -0.121   0.959   0.012  0.00  0.00    +0.173 C 
BRANCH  21  22
ATOM     22  C   UNL     1      -0.818   1.433   1.262  0.00  0.00    +0.227 C 
ATOM     23  O   UNL     1      -1.896   1.981   1.184  0.00  0.00    -0.275 OA
ATOM     24  N   UNL     1      -0.242   1.246   2.466  0.00  0.00    -0.285 N 
ATOM     25  H   UNL     1       0.694   0.672   2.545  0.00  0.00    +0.155 HD
BRANCH  24  26
ATOM     26  C   UNL     1      -0.831   1.780   3.611  0.00  0.00    +0.033 A 
ATOM     27  C   UNL     1      -1.512   2.991   3.540  0.00  0.00    +0.024 A 
ATOM     28  C   UNL     1      -2.100   3.519   4.668  0.00  0.00    +0.017 A 
ATOM     29  C   UNL     1      -2.002   2.842   5.887  0.00  0.00    +0.059 A 
ATOM     30  C   UNL     1      -1.312   1.628   5.955  0.00  0.00    +0.017 A 
ATOM     31  C   UNL     1      -0.732   1.103   4.822  0.00  0.00    +0.024 A 
BRANCH  29  32
ATOM     32  C   UNL     1      -2.626   3.407   7.098  0.00  0.00    +0.339 C 
ATOM     33  O   UNL     1      -2.541   2.817   8.157  0.00  0.00    -0.245 OA
BRANCH  32  34
ATOM     34  O   UNL     1      -3.290   4.577   7.030  0.00  0.00    -0.464 OA
ATOM     35  C   UNL     1      -3.879   5.073   8.261  0.00  0.00    +0.280 C 
ENDBRANCH  32  34
ENDBRANCH  29  32
ENDBRANCH  24  26
ENDBRANCH  21  22
ENDBRANCH  20  21
ENDBRANCH   8  20
TORSDOF 7
