REMARK  Name = ZINC66178812
REMARK  7 active torsions:
REMARK  status: ('A' for Active; 'I' for Inactive)
REMARK    1  A    between atoms: C_1  and  C_2
REMARK    2  A    between atoms: N_7  and  C_9
REMARK    3  A    between atoms: C_9  and  C_11
REMARK    4  A    between atoms: C_9  and  C_12
REMARK    5  A    between atoms: C_12  and  N_13
REMARK    6  A    between atoms: C_19  and  N_22
REMARK    7  A    between atoms: C_23  and  C_25
REMARK                            x       y       z     vdW  Elec       q    Type
REMARK                         _______ _______ _______ _____ _____    ______ ____
ROOT
ATOM      1  N   UNL     1       3.065  -0.566   2.179  0.00  0.00    -0.301 N 
ATOM      2  C   UNL     1       4.245   0.042   1.946  0.00  0.00    +0.302 C 
ATOM      3  O   UNL     1       5.265  -0.617   1.876  0.00  0.00    -0.253 OA
ATOM      4  N   UNL     1       4.295   1.380   1.790  0.00  0.00    -0.286 N 
ATOM      5  C   UNL     1       5.553   2.044   1.421  0.00  0.00    +0.111 C 
ATOM      6  C   UNL     1       5.843   3.151   2.440  0.00  0.00    +0.041 C 
ATOM      7  C   UNL     1       4.637   4.090   2.524  0.00  0.00    +0.076 C 
ATOM      8  C   UNL     1       3.410   3.307   2.998  0.00  0.00    +0.041 C 
ATOM      9  C   UNL     1       3.091   2.201   1.980  0.00  0.00    +0.111 C 
ATOM     10  H   UNL     1       2.263  -0.035   2.306  0.00  0.00    +0.150 HD
ENDROOT
BRANCH   7  11
ATOM     11  N   UNL     1       4.924   5.169   3.473  0.00  0.00    -0.312 N 
ATOM     12  C   UNL     1       4.285   6.350   3.362  0.00  0.00    +0.216 C 
ATOM     13  O   UNL     1       3.473   6.521   2.478  0.00  0.00    -0.276 OA
ATOM     14  H   UNL     1       5.573   5.032   4.180  0.00  0.00    +0.149 HD
BRANCH  12  15
ATOM     15  C   UNL     1       4.580   7.460   4.338  0.00  0.00    +0.075 C 
ATOM     16  C   UNL     1       3.809   7.337   5.663  0.00  0.00    +0.013 C 
ATOM     17  C   UNL     1       3.618   8.861   5.603  0.00  0.00    +0.001 C 
ATOM     18  C   UNL     1       3.771   8.741   4.077  0.00  0.00    +0.013 C 
ENDBRANCH  12  15
ENDBRANCH   7  11
BRANCH   1  19
ATOM     19  C   UNL     1       2.993  -2.028   2.240  0.00  0.00    +0.090 C 
BRANCH  19  20
ATOM     20  C   UNL     1       1.533  -2.461   2.386  0.00  0.00    -0.054 C 
ATOM     21  C   UNL     1       1.447  -3.988   2.334  0.00  0.00    -0.012 C 
BRANCH  20  27
ATOM     22  C   UNL     1      -2.986  -1.953   0.572  0.00  0.00    +0.005 C 
ATOM     23  C   UNL     1      -1.514  -1.581   0.380  0.00  0.00    -0.031 C 
ATOM     24  C   UNL     1      -1.037  -2.072  -0.990  0.00  0.00    -0.001 C 
ATOM     25  C   UNL     1       0.455  -1.765  -1.141  0.00  0.00    -0.018 C 
ATOM     26  C   UNL     1       1.224  -2.419   0.009  0.00  0.00    -0.078 C 
ATOM     27  N   UNL     1       0.740  -1.889   1.290  0.00  0.00    +0.383 N 
ATOM     28  C   UNL     1      -0.673  -2.241   1.474  0.00  0.00    -0.075 C 
ATOM     29  H   UNL     1       0.838  -0.885   1.295  0.00  0.00    -0.081 HD
ENDBRANCH  20  27
ENDBRANCH  19  20
ENDBRANCH   1  19
TORSDOF 5
