REMARK  Name = ZINC21969311
REMARK  8 active torsions:
REMARK  status: ('A' for Active; 'I' for Inactive)
REMARK    1  A    between atoms: C_1  and  C_2
REMARK    2  A    between atoms: C_6  and  C_15
REMARK    3  A    between atoms: N_17  and  N_18
REMARK    4  A    between atoms: C_19  and  C_21
REMARK    5  A    between atoms: C_28  and  C_31
REMARK    6  A    between atoms: C_31  and  C_32
REMARK    7  A    between atoms: C_31  and  C_33
REMARK    8  A    between atoms: C_31  and  C_34
REMARK                            x       y       z     vdW  Elec       q    Type
REMARK                         _______ _______ _______ _____ _____    ______ ____
ROOT
ATOM      1  C   UNL     1       3.634   5.858   0.062  0.00  0.00    +0.271 C 
ATOM      2  O   UNL     1       4.465   5.256  -0.584  0.00  0.00    -0.270 OA
ATOM      3  N   UNL     1       3.885   7.115   0.480  0.00  0.00    -0.231 N 
ATOM      4  H   UNL     1       3.131   7.661   1.066  0.00  0.00    +0.173 HD
ENDROOT
BRANCH   1  10
ATOM      5  C   UNL     1      -1.165   7.428   0.449  0.00  0.00    +0.109 C 
ATOM      6  C   UNL     1      -1.200   5.926   0.332  0.00  0.00    +0.217 C 
ATOM      7  O   UNL     1      -2.239   5.328   0.518  0.00  0.00    -0.276 OA
ATOM      8  N   UNL     1      -0.078   5.248   0.021  0.00  0.00    -0.264 N 
ATOM      9  C   UNL     1       1.175   5.953  -0.297  0.00  0.00    +0.168 C 
ATOM     10  C   UNL     1       2.320   5.201   0.399  0.00  0.00    +0.278 C 
ATOM     11  O   UNL     1       2.329   3.848  -0.062  0.00  0.00    -0.476 OA
ATOM     12  C   UNL     1       1.154   3.166  -0.047  0.00  0.00    +0.143 A 
ATOM     13  C   UNL     1      -0.063   3.843  -0.011  0.00  0.00    +0.078 A 
ATOM     14  C   UNL     1      -1.254   3.135  -0.007  0.00  0.00    +0.027 A 
ATOM     15  C   UNL     1      -1.234   1.752  -0.041  0.00  0.00    +0.002 A 
ATOM     16  C   UNL     1      -0.027   1.078  -0.068  0.00  0.00    +0.004 A 
ATOM     17  C   UNL     1       1.164   1.780  -0.074  0.00  0.00    +0.047 A 
ENDBRANCH   1  10
BRANCH   3  18
ATOM     18  N   UNL     1       5.106   7.726   0.167  0.00  0.00    -0.230 N 
ATOM     19  C   UNL     1       5.358   8.982   0.584  0.00  0.00    +0.267 C 
ATOM     20  O   UNL     1       4.524   9.586   1.233  0.00  0.00    -0.268 OA
ATOM     21  H   UNL     1       5.860   7.179  -0.419  0.00  0.00    +0.173 HD
BRANCH  19  22
ATOM     22  C   UNL     1       6.636   9.621   0.257  0.00  0.00    +0.076 A 
ATOM     23  C   UNL     1       7.085  10.888   0.579  0.00  0.00    +0.024 A 
ATOM     24  C   UNL     1       8.349  11.263   0.153  0.00  0.00    -0.036 A 
ATOM     25  C   UNL     1       9.052  10.341  -0.569  0.00  0.00    -0.006 A 
ATOM     26  S   UNL     1       8.016   8.970  -0.669  0.00  0.00    -0.088 S 
ATOM     27  C   UNL     1      10.426  10.502  -1.143  0.00  0.00    +0.043 C 
ATOM     28  C   UNL     1      11.086  11.723  -0.487  0.00  0.00    +0.009 C 
ATOM     29  C   UNL     1      10.098  12.893  -0.520  0.00  0.00    -0.001 C 
ATOM     30  C   UNL     1       8.949  12.633   0.455  0.00  0.00    +0.040 C 
BRANCH  29  31
ATOM     31  C   UNL     1      10.824  14.179  -0.119  0.00  0.00    -0.035 C 
ATOM     32  C   UNL     1      11.380  14.030   1.299  0.00  0.00    +0.011 C 
ATOM     33  C   UNL     1      11.974  14.441  -1.093  0.00  0.00    +0.011 C 
ATOM     34  C   UNL     1       9.843  15.353  -0.161  0.00  0.00    +0.011 C 
ENDBRANCH  29  31
ENDBRANCH  19  22
ENDBRANCH   3  18
TORSDOF 4
