REMARK  Name = ZINC41279546
REMARK  11 active torsions:
REMARK  status: ('A' for Active; 'I' for Inactive)
REMARK    1  A    between atoms: C_1  and  C_2
REMARK    2  A    between atoms: C_2  and  N_3
REMARK    3  A    between atoms: N_3  and  C_4
REMARK    4  A    between atoms: N_3  and  C_31
REMARK    5  A    between atoms: C_4  and  C_5
REMARK    6  A    between atoms: C_5  and  C_6
REMARK    7  A    between atoms: C_6  and  N_7
REMARK    8  A    between atoms: C_8  and  C_10
REMARK    9  A    between atoms: N_13  and  C_16
REMARK   10  A    between atoms: C_16  and  C_17
REMARK   11  A    between atoms: C_20  and  C_22
REMARK                            x       y       z     vdW  Elec       q    Type
REMARK                         _______ _______ _______ _____ _____    ______ ____
ROOT
ATOM      1  C   UNL     1       5.761  -5.620   0.161  0.00  0.00    +0.071 C 
ATOM      2  C   UNL     1       5.119  -6.581  -0.843  0.00  0.00    -0.006 C 
ATOM      3  C   UNL     1       5.475  -8.020  -0.464  0.00  0.00    -0.077 C 
ATOM      4  N   UNL     1       6.933  -8.189  -0.486  0.00  0.00    +0.386 N 
ATOM      5  C   UNL     1       7.550  -7.322   0.526  0.00  0.00    -0.077 C 
ATOM      6  C   UNL     1       7.273  -5.856   0.184  0.00  0.00    -0.006 C 
ATOM      7  H   UNL     1       7.285  -7.943  -1.398  0.00  0.00    -0.081 HD
ENDROOT
BRANCH   1   9
ATOM      8  N   UNL     1       4.207  -3.762  -0.341  0.00  0.00    -0.315 N 
ATOM      9  C   UNL     1       5.479  -4.198  -0.251  0.00  0.00    +0.216 C 
ATOM     10  O   UNL     1       6.397  -3.446  -0.502  0.00  0.00    -0.276 OA
ATOM     11  H   UNL     1       3.473  -4.363  -0.139  0.00  0.00    +0.149 HD
BRANCH   8  12
ATOM     12  C   UNL     1       3.933  -2.379  -0.741  0.00  0.00    +0.105 C 
BRANCH  12  13
ATOM     13  C   UNL     1       2.421  -2.145  -0.763  0.00  0.00    +0.037 C 
BRANCH  13  14
ATOM     14  C   UNL     1       2.135  -0.701  -1.182  0.00  0.00    +0.106 C 
BRANCH  14  15
ATOM     15  N   UNL     1       0.688  -0.476  -1.203  0.00  0.00    -0.330 N 
BRANCH  15  16
ATOM     16  C   UNL     1      -0.038  -0.713  -2.373  0.00  0.00    +0.030 A 
ATOM     17  C   UNL     1       0.609  -1.166  -3.515  0.00  0.00    +0.023 A 
ATOM     18  C   UNL     1      -0.112  -1.399  -4.669  0.00  0.00    +0.002 A 
ATOM     19  C   UNL     1      -1.477  -1.181  -4.689  0.00  0.00    +0.000 A 
ATOM     20  C   UNL     1      -2.125  -0.730  -3.554  0.00  0.00    +0.002 A 
ATOM     21  C   UNL     1      -1.411  -0.500  -2.395  0.00  0.00    +0.023 A 
ENDBRANCH  15  16
BRANCH  15  23
ATOM     22  C   UNL     1      -0.019   1.526   0.010  0.00  0.00    +0.024 C 
ATOM     23  C   UNL     1       0.002  -0.004   0.002  0.00  0.00    +0.102 C 
ENDBRANCH  15  23
ENDBRANCH  14  15
ENDBRANCH  13  14
ENDBRANCH  12  13
ENDBRANCH   8  12
ENDBRANCH   1   9
BRANCH   4  24
ATOM     24  C   UNL     1       7.266  -9.590  -0.197  0.00  0.00    +0.021 C 
BRANCH  24  25
ATOM     25  C   UNL     1       8.753  -9.792  -0.340  0.00  0.00    +0.202 A 
ATOM     26  N   UNL     1       9.642  -9.661   0.605  0.00  0.00    -0.114 NA
ATOM     27  N   UNL     1      10.812  -9.908   0.132  0.00  0.00    -0.107 NA
ATOM     28  C   UNL     1      10.710 -10.209  -1.142  0.00  0.00    +0.248 A 
ATOM     29  O   UNL     1       9.402 -10.147  -1.463  0.00  0.00    -0.422 OA
BRANCH  28  30
ATOM     30  C   UNL     1      11.820 -10.556  -2.053  0.00  0.00    +0.042 A 
ATOM     31  C   UNL     1      11.560 -10.849  -3.393  0.00  0.00    +0.017 A 
ATOM     32  C   UNL     1      12.598 -11.173  -4.241  0.00  0.00    +0.050 A 
ATOM     33  C   UNL     1      13.902 -11.210  -3.768  0.00  0.00    +0.166 A 
ATOM     34  C   UNL     1      14.168 -10.918  -2.431  0.00  0.00    +0.167 A 
ATOM     35  C   UNL     1      13.132 -10.587  -1.577  0.00  0.00    +0.062 A 
ATOM     36  O   UNL     1      15.513 -11.022  -2.221  0.00  0.00    -0.453 OA
ATOM     37  C   UNL     1      16.018 -11.777  -3.338  0.00  0.00    +0.466 C 
ATOM     38  O   UNL     1      15.080 -11.496  -4.394  0.00  0.00    -0.453 OA
ENDBRANCH  28  30
ENDBRANCH  24  25
ENDBRANCH   4  24
TORSDOF 10
