REMARK  Name = ZINC20425204
REMARK  6 active torsions:
REMARK  status: ('A' for Active; 'I' for Inactive)
REMARK    1  A    between atoms: C_1  and  C_2
REMARK    2  A    between atoms: C_4  and  C_13
REMARK    3  A    between atoms: C_6  and  C_12
REMARK    4  A    between atoms: C_7  and  O_8
REMARK    5  A    between atoms: O_8  and  C_9
REMARK    6  A    between atoms: C_9  and  C_10
REMARK                            x       y       z     vdW  Elec       q    Type
REMARK                         _______ _______ _______ _____ _____    ______ ____
ROOT
ATOM      1  C   UNL     1       2.490   1.046  -0.016  0.00  0.00    +0.047 C 
ATOM      2  C   UNL     1       1.175   1.782   0.000  0.00  0.00    -0.008 A 
ATOM      3  C   UNL     1      -0.013   1.076   0.008  0.00  0.00    +0.011 A 
ATOM      4  C   UNL     1      -1.220   1.750   0.017  0.00  0.00    -0.032 A 
ATOM      5  C   UNL     1      -1.242   3.133   0.030  0.00  0.00    +0.011 A 
ATOM      6  C   UNL     1      -0.057   3.844   0.022  0.00  0.00    -0.008 A 
ATOM      7  C   UNL     1       1.155   3.169   0.008  0.00  0.00    +0.128 A 
ATOM      8  C   UNL     1      -0.082   5.350   0.031  0.00  0.00    +0.047 C 
ENDROOT
BRANCH   4   9
ATOM      9  C   UNL     1      -2.513   0.977   0.019  0.00  0.00    +0.143 C 
ATOM     10 CL   UNL     1      -3.021   0.660   1.720  0.00  0.00    -0.120 Cl
ENDBRANCH   4   9
BRANCH   7  11
ATOM     11  O   UNL     1       2.322   3.866   0.001  0.00  0.00    -0.477 OA
BRANCH  11  12
ATOM     12  C   UNL     1       2.867   4.206  -1.276  0.00  0.00    +0.346 C 
BRANCH  12  13
ATOM     13  C   UNL     1       4.122   4.953  -1.091  0.00  0.00    +0.104 C 
ATOM     14  N   UNL     1       5.090   5.530  -0.947  0.00  0.00    -0.193 NA
ENDBRANCH  12  13
ENDBRANCH  11  12
ENDBRANCH   7  11
TORSDOF 4
