REMARK  Name = ZINC11603864
REMARK  11 active torsions:
REMARK  status: ('A' for Active; 'I' for Inactive)
REMARK    1  A    between atoms: C_1  and  N_62
REMARK    2  A    between atoms: C_2  and  N_62
REMARK    3  A    between atoms: C_3  and  C_5
REMARK    4  A    between atoms: C_3  and  C_26
REMARK    5  A    between atoms: C_3  and  N_62
REMARK    6  A    between atoms: C_5  and  N_6
REMARK    7  A    between atoms: C_7  and  C_9
REMARK    8  A    between atoms: C_9  and  C_10
REMARK    9  A    between atoms: C_10  and  C_11
REMARK   10  A    between atoms: C_30  and  O_32
REMARK   11  A    between atoms: O_32  and  C_33
REMARK                            x       y       z     vdW  Elec       q    Type
REMARK                         _______ _______ _______ _____ _____    ______ ____
ROOT
ATOM      1  N   UNL     1      -0.208   0.464  -0.366  0.00  0.00    -0.317 N 
ATOM      2  C   UNL     1      -1.458   0.826  -0.717  0.00  0.00    +0.213 C 
ATOM      3  O   UNL     1      -1.652   1.902  -1.242  0.00  0.00    -0.276 OA
ATOM      4  H   UNL     1      -0.052  -0.397   0.054  0.00  0.00    +0.149 HD
ENDROOT
BRANCH   1   5
ATOM      5  C   UNL     1       0.916   1.367  -0.625  0.00  0.00    +0.093 C 
BRANCH   5   6
ATOM      6  C   UNL     1       2.214   0.717  -0.141  0.00  0.00    -0.021 C 
BRANCH   6   7
ATOM      7  C   UNL     1       3.352   1.693  -0.294  0.00  0.00    -0.056 A 
ATOM      8  C   UNL     1       3.218   2.989   0.170  0.00  0.00    +0.002 A 
ATOM      9  C   UNL     1       4.262   3.885   0.036  0.00  0.00    +0.004 A 
ATOM     10  C   UNL     1       5.439   3.491  -0.571  0.00  0.00    +0.045 A 
ATOM     11  C   UNL     1       5.574   2.193  -1.042  0.00  0.00    +0.120 A 
ATOM     12  C   UNL     1       4.527   1.294  -0.902  0.00  0.00    +0.047 A 
BRANCH  11  13
ATOM     13  O   UNL     1       6.730   1.804  -1.640  0.00  0.00    -0.495 OA
ATOM     14  C   UNL     1       7.766   2.782  -1.750  0.00  0.00    +0.277 C 
ENDBRANCH  11  13
ENDBRANCH   6   7
BRANCH   6  17
ATOM     15  C   UNL     1       3.230  -0.450   1.722  0.00  0.00    -0.096 C 
ATOM     16  C   UNL     1       1.894   1.531   2.117  0.00  0.00    -0.096 C 
ATOM     17  N   UNL     1       2.053   0.326   1.276  0.00  0.00    +0.382 N 
ATOM     18  H   UNL     1       1.214  -0.258   1.367  0.00  0.00    -0.082 HD
ENDBRANCH   6  17
ENDBRANCH   5   6
ENDBRANCH   1   5
BRANCH   2  19
ATOM     19  C   UNL     1      -2.613  -0.106  -0.456  0.00  0.00    +0.103 C 
BRANCH  19  20
ATOM     20  C   UNL     1      -3.910   0.542  -0.946  0.00  0.00    +0.083 C 
BRANCH  20  21
ATOM     21  C   UNL     1      -5.066  -0.390  -0.685  0.00  0.00    +0.111 A 
ATOM     22  N   UNL     1      -6.320  -0.013  -1.043  0.00  0.00    -0.310 N 
ATOM     23  H   UNL     1      -6.455   0.852  -1.462  0.00  0.00    +0.170 HD
ATOM     24  C   UNL     1      -7.380  -0.814  -0.829  0.00  0.00    +0.260 A 
ATOM     25  O   UNL     1      -8.500  -0.461  -1.156  0.00  0.00    -0.267 OA
ATOM     26  C   UNL     1      -7.170  -2.089  -0.210  0.00  0.00    +0.075 A 
ATOM     27  C   UNL     1      -8.161  -3.114   0.118  0.00  0.00    -0.023 A 
ATOM     28  C   UNL     1      -7.705  -4.241   0.705  0.00  0.00    -0.004 A 
ATOM     29  S   UNL     1      -5.955  -4.006   0.852  0.00  0.00    -0.073 S 
ATOM     30  C   UNL     1      -5.841  -2.391   0.124  0.00  0.00    +0.116 A 
ATOM     31  N   UNL     1      -4.843  -1.548  -0.124  0.00  0.00    -0.227 NA
ATOM     32  C   UNL     1      -8.510  -5.429   1.136  0.00  0.00    +0.043 C 
ATOM     33  C   UNL     1      -9.993  -5.030   1.151  0.00  0.00    +0.005 C 
ATOM     34  C   UNL     1     -10.321  -4.309  -0.160  0.00  0.00    +0.005 C 
ATOM     35  C   UNL     1      -9.647  -2.937  -0.181  0.00  0.00    +0.037 C 
ENDBRANCH  20  21
ENDBRANCH  19  20
ENDBRANCH   2  19
TORSDOF 8
