REMARK  Name = ZINC66375616
REMARK  6 active torsions:
REMARK  status: ('A' for Active; 'I' for Inactive)
REMARK    1  A    between atoms: C_1  and  C_2
REMARK    2  A    between atoms: C_10  and  C_12
REMARK    3  A    between atoms: C_12  and  N_13
REMARK    4  A    between atoms: N_13  and  C_14
REMARK    5  A    between atoms: C_16  and  N_22
REMARK    6  A    between atoms: C_23  and  C_25
REMARK                            x       y       z     vdW  Elec       q    Type
REMARK                         _______ _______ _______ _____ _____    ______ ____
ROOT
ATOM      1  N   UNL     1      -1.121  -4.050   4.627  0.00  0.00    -0.336 N 
ATOM      2  H   UNL     1      -1.793  -3.927   3.938  0.00  0.00    +0.147 HD
ENDROOT
BRANCH   1   3
ATOM      3  C   UNL     1      -1.338  -4.972   5.659  0.00  0.00    +0.065 A 
ATOM      4  C   UNL     1      -0.380  -5.144   6.647  0.00  0.00    +0.052 A 
ATOM      5  C   UNL     1      -0.597  -6.058   7.669  0.00  0.00    +0.071 A 
ATOM      6  C   UNL     1      -1.773  -6.798   7.700  0.00  0.00    +0.147 A 
ATOM      7  C   UNL     1      -2.727  -6.625   6.713  0.00  0.00    +0.080 A 
ATOM      8  C   UNL     1      -2.515  -5.710   5.697  0.00  0.00    +0.147 A 
ATOM      9  F   UNL     1      -3.450  -5.539   4.737  0.00  0.00    -0.203 F 
ATOM     10  F   UNL     1      -1.984  -7.688   8.694  0.00  0.00    -0.203 F 
BRANCH   5  11
ATOM     11  N   UNL     1       0.370  -6.234   8.668  0.00  0.00    -0.283 N 
ATOM     12  C   UNL     1       1.234  -5.240   8.953  0.00  0.00    +0.214 C 
ATOM     13  O   UNL     1       1.114  -4.159   8.416  0.00  0.00    -0.276 OA
ATOM     14  C   UNL     1       2.351  -5.472   9.938  0.00  0.00    +0.109 C 
ATOM     15  H   UNL     1       0.416  -7.072   9.155  0.00  0.00    +0.155 HD
ENDBRANCH   5  11
ENDBRANCH   1   3
BRANCH   1  16
ATOM     16  C   UNL     1       0.119  -3.272   4.588  0.00  0.00    +0.155 C 
BRANCH  16  26
ATOM     17  C   UNL     1       0.042   1.470  -0.021  0.00  0.00    +0.064 C 
ATOM     18  C   UNL     1       0.063  -0.036  -0.024  0.00  0.00    +0.033 A 
ATOM     19  C   UNL     1       0.075  -0.690  -1.185  0.00  0.00    +0.070 A 
ATOM     20  S   UNL     1       0.098  -2.393  -0.647  0.00  0.00    -0.059 S 
ATOM     21  C   UNL     1       0.089  -2.082   1.106  0.00  0.00    +0.158 A 
ATOM     22  N   UNL     1       0.075  -0.714   1.172  0.00  0.00    -0.261 N 
ATOM     23  C   UNL     1       0.070  -0.165   2.423  0.00  0.00    +0.259 A 
ATOM     24  O   UNL     1       0.052   1.048   2.558  0.00  0.00    -0.267 OA
ATOM     25  C   UNL     1       0.084  -0.992   3.546  0.00  0.00    +0.093 A 
ATOM     26  C   UNL     1       0.103  -2.361   3.388  0.00  0.00    +0.040 A 
ATOM     27  N   UNL     1       0.098  -2.865   2.156  0.00  0.00    -0.337 N 
ATOM     28  H   UNL     1       0.112  -3.827   2.034  0.00  0.00    +0.168 HD
ENDBRANCH  16  26
ENDBRANCH   1  16
TORSDOF 4
