REMARK  Name = ZINC35967411
REMARK  11 active torsions:
REMARK  status: ('A' for Active; 'I' for Inactive)
REMARK    1  A    between atoms: C_1  and  C_2
REMARK    2  A    between atoms: C_2  and  N_3
REMARK    3  A    between atoms: C_6  and  C_11
REMARK    4  A    between atoms: C_14  and  C_18
REMARK    5  A    between atoms: C_16  and  C_17
REMARK    6  A    between atoms: N_21  and  C_23
REMARK    7  A    between atoms: C_23  and  C_25
REMARK    8  A    between atoms: C_23  and  C_32
REMARK    9  A    between atoms: C_25  and  C_26
REMARK   10  A    between atoms: N_34  and  C_35
REMARK   11  A    between atoms: C_35  and  C_36
REMARK                            x       y       z     vdW  Elec       q    Type
REMARK                         _______ _______ _______ _____ _____    ______ ____
ROOT
ATOM      1  N   UNL     1      -0.776  -0.486   0.098  0.00  0.00    -0.257 N 
ATOM      2  C   UNL     1      -1.371  -0.880   1.262  0.00  0.00    +0.042 C 
ATOM      3  C   UNL     1      -2.678  -1.209   1.304  0.00  0.00    +0.058 C 
ATOM      4  C   UNL     1      -3.466  -1.126   0.012  0.00  0.00    +0.142 C 
ATOM      5  N   UNL     1      -2.734  -0.690  -1.189  0.00  0.00    -0.288 N 
ATOM      6  C   UNL     1      -1.426  -0.390  -1.070  0.00  0.00    +0.307 C 
ATOM      7  O   UNL     1      -0.814  -0.025  -2.055  0.00  0.00    -0.252 OA
ATOM      8  C   UNL     1      -3.049  -1.580   2.612  0.00  0.00    +0.247 C 
ATOM      9  O   UNL     1      -4.170  -1.925   2.938  0.00  0.00    -0.270 OA
ATOM     10  N   UNL     1      -2.002  -1.504   3.454  0.00  0.00    -0.280 N 
ATOM     11  C   UNL     1      -0.844  -1.052   2.669  0.00  0.00    +0.160 C 
ATOM     12  H   UNL     1      -3.184  -0.618  -2.045  0.00  0.00    +0.151 HD
ENDROOT
BRANCH   4  13
ATOM     13  C   UNL     1      -4.046  -2.489  -0.267  0.00  0.00    -0.020 A 
ATOM     14  C   UNL     1      -3.524  -3.604   0.363  0.00  0.00    +0.006 A 
ATOM     15  C   UNL     1      -4.056  -4.854   0.108  0.00  0.00    +0.004 A 
ATOM     16  C   UNL     1      -5.109  -4.989  -0.778  0.00  0.00    -0.050 A 
ATOM     17  C   UNL     1      -5.631  -3.875  -1.407  0.00  0.00    +0.007 A 
ATOM     18  C   UNL     1      -5.102  -2.624  -1.148  0.00  0.00    -0.045 A 
ATOM     19  C   UNL     1      -5.675  -1.408  -1.829  0.00  0.00    +0.044 C 
ATOM     20  C   UNL     1      -5.688  -6.352  -1.057  0.00  0.00    +0.044 C 
ENDBRANCH   4  13
BRANCH   1  22
ATOM     21  C   UNL     1       0.807   1.347   0.438  0.00  0.00    +0.025 C 
ATOM     22  C   UNL     1       0.647  -0.143   0.128  0.00  0.00    +0.111 C 
ENDBRANCH   1  22
BRANCH  10  23
ATOM     23  C   UNL     1      -2.015  -1.813   4.886  0.00  0.00    +0.167 C 
BRANCH  23  24
ATOM     24  C   UNL     1      -3.026  -0.937   5.580  0.00  0.00    +0.234 C 
ATOM     25  O   UNL     1      -3.673  -0.135   4.941  0.00  0.00    -0.274 OA
ATOM     26  N   UNL     1      -3.212  -1.047   6.911  0.00  0.00    -0.307 N 
ATOM     27  H   UNL     1      -2.695  -1.689   7.421  0.00  0.00    +0.149 HD
BRANCH  26  28
ATOM     28  C   UNL     1      -4.196  -0.196   7.585  0.00  0.00    +0.178 C 
BRANCH  28  29
ATOM     29  C   UNL     1      -4.209  -0.514   9.058  0.00  0.00    +0.122 A 
ATOM     30  C   UNL     1      -3.450   0.079   9.998  0.00  0.00    +0.046 A 
ATOM     31  C   UNL     1      -3.783  -0.522  11.233  0.00  0.00    +0.041 A 
ATOM     32  C   UNL     1      -4.726  -1.446  10.975  0.00  0.00    +0.195 A 
ATOM     33  O   UNL     1      -4.984  -1.433   9.657  0.00  0.00    -0.466 OA
ENDBRANCH  28  29
ENDBRANCH  26  28
ENDBRANCH  23  24
BRANCH  23  34
ATOM     34  C   UNL     1      -2.389  -3.283   5.088  0.00  0.00    +0.067 C 
BRANCH  34  35
ATOM     35  C   UNL     1      -1.304  -4.160   4.518  0.00  0.00    -0.045 A 
ATOM     36  C   UNL     1      -1.429  -4.672   3.240  0.00  0.00    +0.004 A 
ATOM     37  C   UNL     1      -0.433  -5.476   2.718  0.00  0.00    +0.000 A 
ATOM     38  C   UNL     1       0.688  -5.768   3.473  0.00  0.00    +0.000 A 
ATOM     39  C   UNL     1       0.813  -5.255   4.750  0.00  0.00    +0.000 A 
ATOM     40  C   UNL     1      -0.180  -4.447   5.271  0.00  0.00    +0.004 A 
ENDBRANCH  34  35
ENDBRANCH  23  34
ENDBRANCH  10  23
TORSDOF 8
