REMARK  Name = ZINC39624828
REMARK  6 active torsions:
REMARK  status: ('A' for Active; 'I' for Inactive)
REMARK    1  A    between atoms: C_12  and  C_13
REMARK    2  A    between atoms: C_17  and  C_26
REMARK    3  A    between atoms: N_28  and  C_29
REMARK    4  A    between atoms: C_29  and  C_30
REMARK    5  A    between atoms: C_30  and  C_31
REMARK    6  A    between atoms: C_31  and  N_32
REMARK                            x       y       z     vdW  Elec       q    Type
REMARK                         _______ _______ _______ _____ _____    ______ ____
ROOT
ATOM      1  C   UNL     1      -0.833  -3.090   0.027  0.00  0.00    +0.247 C 
ATOM      2  O   UNL     1      -1.369  -2.005   0.140  0.00  0.00    -0.270 OA
ATOM      3  N   UNL     1      -1.583  -4.204  -0.084  0.00  0.00    -0.296 N 
ATOM      4  C   UNL     1      -1.119  -5.611  -0.119  0.00  0.00    +0.121 C 
ATOM      5  C   UNL     1      -2.164  -6.386   0.715  0.00  0.00    +0.100 C 
ATOM      6  C   UNL     1      -3.434  -5.521   0.656  0.00  0.00    -0.004 C 
ATOM      7  C   UNL     1      -3.058  -4.299  -0.194  0.00  0.00    +0.115 C 
ATOM      8  C   UNL     1      -4.571  -6.296  -0.003  0.00  0.00    -0.010 C 
ATOM      9  C   UNL     1      -5.838  -5.436   0.002  0.00  0.00    -0.082 C 
ATOM     10  N   UNL     1      -6.192  -5.091   1.384  0.00  0.00    +0.379 N 
ATOM     11  C   UNL     1      -5.133  -4.267   1.981  0.00  0.00    -0.082 C 
ATOM     12  C   UNL     1      -3.836  -5.077   2.059  0.00  0.00    -0.010 C 
ATOM     13  H   UNL     1      -7.060  -4.577   1.390  0.00  0.00    -0.086 HD
ATOM     14  H   UNL     1      -6.302  -5.937   1.923  0.00  0.00    -0.086 HD
ENDROOT
BRANCH   1  26
ATOM     15  C   UNL     1      -0.321  -0.507   3.768  0.00  0.00    +0.001 A 
ATOM     16  C   UNL     1       0.824  -0.112   4.432  0.00  0.00    +0.001 A 
ATOM     17  C   UNL     1       2.070  -0.507   3.973  0.00  0.00    +0.012 A 
ATOM     18  C   UNL     1       2.169  -1.304   2.839  0.00  0.00    +0.030 A 
ATOM     19  C   UNL     1       1.006  -1.708   2.162  0.00  0.00    -0.006 A 
ATOM     20  C   UNL     1      -0.236  -1.303   2.635  0.00  0.00    +0.009 A 
ATOM     21  C   UNL     1       1.398  -2.543   1.000  0.00  0.00    +0.006 A 
ATOM     22  C   UNL     1       2.798  -2.646   0.972  0.00  0.00    +0.031 A 
ATOM     23  C   UNL     1       3.420  -3.383  -0.030  0.00  0.00    +0.012 A 
ATOM     24  C   UNL     1       2.662  -4.017  -1.002  0.00  0.00    +0.001 A 
ATOM     25  C   UNL     1       1.287  -3.924  -0.986  0.00  0.00    +0.014 A 
ATOM     26  C   UNL     1       0.641  -3.187   0.013  0.00  0.00    +0.045 A 
ATOM     27  C   UNL     1       3.333  -1.876   2.120  0.00  0.00    +0.194 C 
ATOM     28  O   UNL     1       4.503  -1.739   2.415  0.00  0.00    -0.287 OA
ENDBRANCH   1  26
BRANCH   5  29
ATOM     29  C   UNL     1      -1.693  -6.535   2.139  0.00  0.00    +0.218 C 
ATOM     30  O   UNL     1      -1.028  -5.660   2.652  0.00  0.00    -0.275 OA
ATOM     31  N   UNL     1      -2.010  -7.640   2.842  0.00  0.00    -0.315 N 
ATOM     32  H   UNL     1      -2.542  -8.340   2.432  0.00  0.00    +0.149 HD
BRANCH  31  33
ATOM     33  C   UNL     1      -1.552  -7.785   4.226  0.00  0.00    +0.105 C 
BRANCH  33  34
ATOM     34  C   UNL     1      -2.046  -9.119   4.790  0.00  0.00    +0.034 C 
BRANCH  34  35
ATOM     35  C   UNL     1      -1.567  -9.269   6.235  0.00  0.00    +0.086 C 
BRANCH  35  36
ATOM     36  N   UNL     1      -2.041 -10.550   6.777  0.00  0.00    -0.298 NA
ATOM     37  C   UNL     1      -3.506 -10.562   6.897  0.00  0.00    +0.112 C 
ATOM     38  C   UNL     1      -3.960 -11.933   7.407  0.00  0.00    +0.175 C 
ATOM     39  O   UNL     1      -3.312 -12.211   8.651  0.00  0.00    -0.377 OA
ATOM     40  C   UNL     1      -1.884 -12.208   8.570  0.00  0.00    +0.175 C 
ATOM     41  C   UNL     1      -1.409 -10.840   8.072  0.00  0.00    +0.112 C 
ENDBRANCH  35  36
ENDBRANCH  34  35
ENDBRANCH  33  34
ENDBRANCH  31  33
ENDBRANCH   5  29
TORSDOF 6
