REMARK  Name = ZINC20609487
REMARK  12 active torsions:
REMARK  status: ('A' for Active; 'I' for Inactive)
REMARK    1  A    between atoms: C_1  and  C_2
REMARK    2  A    between atoms: C_2  and  O_3
REMARK    3  A    between atoms: O_3  and  C_4
REMARK    4  A    between atoms: C_4  and  C_6
REMARK    5  A    between atoms: C_7  and  C_30
REMARK    6  A    between atoms: N_18  and  C_27
REMARK    7  A    between atoms: C_19  and  N_26
REMARK    8  A    between atoms: C_20  and  C_21
REMARK    9  A    between atoms: C_21  and  O_23
REMARK   10  A    between atoms: O_23  and  C_24
REMARK   11  A    between atoms: C_24  and  C_25
REMARK   12  A    between atoms: C_27  and  C_28
REMARK                            x       y       z     vdW  Elec       q    Type
REMARK                         _______ _______ _______ _____ _____    ______ ____
ROOT
ATOM      1  C   UNL     1      -0.324   1.455   0.107  0.00  0.00    +0.105 C 
ATOM      2  C   UNL     1       0.870   2.087  -0.048  0.00  0.00    +0.150 C 
ATOM      3  O   UNL     1       1.890   1.224  -0.178  0.00  0.00    -0.424 OA
ATOM      4  C   UNL     1       1.494  -0.058  -0.124  0.00  0.00    +0.333 C 
ATOM      5  O   UNL     1       2.193  -1.040  -0.212  0.00  0.00    -0.249 OA
ATOM      6  C   UNL     1      -0.007  -0.024   0.069  0.00  0.00    +0.164 C 
ATOM      7  C   UNL     1      -0.693  -0.672  -1.099  0.00  0.00    +0.000 A 
ATOM      8  C   UNL     1      -0.238  -0.424  -2.382  0.00  0.00    +0.007 A 
ATOM      9  C   UNL     1      -0.859  -1.012  -3.467  0.00  0.00    +0.000 A 
ATOM     10  C   UNL     1      -1.942  -1.852  -3.276  0.00  0.00    +0.002 A 
ATOM     11  C   UNL     1      -2.403  -2.103  -2.000  0.00  0.00    +0.024 A 
ATOM     12  C   UNL     1      -1.779  -1.514  -0.907  0.00  0.00    +0.040 A 
ATOM     13  N   UNL     1      -2.250  -1.774   0.383  0.00  0.00    -0.284 N 
ATOM     14  C   UNL     1      -1.467  -1.502   1.473  0.00  0.00    +0.100 C 
ATOM     15  C   UNL     1      -0.379  -0.672   1.366  0.00  0.00    +0.098 C 
ENDROOT
BRANCH   2  16
ATOM     16  C   UNL     1       1.026   3.555  -0.072  0.00  0.00    +0.018 A 
ATOM     17  C   UNL     1       0.231   4.332  -0.918  0.00  0.00    +0.011 A 
ATOM     18  C   UNL     1       0.379   5.703  -0.932  0.00  0.00    +0.001 A 
ATOM     19  C   UNL     1       1.321   6.308  -0.118  0.00  0.00    +0.000 A 
ATOM     20  C   UNL     1       2.116   5.544   0.718  0.00  0.00    +0.001 A 
ATOM     21  C   UNL     1       1.975   4.173   0.746  0.00  0.00    +0.011 A 
ENDBRANCH   2  16
BRANCH  14  22
ATOM     22  N   UNL     1      -1.772  -2.066   2.684  0.00  0.00    -0.346 N 
ATOM     23  H   UNL     1      -1.147  -1.852   3.564  0.00  0.00    +0.143 HD
ATOM     24  H   UNL     1      -2.642  -2.733   2.777  0.00  0.00    +0.143 HD
ENDBRANCH  14  22
BRANCH   1  25
ATOM     25  C   UNL     1      -1.593   2.053   0.264  0.00  0.00    +0.340 C 
ATOM     26  O   UNL     1      -1.687   3.261   0.374  0.00  0.00    -0.245 OA
BRANCH  25  27
ATOM     27  O   UNL     1      -2.702   1.284   0.293  0.00  0.00    -0.462 OA
BRANCH  27  29
ATOM     28  C   UNL     1      -5.086   0.928   0.463  0.00  0.00    +0.048 C 
ATOM     29  C   UNL     1      -3.953   1.956   0.455  0.00  0.00    +0.229 C 
ENDBRANCH  27  29
ENDBRANCH  25  27
ENDBRANCH   1  25
BRANCH  15  30
ATOM     30  C   UNL     1       0.403  -0.425   2.501  0.00  0.00    +0.340 C 
ATOM     31  O   UNL     1       0.266   0.615   3.120  0.00  0.00    -0.245 OA
BRANCH  30  32
ATOM     32  O   UNL     1       1.310  -1.339   2.908  0.00  0.00    -0.462 OA
BRANCH  32  33
ATOM     33  C   UNL     1       2.074  -1.021   4.074  0.00  0.00    +0.229 C 
ATOM     34  C   UNL     1       3.041  -2.167   4.378  0.00  0.00    +0.048 C 
ENDBRANCH  32  33
ENDBRANCH  30  32
ENDBRANCH  15  30
BRANCH  13  35
ATOM     35  C   UNL     1      -3.588  -2.340   0.570  0.00  0.00    +0.139 C 
BRANCH  35  36
ATOM     36  C   UNL     1      -3.502  -3.845   0.569  0.00  0.00    -0.015 C 
ATOM     37  C   UNL     1      -3.982  -4.529   1.577  0.00  0.00    +0.005 C 
ENDBRANCH  35  36
ENDBRANCH  13  35
TORSDOF 10
