REMARK  Name = ZINC45735941
REMARK  5 active torsions:
REMARK  status: ('A' for Active; 'I' for Inactive)
REMARK    1  A    between atoms: C_1  and  C_2
REMARK    2  A    between atoms: N_11  and  C_12
REMARK    3  A    between atoms: C_18  and  C_20
REMARK    4  A    between atoms: C_20  and  C_21
REMARK    5  A    between atoms: C_20  and  C_22
REMARK                            x       y       z     vdW  Elec       q    Type
REMARK                         _______ _______ _______ _____ _____    ______ ____
ROOT
ATOM      1  C   UNL     1       1.635   0.773  -1.106  0.00  0.00    +0.009 C 
ATOM      2  C   UNL     1       1.408  -0.731  -0.939  0.00  0.00    +0.003 C 
ATOM      3  C   UNL     1       2.041  -1.477  -2.116  0.00  0.00    +0.006 C 
ATOM      4  C   UNL     1       1.786  -2.979  -1.967  0.00  0.00    +0.019 C 
ATOM      5  C   UNL     1       2.436  -3.477  -0.672  0.00  0.00    +0.109 C 
ATOM      6  N   UNL     1       1.940  -2.667   0.449  0.00  0.00    -0.285 N 
ATOM      7  C   UNL     1       2.053  -1.204   0.368  0.00  0.00    +0.112 C 
ATOM      8  C   UNL     1       1.391  -3.254   1.530  0.00  0.00    +0.302 C 
ATOM      9  O   UNL     1       1.068  -2.580   2.490  0.00  0.00    -0.253 OA
ATOM     10  N   UNL     1       1.200  -4.588   1.549  0.00  0.00    -0.296 N 
ATOM     11  H   UNL     1       1.524  -5.134   0.816  0.00  0.00    +0.151 HD
ENDROOT
BRANCH  10  12
ATOM     12  C   UNL     1       0.504  -5.212   2.677  0.00  0.00    +0.077 C 
ATOM     13  C   UNL     1       1.503  -5.485   3.804  0.00  0.00    +0.041 C 
ATOM     14  C   UNL     1       0.766  -6.106   4.995  0.00  0.00    +0.109 C 
ATOM     15  N   UNL     1       0.038  -7.296   4.532  0.00  0.00    -0.301 N 
ATOM     16  C   UNL     1      -0.881  -7.163   3.394  0.00  0.00    +0.109 C 
ATOM     17  C   UNL     1      -0.125  -6.530   2.221  0.00  0.00    +0.041 C 
ATOM     18  C   UNL     1       0.211  -8.486   5.140  0.00  0.00    +0.218 C 
ATOM     19  O   UNL     1      -0.347  -9.473   4.711  0.00  0.00    -0.275 OA
BRANCH  18  20
ATOM     20  C   UNL     1       1.098  -8.591   6.354  0.00  0.00    +0.069 C 
ATOM     21  C   UNL     1       0.463  -7.826   7.517  0.00  0.00    +0.017 C 
ATOM     22  C   UNL     1       1.263 -10.062   6.741  0.00  0.00    +0.017 C 
ENDBRANCH  18  20
ENDBRANCH  10  12
TORSDOF 2
