REMARK  Name = ZINC64817243
REMARK  10 active torsions:
REMARK  status: ('A' for Active; 'I' for Inactive)
REMARK    1  A    between atoms: C_1  and  C_2
REMARK    2  A    between atoms: C_2  and  N_3
REMARK    3  A    between atoms: C_6  and  C_8
REMARK    4  A    between atoms: C_10  and  S_23
REMARK    5  A    between atoms: N_11  and  C_14
REMARK    6  A    between atoms: C_14  and  C_15
REMARK    7  A    between atoms: C_18  and  O_21
REMARK    8  A    between atoms: O_21  and  C_22
REMARK    9  A    between atoms: S_23  and  C_24
REMARK   10  A    between atoms: C_24  and  C_25
REMARK                            x       y       z     vdW  Elec       q    Type
REMARK                         _______ _______ _______ _____ _____    ______ ____
ROOT
ATOM      1  N   UNL     1      -1.372  -0.511   0.012  0.00  0.00    -0.257 N 
ATOM      2  C   UNL     1      -2.120  -0.791   1.125  0.00  0.00    +0.152 A 
ATOM      3  C   UNL     1      -3.365  -1.249   0.675  0.00  0.00    +0.119 A 
ATOM      4  C   UNL     1      -3.326  -1.229  -0.732  0.00  0.00    +0.086 A 
ATOM      5  N   UNL     1      -2.157  -0.790  -1.114  0.00  0.00    -0.174 NA
ATOM      6  C   UNL     1      -4.450  -1.641  -1.647  0.00  0.00    +0.070 C 
ATOM      7  N   UNL     1      -4.309  -1.600   1.581  0.00  0.00    -0.220 NA
ATOM      8  C   UNL     1      -4.074  -1.517   2.868  0.00  0.00    +0.173 A 
ATOM      9  N   UNL     1      -2.877  -1.077   3.358  0.00  0.00    -0.282 N 
ATOM     10  C   UNL     1      -1.887  -0.710   2.515  0.00  0.00    +0.281 A 
ATOM     11  O   UNL     1      -0.816  -0.317   2.946  0.00  0.00    -0.265 OA
ENDROOT
BRANCH   1  13
ATOM     12  C   UNL     1      -0.019   1.526   0.010  0.00  0.00    +0.029 C 
ATOM     13  C   UNL     1       0.002  -0.004   0.002  0.00  0.00    +0.141 C 
ENDBRANCH   1  13
BRANCH   9  14
ATOM     14  C   UNL     1      -2.666  -1.004   4.806  0.00  0.00    +0.162 C 
BRANCH  14  15
ATOM     15  C   UNL     1      -2.102  -2.312   5.298  0.00  0.00    -0.027 A 
ATOM     16  C   UNL     1      -2.955  -3.323   5.701  0.00  0.00    +0.009 A 
ATOM     17  C   UNL     1      -2.440  -4.522   6.154  0.00  0.00    +0.046 A 
ATOM     18  C   UNL     1      -1.067  -4.712   6.203  0.00  0.00    +0.120 A 
ATOM     19  C   UNL     1      -0.213  -3.696   5.797  0.00  0.00    +0.046 A 
ATOM     20  C   UNL     1      -0.733  -2.501   5.341  0.00  0.00    +0.009 A 
BRANCH  18  21
ATOM     21  O   UNL     1      -0.558  -5.891   6.648  0.00  0.00    -0.495 OA
ATOM     22  C   UNL     1       0.865  -6.016   6.671  0.00  0.00    +0.277 C 
ENDBRANCH  18  21
ENDBRANCH  14  15
ENDBRANCH   9  14
BRANCH   8  23
ATOM     23  S   UNL     1      -5.340  -1.987   4.001  0.00  0.00    -0.083 S 
BRANCH  23  24
ATOM     24  C   UNL     1      -6.718  -2.491   2.934  0.00  0.00    +0.114 C 
BRANCH  24  25
ATOM     25  C   UNL     1      -7.882  -2.923   3.788  0.00  0.00    -0.019 A 
ATOM     26  C   UNL     1      -7.999  -4.243   4.181  0.00  0.00    +0.006 A 
ATOM     27  C   UNL     1      -9.067  -4.639   4.964  0.00  0.00    +0.000 A 
ATOM     28  C   UNL     1     -10.018  -3.715   5.355  0.00  0.00    +0.001 A 
ATOM     29  C   UNL     1      -9.902  -2.395   4.963  0.00  0.00    +0.020 A 
ATOM     30  C   UNL     1      -8.830  -1.997   4.184  0.00  0.00    +0.045 A 
ATOM     31 CL   UNL     1      -8.680  -0.338   3.696  0.00  0.00    -0.083 Cl
ENDBRANCH  24  25
ENDBRANCH  23  24
ENDBRANCH   8  23
TORSDOF 7
