REMARK  Name = ZINC12888134
REMARK  9 active torsions:
REMARK  status: ('A' for Active; 'I' for Inactive)
REMARK    1  A    between atoms: C_1  and  C_2
REMARK    2  A    between atoms: C_2  and  C_3
REMARK    3  A    between atoms: C_3  and  C_5
REMARK    4  A    between atoms: C_3  and  C_6
REMARK    5  A    between atoms: C_6  and  C_8
REMARK    6  A    between atoms: C_6  and  N_17
REMARK    7  A    between atoms: N_10  and  C_11
REMARK    8  A    between atoms: C_11  and  C_12
REMARK    9  A    between atoms: C_18  and  C_20
REMARK                            x       y       z     vdW  Elec       q    Type
REMARK                         _______ _______ _______ _____ _____    ______ ____
ROOT
ATOM      1  C   UNL     1      -1.012   3.457   0.626  0.00  0.00    +0.167 C 
ATOM      2  C   UNL     1      -0.850   2.826   2.017  0.00  0.00    +0.069 C 
ATOM      3  C   UNL     1       0.475   2.114   2.115  0.00  0.00    -0.015 A 
ATOM      4  C   UNL     1       0.880   1.146   3.119  0.00  0.00    +0.003 A 
ATOM      5  C   UNL     1       0.215   0.595   4.219  0.00  0.00    +0.010 A 
ATOM      6  C   UNL     1       0.916  -0.312   4.975  0.00  0.00    +0.001 A 
ATOM      7  C   UNL     1       2.219  -0.671   4.673  0.00  0.00    +0.002 A 
ATOM      8  C   UNL     1       2.900  -0.141   3.591  0.00  0.00    +0.026 A 
ATOM      9  C   UNL     1       2.213   0.782   2.805  0.00  0.00    +0.047 A 
ATOM     10  N   UNL     1       2.572   1.483   1.690  0.00  0.00    -0.356 N 
ATOM     11  H   UNL     1       3.437   1.432   1.253  0.00  0.00    +0.166 HD
ATOM     12  C   UNL     1       1.529   2.269   1.282  0.00  0.00    +0.046 A 
ATOM     13  C   UNL     1       1.497   3.179   0.078  0.00  0.00    +0.155 C 
ATOM     14  N   UNL     1       0.286   4.018   0.236  0.00  0.00    -0.273 N 
ATOM     15  C   UNL     1       0.653   5.312   0.051  0.00  0.00    +0.248 C 
ATOM     16  O   UNL     1      -0.120   6.243  -0.057  0.00  0.00    -0.270 OA
ATOM     17  C   UNL     1       2.114   5.416  -0.013  0.00  0.00    +0.042 A 
ATOM     18  C   UNL     1       2.656   4.115   0.035  0.00  0.00    -0.009 A 
ATOM     19  C   UNL     1       4.016   3.901   0.034  0.00  0.00    +0.006 A 
ATOM     20  C   UNL     1       4.834   5.026  -0.030  0.00  0.00    +0.000 A 
ATOM     21  C   UNL     1       4.313   6.303  -0.091  0.00  0.00    +0.001 A 
ATOM     22  C   UNL     1       2.946   6.536  -0.085  0.00  0.00    +0.013 A 
ENDROOT
BRANCH   1  24
ATOM     23  N   UNL     1      -3.219   4.402   0.030  0.00  0.00    -0.302 N 
ATOM     24  C   UNL     1      -2.047   4.551   0.678  0.00  0.00    +0.235 C 
ATOM     25  O   UNL     1      -1.824   5.566   1.303  0.00  0.00    -0.274 OA
ATOM     26  H   UNL     1      -3.397   3.590  -0.470  0.00  0.00    +0.150 HD
BRANCH  23  27
ATOM     27  C   UNL     1      -4.224   5.466   0.080  0.00  0.00    +0.162 C 
BRANCH  27  28
ATOM     28  C   UNL     1      -5.592   4.877  -0.153  0.00  0.00    +0.234 C 
ATOM     29  O   UNL     1      -5.701   3.776  -0.651  0.00  0.00    -0.274 OA
ATOM     30  N   UNL     1      -6.693   5.572   0.193  0.00  0.00    -0.307 N 
ATOM     31  H   UNL     1      -6.610   6.481   0.521  0.00  0.00    +0.149 HD
BRANCH  30  32
ATOM     32  C   UNL     1      -8.017   4.956   0.072  0.00  0.00    +0.178 C 
BRANCH  32  33
ATOM     33  C   UNL     1      -9.070   5.937   0.518  0.00  0.00    +0.122 A 
ATOM     34  C   UNL     1      -9.702   6.825  -0.270  0.00  0.00    +0.046 A 
ATOM     35  C   UNL     1     -10.603   7.537   0.556  0.00  0.00    +0.041 A 
ATOM     36  C   UNL     1     -10.467   7.041   1.799  0.00  0.00    +0.195 A 
ATOM     37  O   UNL     1      -9.541   6.068   1.769  0.00  0.00    -0.466 OA
ENDBRANCH  32  33
ENDBRANCH  30  32
ENDBRANCH  27  28
BRANCH  27  38
ATOM     38  C   UNL     1      -3.925   6.503  -1.004  0.00  0.00    +0.015 C 
ATOM     39  C   UNL     1      -4.951   7.635  -0.925  0.00  0.00    +0.010 C 
BRANCH  38  41
ATOM     40  C   UNL     1      -3.581   6.843  -3.455  0.00  0.00    +0.004 C 
ATOM     41  C   UNL     1      -4.002   5.839  -2.380  0.00  0.00    +0.002 C 
ENDBRANCH  38  41
ENDBRANCH  27  38
ENDBRANCH  23  27
ENDBRANCH   1  24
TORSDOF 7
