REMARK  Name = ZINC09192937
REMARK  11 active torsions:
REMARK  status: ('A' for Active; 'I' for Inactive)
REMARK    1  A    between atoms: C_1  and  N_63
REMARK    2  A    between atoms: C_2  and  N_63
REMARK    3  A    between atoms: C_3  and  C_4
REMARK    4  A    between atoms: C_3  and  N_63
REMARK    5  A    between atoms: C_4  and  C_5
REMARK    6  A    between atoms: C_5  and  N_6
REMARK    7  A    between atoms: C_9  and  O_35
REMARK    8  A    between atoms: C_10  and  C_24
REMARK    9  A    between atoms: N_18  and  C_21
REMARK   10  A    between atoms: C_21  and  C_22
REMARK   11  A    between atoms: C_24  and  C_26
REMARK                            x       y       z     vdW  Elec       q    Type
REMARK                         _______ _______ _______ _____ _____    ______ ____
ROOT
ATOM      1  N   UNL     1      -0.004   1.091   2.524  0.00  0.00    -0.273 N 
ATOM      2  C   UNL     1      -0.304  -0.012   3.239  0.00  0.00    +0.283 C 
ATOM      3  O   UNL     1      -1.204  -0.786   2.981  0.00  0.00    -0.267 OA
ATOM      4  C   UNL     1       0.625  -0.141   4.380  0.00  0.00    +0.189 C 
ATOM      5  C   UNL     1       1.495   0.898   4.366  0.00  0.00    +0.086 C 
ATOM      6  C   UNL     1       1.133   1.740   3.173  0.00  0.00    +0.174 C 
ATOM      7  C   UNL     1       0.804   3.152   3.580  0.00  0.00    +0.011 A 
ATOM      8  C   UNL     1      -0.149   3.697   4.411  0.00  0.00    +0.008 A 
ATOM      9  C   UNL     1      -0.206   5.068   4.592  0.00  0.00    +0.000 A 
ATOM     10  C   UNL     1       0.695   5.887   3.936  0.00  0.00    +0.002 A 
ATOM     11  C   UNL     1       1.650   5.344   3.102  0.00  0.00    +0.024 A 
ATOM     12  C   UNL     1       1.714   3.965   2.914  0.00  0.00    +0.043 A 
ATOM     13  N   UNL     1       2.574   3.190   2.134  0.00  0.00    -0.265 N 
ATOM     14  C   UNL     1       2.300   1.875   2.229  0.00  0.00    +0.253 C 
ATOM     15  O   UNL     1       2.880   0.973   1.663  0.00  0.00    -0.272 OA
ENDROOT
BRANCH   5  16
ATOM     16  C   UNL     1       2.575   1.153   5.326  0.00  0.00    +0.231 C 
ATOM     17  O   UNL     1       3.175   2.212   5.300  0.00  0.00    -0.283 OA
BRANCH  16  18
ATOM     18  C   UNL     1       2.933   0.130   6.317  0.00  0.00    +0.176 A 
ATOM     19  C   UNL     1       3.812   0.305   7.341  0.00  0.00    +0.061 A 
ATOM     20  C   UNL     1       3.851  -0.966   8.063  0.00  0.00    +0.021 A 
ATOM     21  C   UNL     1       4.542  -1.427   9.187  0.00  0.00    +0.011 A 
ATOM     22  C   UNL     1       4.354  -2.710   9.617  0.00  0.00    +0.001 A 
ATOM     23  C   UNL     1       3.483  -3.557   8.946  0.00  0.00    +0.004 A 
ATOM     24  C   UNL     1       2.792  -3.122   7.835  0.00  0.00    +0.047 A 
ATOM     25  C   UNL     1       2.966  -1.821   7.378  0.00  0.00    +0.136 A 
ATOM     26  O   UNL     1       2.443  -1.127   6.348  0.00  0.00    -0.452 OA
ENDBRANCH  16  18
ENDBRANCH   5  16
BRANCH   4  27
ATOM     27  O   UNL     1       0.607  -1.137   5.297  0.00  0.00    -0.502 OA
ATOM     28  H   UNL     1       1.339  -0.991   5.963  0.00  0.00    +0.292 HD
ENDBRANCH   4  27
BRANCH   1  29
ATOM     29  C   UNL     1      -0.695   1.558   1.320  0.00  0.00    +0.108 C 
BRANCH  29  30
ATOM     30  C   UNL     1      -0.030   0.951   0.083  0.00  0.00    +0.000 C 
BRANCH  30  31
ATOM     31  C   UNL     1      -0.752   1.438  -1.175  0.00  0.00    -0.078 C 
BRANCH  31  34
ATOM     32  C   UNL     1      -0.296  -0.602  -2.397  0.00  0.00    -0.097 C 
ATOM     33  C   UNL     1      -0.621   1.479  -3.592  0.00  0.00    -0.097 C 
ATOM     34  N   UNL     1      -0.086   0.861  -2.361  0.00  0.00    +0.376 N 
ATOM     35  H   UNL     1       0.922   1.052  -2.303  0.00  0.00    -0.083 HD
ENDBRANCH  31  34
ENDBRANCH  30  31
ENDBRANCH  29  30
ENDBRANCH   1  29
BRANCH  13  36
ATOM     36  C   UNL     1       3.651   3.742   1.308  0.00  0.00    +0.140 C 
BRANCH  36  37
ATOM     37  C   UNL     1       3.156   3.928  -0.103  0.00  0.00    -0.015 C 
ATOM     38  C   UNL     1       3.244   5.101  -0.679  0.00  0.00    +0.005 C 
ENDBRANCH  36  37
ENDBRANCH  13  36
TORSDOF 9
