REMARK  Name = ZINC44713588
REMARK  9 active torsions:
REMARK  status: ('A' for Active; 'I' for Inactive)
REMARK    1  A    between atoms: C_1  and  C_2
REMARK    2  A    between atoms: C_4  and  C_7
REMARK    3  A    between atoms: C_8  and  C_13
REMARK    4  A    between atoms: C_9  and  C_12
REMARK    5  A    between atoms: C_17  and  C_26
REMARK    6  A    between atoms: N_28  and  C_29
REMARK    7  A    between atoms: C_29  and  C_30
REMARK    8  A    between atoms: C_30  and  C_31
REMARK    9  A    between atoms: C_32  and  C_41
REMARK                            x       y       z     vdW  Elec       q    Type
REMARK                         _______ _______ _______ _____ _____    ______ ____
ROOT
ATOM      1  C   UNL     1       0.832  -4.953   0.445  0.00  0.00    +0.252 C 
ATOM      2  O   UNL     1       1.542  -5.139   1.414  0.00  0.00    -0.270 OA
ATOM      3  N   UNL     1       1.314  -5.168  -0.795  0.00  0.00    -0.296 N 
ATOM      4  C   UNL     1       0.585  -5.078  -2.082  0.00  0.00    +0.121 C 
ATOM      5  C   UNL     1       1.592  -4.426  -3.056  0.00  0.00    +0.100 C 
ATOM      6  C   UNL     1       2.974  -4.740  -2.460  0.00  0.00    -0.004 C 
ATOM      7  C   UNL     1       2.697  -5.542  -1.180  0.00  0.00    +0.115 C 
ATOM      8  C   UNL     1       3.796  -5.573  -3.439  0.00  0.00    -0.010 C 
ATOM      9  C   UNL     1       5.186  -5.823  -2.848  0.00  0.00    -0.082 C 
ATOM     10  N   UNL     1       5.849  -4.538  -2.591  0.00  0.00    +0.379 N 
ATOM     11  C   UNL     1       5.101  -3.783  -1.579  0.00  0.00    -0.082 C 
ATOM     12  C   UNL     1       3.708  -3.446  -2.117  0.00  0.00    -0.010 C 
ATOM     13  H   UNL     1       6.787  -4.706  -2.259  0.00  0.00    -0.086 HD
ATOM     14  H   UNL     1       5.888  -4.005  -3.447  0.00  0.00    -0.086 HD
ENDROOT
BRANCH   1  16
ATOM     15  C   UNL     1      -0.979  -3.176   0.733  0.00  0.00    +0.201 A 
ATOM     16  C   UNL     1      -0.556  -4.494   0.625  0.00  0.00    +0.108 A 
ATOM     17  C   UNL     1      -1.707  -5.314   0.721  0.00  0.00    +0.093 A 
ATOM     18  N   UNL     1      -2.742  -4.543   0.874  0.00  0.00    -0.082 NA
ATOM     19  O   UNL     1      -2.312  -3.196   0.890  0.00  0.00    -0.352 OA
ATOM     20  C   UNL     1      -1.728  -6.819   0.655  0.00  0.00    +0.070 C 
BRANCH  15  24
ATOM     21  C   UNL     1       0.539   1.661   0.926  0.00  0.00    +0.089 C 
ATOM     22  C   UNL     1       0.533   0.162   0.777  0.00  0.00    +0.135 A 
ATOM     23  C   UNL     1      -0.540  -0.638   0.902  0.00  0.00    +0.079 A 
ATOM     24  C   UNL     1      -0.119  -1.974   0.688  0.00  0.00    +0.152 A 
ATOM     25  N   UNL     1       1.170  -1.953   0.443  0.00  0.00    -0.075 NA
ATOM     26  O   UNL     1       1.598  -0.604   0.491  0.00  0.00    -0.359 OA
ENDBRANCH  15  24
ENDBRANCH   1  16
BRANCH   5  27
ATOM     27  C   UNL     1       1.371  -2.937  -3.120  0.00  0.00    +0.218 C 
ATOM     28  O   UNL     1       0.907  -2.351  -2.166  0.00  0.00    -0.275 OA
ATOM     29  N   UNL     1       1.690  -2.256  -4.239  0.00  0.00    -0.315 N 
ATOM     30  H   UNL     1       1.995  -2.733  -5.027  0.00  0.00    +0.149 HD
BRANCH  29  31
ATOM     31  C   UNL     1       1.576  -0.796  -4.265  0.00  0.00    +0.109 C 
BRANCH  31  32
ATOM     32  C   UNL     1       1.884  -0.285  -5.674  0.00  0.00    +0.056 C 
BRANCH  32  33
ATOM     33  C   UNL     1       1.880   1.222  -5.675  0.00  0.00    -0.018 A 
ATOM     34  C   UNL     1       0.809   2.017  -5.823  0.00  0.00    +0.017 A 
ATOM     35  N   UNL     1       1.192   3.330  -5.770  0.00  0.00    -0.358 N 
ATOM     36  H   UNL     1       0.593   4.089  -5.853  0.00  0.00    +0.166 HD
ATOM     37  C   UNL     1       2.553   3.413  -5.582  0.00  0.00    +0.047 A 
ATOM     38  C   UNL     1       3.043   2.096  -5.507  0.00  0.00    +0.003 A 
ATOM     39  C   UNL     1       4.407   1.871  -5.311  0.00  0.00    +0.010 A 
ATOM     40  C   UNL     1       5.259   2.932  -5.189  0.00  0.00    +0.001 A 
ATOM     41  C   UNL     1       4.780   4.233  -5.257  0.00  0.00    +0.002 A 
ATOM     42  C   UNL     1       3.439   4.478  -5.459  0.00  0.00    +0.026 A 
ATOM     43  C   UNL     1      -0.606   1.536  -6.019  0.00  0.00    +0.063 C 
ENDBRANCH  32  33
ENDBRANCH  31  32
ENDBRANCH  29  31
ENDBRANCH   5  27
TORSDOF 6
