REMARK  Name = ZINC39665805
REMARK  9 active torsions:
REMARK  status: ('A' for Active; 'I' for Inactive)
REMARK    1  A    between atoms: C_1  and  C_2
REMARK    2  A    between atoms: C_2  and  C_4
REMARK    3  A    between atoms: C_2  and  O_30
REMARK    4  A    between atoms: C_4  and  N_5
REMARK    5  A    between atoms: C_6  and  C_8
REMARK    6  A    between atoms: C_19  and  C_21
REMARK    7  A    between atoms: O_30  and  C_31
REMARK    8  A    between atoms: C_34  and  O_37
REMARK    9  A    between atoms: O_37  and  C_38
REMARK                            x       y       z     vdW  Elec       q    Type
REMARK                         _______ _______ _______ _____ _____    ______ ____
ROOT
ATOM      1  C   UNL     1       3.285  -5.117  -3.280  0.00  0.00    +0.100 C 
ATOM      2  C   UNL     1       4.240  -5.688  -2.208  0.00  0.00    +0.121 C 
ATOM      3  N   UNL     1       5.293  -6.389  -2.980  0.00  0.00    -0.296 N 
ATOM      4  C   UNL     1       5.540  -5.511  -4.148  0.00  0.00    +0.115 C 
ATOM      5  C   UNL     1       4.142  -5.002  -4.552  0.00  0.00    -0.004 C 
ATOM      6  C   UNL     1       3.562  -5.875  -5.661  0.00  0.00    -0.010 C 
ATOM      7  C   UNL     1       4.399  -5.700  -6.931  0.00  0.00    -0.082 C 
ATOM      8  N   UNL     1       4.388  -4.289  -7.336  0.00  0.00    +0.379 N 
ATOM      9  C   UNL     1       5.032  -3.467  -6.304  0.00  0.00    -0.082 C 
ATOM     10  C   UNL     1       4.222  -3.548  -5.006  0.00  0.00    -0.010 C 
ATOM     11  C   UNL     1       5.890  -7.561  -2.686  0.00  0.00    +0.248 C 
ATOM     12  O   UNL     1       6.804  -7.969  -3.378  0.00  0.00    -0.270 OA
ATOM     13  H   UNL     1       4.889  -4.186  -8.206  0.00  0.00    -0.086 HD
ATOM     14  H   UNL     1       3.435  -3.984  -7.461  0.00  0.00    -0.086 HD
ENDROOT
BRANCH  11  15
ATOM     15  C   UNL     1       5.439  -8.346  -1.530  0.00  0.00    +0.052 A 
ATOM     16  C   UNL     1       5.082  -7.739  -0.368  0.00  0.00    +0.059 A 
ATOM     17  S   UNL     1       4.641  -8.982   0.667  0.00  0.00    -0.096 S 
ATOM     18  C   UNL     1       4.906 -10.379  -0.389  0.00  0.00    +0.020 A 
ATOM     19  C   UNL     1       5.353  -9.807  -1.595  0.00  0.00    +0.001 A 
ATOM     20  C   UNL     1       5.649 -10.684  -2.656  0.00  0.00    +0.010 A 
ATOM     21  C   UNL     1       5.495 -12.039  -2.500  0.00  0.00    +0.001 A 
ATOM     22  C   UNL     1       5.048 -12.578  -1.302  0.00  0.00    +0.001 A 
ATOM     23  C   UNL     1       4.760 -11.742  -0.241  0.00  0.00    +0.015 A 
ENDBRANCH  11  15
BRANCH   1  25
ATOM     24  N   UNL     1       1.567  -3.338  -3.272  0.00  0.00    -0.312 N 
ATOM     25  C   UNL     1       2.780  -3.760  -2.864  0.00  0.00    +0.218 C 
ATOM     26  O   UNL     1       3.465  -3.047  -2.161  0.00  0.00    -0.275 OA
ATOM     27  H   UNL     1       1.019  -3.907  -3.835  0.00  0.00    +0.149 HD
BRANCH  24  28
ATOM     28  C   UNL     1       1.076  -2.018  -2.867  0.00  0.00    +0.148 C 
BRANCH  28  30
ATOM     29  C   UNL     1      -0.828  -0.409  -3.039  0.00  0.00    +0.053 C 
ATOM     30  C   UNL     1      -0.315  -1.787  -3.462  0.00  0.00    +0.187 C 
BRANCH  30  31
ATOM     31  O   UNL     1      -0.240  -1.851  -4.887  0.00  0.00    -0.488 OA
BRANCH  31  32
ATOM     32  C   UNL     1      -1.373  -2.207  -5.550  0.00  0.00    +0.121 A 
ATOM     33  C   UNL     1      -1.342  -2.401  -6.923  0.00  0.00    +0.049 A 
ATOM     34  C   UNL     1      -2.493  -2.762  -7.596  0.00  0.00    +0.049 A 
ATOM     35  C   UNL     1      -3.680  -2.932  -6.898  0.00  0.00    +0.120 A 
ATOM     36  C   UNL     1      -3.711  -2.739  -5.525  0.00  0.00    +0.049 A 
ATOM     37  C   UNL     1      -2.559  -2.382  -4.852  0.00  0.00    +0.049 A 
BRANCH  35  38
ATOM     38  O   UNL     1      -4.813  -3.287  -7.561  0.00  0.00    -0.495 OA
ATOM     39  C   UNL     1      -5.999  -3.445  -6.779  0.00  0.00    +0.277 C 
ENDBRANCH  35  38
ENDBRANCH  31  32
ENDBRANCH  30  31
ENDBRANCH  28  30
ENDBRANCH  24  28
ENDBRANCH   1  25
TORSDOF 7
