REMARK  Name = ZINC35174210
REMARK  11 active torsions:
REMARK  status: ('A' for Active; 'I' for Inactive)
REMARK    1  A    between atoms: C_1  and  C_2
REMARK    2  A    between atoms: C_3  and  C_31
REMARK    3  A    between atoms: C_4  and  C_9
REMARK    4  A    between atoms: C_6  and  C_8
REMARK    5  A    between atoms: C_15  and  C_18
REMARK    6  A    between atoms: C_19  and  C_21
REMARK    7  A    between atoms: C_24  and  N_28
REMARK    8  A    between atoms: C_31  and  O_33
REMARK    9  A    between atoms: O_33  and  C_34
REMARK   10  A    between atoms: C_34  and  C_35
REMARK   11  A    between atoms: C_34  and  C_36
REMARK                            x       y       z     vdW  Elec       q    Type
REMARK                         _______ _______ _______ _____ _____    ______ ____
ROOT
ATOM      1  C   UNL     1       0.118  -2.891  -2.387  0.00  0.00    +0.266 C 
ATOM      2  O   UNL     1       0.005  -2.337  -3.463  0.00  0.00    -0.268 OA
ATOM      3  N   UNL     1       0.216  -4.234  -2.327  0.00  0.00    -0.293 N 
ATOM      4  C   UNL     1       0.221  -4.926  -1.031  0.00  0.00    +0.127 C 
ATOM      5  C   UNL     1       1.480  -5.798  -0.946  0.00  0.00    +0.127 C 
ATOM      6  N   UNL     1       1.582  -6.596  -2.175  0.00  0.00    -0.292 N 
ATOM      7  C   UNL     1       1.577  -5.904  -3.472  0.00  0.00    +0.091 C 
ATOM      8  C   UNL     1       0.312  -5.032  -3.557  0.00  0.00    +0.130 C 
ATOM      9  C   UNL     1       2.823  -5.024  -3.590  0.00  0.00    +0.029 C 
ATOM     10  C   UNL     1       1.679  -7.939  -2.115  0.00  0.00    +0.248 C 
ATOM     11  O   UNL     1       1.849  -8.582  -3.133  0.00  0.00    -0.270 OA
ENDROOT
BRANCH   1  15
ATOM     12  C   UNL     1       0.260   1.528   0.029  0.00  0.00    +0.066 C 
ATOM     13  C   UNL     1       0.217   0.022   0.020  0.00  0.00    +0.056 A 
ATOM     14  C   UNL     1       0.189  -0.681  -1.191  0.00  0.00    +0.110 A 
ATOM     15  C   UNL     1       0.150  -2.087  -1.138  0.00  0.00    +0.143 A 
ATOM     16  N   UNL     1       0.140  -2.682   0.050  0.00  0.00    -0.227 NA
ATOM     17  C   UNL     1       0.167  -1.974   1.160  0.00  0.00    +0.127 A 
ATOM     18  N   UNL     1       0.210  -0.655   1.153  0.00  0.00    -0.237 NA
ATOM     19  C   UNL     1       0.155  -2.695   2.483  0.00  0.00    +0.088 C 
BRANCH  14  20
ATOM     20  C   UNL     1       0.201   0.032  -2.486  0.00  0.00    +0.343 C 
ATOM     21  O   UNL     1       1.257   0.295  -3.025  0.00  0.00    -0.245 OA
BRANCH  20  22
ATOM     22  O   UNL     1      -0.959   0.390  -3.068  0.00  0.00    -0.458 OA
BRANCH  22  23
ATOM     23  C   UNL     1      -0.873   1.076  -4.319  0.00  0.00    +0.171 C 
ATOM     24  C   UNL     1      -2.109   0.756  -5.162  0.00  0.00    +0.052 C 
ATOM     25  C   UNL     1      -0.802   2.584  -4.069  0.00  0.00    +0.052 C 
ENDBRANCH  22  23
ENDBRANCH  20  22
ENDBRANCH  14  20
ENDBRANCH   1  15
BRANCH  10  26
ATOM     26  C   UNL     1       1.579  -8.629  -0.813  0.00  0.00    +0.055 A 
ATOM     27  C   UNL     1       2.540  -8.405   0.176  0.00  0.00    +0.017 A 
ATOM     28  C   UNL     1       2.440  -9.052   1.389  0.00  0.00    +0.033 A 
ATOM     29  C   UNL     1       1.392  -9.923   1.630  0.00  0.00    +0.128 A 
ATOM     30  C   UNL     1       0.437 -10.151   0.656  0.00  0.00    +0.053 A 
ATOM     31  C   UNL     1       0.520  -9.505  -0.562  0.00  0.00    +0.055 A 
ATOM     32 CL   UNL     1      -0.683  -9.787  -1.781  0.00  0.00    -0.083 Cl
BRANCH  29  33
ATOM     33  N   UNL     1       1.293 -10.614   2.935  0.00  0.00    +0.056 N 
ATOM     34  O   UNL     1       2.126 -10.417   3.788  0.00  0.00    -0.126 OA
ATOM     35  O   UNL     1       0.378 -11.376   3.148  0.00  0.00    -0.126 OA
ENDBRANCH  29  33
ENDBRANCH  10  26
TORSDOF 6
