REMARK  Name = ZINC35617537
REMARK  11 active torsions:
REMARK  status: ('A' for Active; 'I' for Inactive)
REMARK    1  A    between atoms: C_1  and  C_2
REMARK    2  A    between atoms: C_2  and  C_3
REMARK    3  A    between atoms: C_2  and  C_4
REMARK    4  A    between atoms: C_4  and  N_5
REMARK    5  A    between atoms: N_9  and  C_21
REMARK    6  A    between atoms: C_12  and  C_17
REMARK    7  A    between atoms: C_17  and  C_18
REMARK    8  A    between atoms: C_17  and  C_19
REMARK    9  A    between atoms: C_17  and  C_20
REMARK   10  A    between atoms: C_21  and  C_22
REMARK   11  A    between atoms: C_30  and  C_32
REMARK                            x       y       z     vdW  Elec       q    Type
REMARK                         _______ _______ _______ _____ _____    ______ ____
ROOT
ATOM      1  N   UNL     1       0.011  -0.143   2.461  0.00  0.00    -0.292 N 
ATOM      2  C   UNL     1       0.156   1.103   3.224  0.00  0.00    +0.151 C 
ATOM      3  C   UNL     1      -0.840   1.023   4.353  0.00  0.00    +0.065 A 
ATOM      4  C   UNL     1      -1.486  -0.168   4.230  0.00  0.00    +0.116 A 
ATOM      5  N   UNL     1      -2.458  -0.503   5.139  0.00  0.00    -0.312 N 
ATOM      6  C   UNL     1      -2.775   0.361   6.167  0.00  0.00    +0.142 A 
ATOM      7  C   UNL     1      -3.678   0.281   7.186  0.00  0.00    +0.072 A 
ATOM      8  C   UNL     1      -3.576   1.449   7.942  0.00  0.00    +0.071 A 
ATOM      9  N   UNL     1      -2.653   2.212   7.412  0.00  0.00    -0.166 NA
ATOM     10  N   UNL     1      -2.127   1.558   6.292  0.00  0.00    -0.179 N 
ATOM     11  C   UNL     1      -1.169   1.903   5.408  0.00  0.00    +0.280 A 
ATOM     12  O   UNL     1      -0.591   2.969   5.518  0.00  0.00    -0.265 OA
ATOM     13  C   UNL     1      -0.951  -0.880   3.047  0.00  0.00    +0.264 C 
ATOM     14  O   UNL     1      -1.323  -1.970   2.663  0.00  0.00    -0.268 OA
ENDROOT
BRANCH   8  15
ATOM     15  C   UNL     1      -4.394   1.779   9.165  0.00  0.00    +0.006 C 
ATOM     16  C   UNL     1      -3.887   0.958  10.353  0.00  0.00    +0.017 C 
ATOM     17  C   UNL     1      -4.260   3.270   9.481  0.00  0.00    +0.017 C 
ATOM     18  C   UNL     1      -5.863   1.442   8.902  0.00  0.00    +0.017 C 
ENDBRANCH   8  15
BRANCH   1  19
ATOM     19  C   UNL     1       0.774  -0.516   1.268  0.00  0.00    +0.111 C 
BRANCH  19  21
ATOM     20  C   UNL     1       0.025   1.516   0.024  0.00  0.00    +0.009 C 
ATOM     21  C   UNL     1       0.047  -0.013   0.019  0.00  0.00    +0.000 C 
ATOM     22  C   UNL     1       0.777  -0.509  -1.230  0.00  0.00    +0.009 C 
ENDBRANCH  19  21
ENDBRANCH   1  19
BRANCH   5  23
ATOM     23  C   UNL     1      -3.162  -1.782   5.018  0.00  0.00    +0.219 C 
BRANCH  23  24
ATOM     24  C   UNL     1      -2.422  -2.839   5.798  0.00  0.00    +0.236 C 
ATOM     25  O   UNL     1      -1.407  -2.551   6.396  0.00  0.00    -0.274 OA
ATOM     26  N   UNL     1      -2.889  -4.103   5.831  0.00  0.00    -0.297 N 
ATOM     27  C   UNL     1      -4.114  -4.467   5.106  0.00  0.00    +0.127 C 
ATOM     28  C   UNL     1      -3.798  -5.634   4.163  0.00  0.00    +0.126 C 
ATOM     29  N   UNL     1      -3.090  -6.673   4.924  0.00  0.00    -0.299 N 
ATOM     30  C   UNL     1      -1.864  -6.309   5.648  0.00  0.00    +0.126 C 
ATOM     31  C   UNL     1      -2.178  -5.143   6.587  0.00  0.00    +0.127 C 
ATOM     32  C   UNL     1      -3.556  -7.938   4.956  0.00  0.00    +0.213 C 
ATOM     33  O   UNL     1      -4.621  -8.205   4.440  0.00  0.00    -0.276 OA
ATOM     34  C   UNL     1      -2.755  -9.019   5.634  0.00  0.00    +0.109 C 
ENDBRANCH  23  24
ENDBRANCH   5  23
TORSDOF 5
