REMARK  Name = ZINC30986651
REMARK  8 active torsions:
REMARK  status: ('A' for Active; 'I' for Inactive)
REMARK    1  A    between atoms: C_4  and  N_16
REMARK    2  A    between atoms: C_5  and  C_7
REMARK    3  A    between atoms: N_9  and  C_10
REMARK    4  A    between atoms: C_10  and  C_11
REMARK    5  A    between atoms: C_17  and  C_19
REMARK    6  A    between atoms: N_22  and  C_25
REMARK    7  A    between atoms: C_25  and  C_26
REMARK    8  A    between atoms: C_28  and  C_31
REMARK                            x       y       z     vdW  Elec       q    Type
REMARK                         _______ _______ _______ _____ _____    ______ ____
ROOT
ATOM      1  N   UNL     1       0.081   4.273  -0.173  0.00  0.00    -0.285 N 
ATOM      2  C   UNL     1       0.124   5.606  -0.367  0.00  0.00    +0.220 C 
ATOM      3  O   UNL     1       1.187   6.157  -0.559  0.00  0.00    -0.275 OA
ATOM      4  H   UNL     1      -0.888   3.760  -0.086  0.00  0.00    +0.155 HD
ENDROOT
BRANCH   2   5
ATOM      5  C   UNL     1      -1.150   6.411  -0.345  0.00  0.00    +0.072 C 
ATOM      6  C   UNL     1      -2.089   5.914  -1.447  0.00  0.00    -0.006 C 
ATOM      7  C   UNL     1      -3.354   6.775  -1.459  0.00  0.00    -0.077 C 
ATOM      8  N   UNL     1      -2.991   8.178  -1.697  0.00  0.00    +0.386 N 
ATOM      9  C   UNL     1      -2.127   8.692  -0.626  0.00  0.00    -0.077 C 
ATOM     10  C   UNL     1      -0.826   7.888  -0.589  0.00  0.00    -0.006 C 
ATOM     11  H   UNL     1      -2.422   8.222  -2.637  0.00  0.00    -0.081 HD
BRANCH   8  12
ATOM     12  C   UNL     1      -4.190   9.013  -1.853  0.00  0.00    +0.022 C 
BRANCH  12  13
ATOM     13  C   UNL     1      -4.923   8.610  -3.106  0.00  0.00    +0.211 A 
ATOM     14  N   UNL     1      -5.862   7.701  -3.199  0.00  0.00    -0.193 NA
ATOM     15  C   UNL     1      -6.222   7.683  -4.503  0.00  0.00    +0.202 A 
ATOM     16  N   UNL     1      -5.487   8.574  -5.118  0.00  0.00    -0.056 NA
ATOM     17  O   UNL     1      -4.742   9.116  -4.329  0.00  0.00    -0.340 OA
BRANCH  15  18
ATOM     18  C   UNL     1      -7.256   6.816  -5.120  0.00  0.00    +0.023 A 
ATOM     19  C   UNL     1      -7.960   5.903  -4.337  0.00  0.00    +0.013 A 
ATOM     20  C   UNL     1      -8.924   5.103  -4.914  0.00  0.00    +0.021 A 
ATOM     21  C   UNL     1      -9.184   5.197  -6.271  0.00  0.00    +0.041 A 
ATOM     22  C   UNL     1      -8.484   6.099  -7.053  0.00  0.00    +0.021 A 
ATOM     23  C   UNL     1      -7.521   6.907  -6.484  0.00  0.00    +0.013 A 
ATOM     24 CL   UNL     1     -10.394   4.182  -6.992  0.00  0.00    -0.084 Cl
ENDBRANCH  15  18
ENDBRANCH  12  13
ENDBRANCH   8  12
ENDBRANCH   2   5
BRANCH   1  28
ATOM     25  C   UNL     1       3.627   2.095   0.089  0.00  0.00    +0.001 A 
ATOM     26  C   UNL     1       3.559   3.382   0.596  0.00  0.00    +0.002 A 
ATOM     27  C   UNL     1       2.386   4.104   0.514  0.00  0.00    +0.024 A 
ATOM     28  C   UNL     1       1.265   3.544  -0.084  0.00  0.00    +0.046 A 
ATOM     29  C   UNL     1       1.329   2.239  -0.594  0.00  0.00    +0.058 A 
ATOM     30  C   UNL     1       2.524   1.521  -0.504  0.00  0.00    +0.015 A 
BRANCH  29  31
ATOM     31  C   UNL     1       0.144   1.631  -1.228  0.00  0.00    +0.246 C 
ATOM     32  O   UNL     1      -0.917   2.225  -1.229  0.00  0.00    -0.270 OA
ATOM     33  N   UNL     1       0.238   0.419  -1.811  0.00  0.00    -0.304 N 
ATOM     34  H   UNL     1       1.199  -0.116  -1.814  0.00  0.00    +0.149 HD
BRANCH  33  35
ATOM     35  C   UNL     1      -0.939  -0.185  -2.440  0.00  0.00    +0.179 C 
BRANCH  35  36
ATOM     36  C   UNL     1      -0.568  -1.528  -3.013  0.00  0.00    +0.122 A 
ATOM     37  C   UNL     1      -0.637  -2.706  -2.366  0.00  0.00    +0.046 A 
ATOM     38  C   UNL     1      -0.198  -3.698  -3.272  0.00  0.00    +0.041 A 
ATOM     39  C   UNL     1       0.113  -3.067  -4.419  0.00  0.00    +0.195 A 
ATOM     40  O   UNL     1      -0.119  -1.754  -4.258  0.00  0.00    -0.466 OA
ENDBRANCH  35  36
ENDBRANCH  33  35
ENDBRANCH  29  31
ENDBRANCH   1  28
TORSDOF 8
