REMARK  Name = ZINC36366408
REMARK  4 active torsions:
REMARK  status: ('A' for Active; 'I' for Inactive)
REMARK    1  A    between atoms: C_1  and  C_2
REMARK    2  A    between atoms: C_3  and  C_21
REMARK    3  A    between atoms: C_8  and  C_10
REMARK    4  A    between atoms: C_11  and  C_15
REMARK                            x       y       z     vdW  Elec       q    Type
REMARK                         _______ _______ _______ _____ _____    ______ ____
ROOT
ATOM      1  C   UNL     1       0.075   1.497   0.003  0.00  0.00    +0.066 C 
ATOM      2  C   UNL     1      -0.118   0.002   0.010  0.00  0.00    +0.050 A 
ATOM      3  C   UNL     1      -0.360  -0.685  -1.133  0.00  0.00    +0.011 A 
ATOM      4  S   UNL     1      -0.492  -2.349  -0.499  0.00  0.00    -0.057 S 
ATOM      5  C   UNL     1      -0.230  -2.000   1.126  0.00  0.00    +0.165 A 
ATOM      6  N   UNL     1      -0.054  -0.696   1.128  0.00  0.00    -0.230 NA
ATOM      7  N   UNL     1      -0.200  -2.877   2.203  0.00  0.00    -0.260 N 
ATOM      8  C   UNL     1       0.027  -2.409   3.446  0.00  0.00    +0.260 C 
ATOM      9  O   UNL     1       0.206  -1.219   3.626  0.00  0.00    -0.269 OA
ATOM     10  C   UNL     1      -0.485  -0.183  -2.549  0.00  0.00    +0.053 C 
ATOM     11  H   UNL     1      -0.342  -3.825   2.060  0.00  0.00    +0.157 HD
ENDROOT
BRANCH   8  12
ATOM     12  C   UNL     1       0.059  -3.335   4.585  0.00  0.00    +0.122 A 
ATOM     13  C   UNL     1       0.161  -3.071   5.958  0.00  0.00    +0.114 A 
ATOM     14  N   UNL     1       0.161  -4.152   6.713  0.00  0.00    -0.140 NA
ATOM     15  N   UNL     1       0.073  -5.334   6.218  0.00  0.00    -0.109 NA
ATOM     16  S   UNL     1      -0.030  -5.118   4.615  0.00  0.00    +0.042 S 
BRANCH  13  17
ATOM     17  C   UNL     1       0.262  -1.700   6.511  0.00  0.00    +0.003 A 
ATOM     18  C   UNL     1      -0.574  -0.691   6.035  0.00  0.00    +0.010 A 
ATOM     19  C   UNL     1      -0.476   0.584   6.554  0.00  0.00    +0.001 A 
ATOM     20  C   UNL     1       0.449   0.861   7.545  0.00  0.00    +0.000 A 
ATOM     21  C   UNL     1       1.281  -0.136   8.021  0.00  0.00    +0.001 A 
ATOM     22  C   UNL     1       1.188  -1.416   7.514  0.00  0.00    +0.010 A 
ENDBRANCH  13  17
ENDBRANCH   8  12
TORSDOF 2
