REMARK  Name = ZINC09291072
REMARK  8 active torsions:
REMARK  status: ('A' for Active; 'I' for Inactive)
REMARK    1  A    between atoms: C_1  and  O_2
REMARK    2  A    between atoms: O_2  and  C_3
REMARK    3  A    between atoms: C_5  and  C_13
REMARK    4  A    between atoms: C_7  and  O_11
REMARK    5  A    between atoms: C_8  and  O_9
REMARK    6  A    between atoms: O_9  and  C_10
REMARK    7  A    between atoms: O_11  and  C_12
REMARK    8  A    between atoms: C_30  and  C_32
REMARK                            x       y       z     vdW  Elec       q    Type
REMARK                         _______ _______ _______ _____ _____    ______ ____
ROOT
ATOM      1  C   UNL     1      -4.896  -0.206   0.256  0.00  0.00    +0.234 C 
ATOM      2  C   UNL     1      -5.229   0.468   1.554  0.00  0.00    +0.027 C 
ATOM      3  C   UNL     1      -5.991  -0.155   2.477  0.00  0.00    +0.083 C 
ATOM      4  C   UNL     1      -6.489  -1.514   2.147  0.00  0.00    +0.042 A 
ATOM      5  C   UNL     1      -6.993  -2.359   3.127  0.00  0.00    +0.013 A 
ATOM      6  C   UNL     1      -7.445  -3.618   2.776  0.00  0.00    +0.001 A 
ATOM      7  C   UNL     1      -7.394  -4.033   1.457  0.00  0.00    +0.004 A 
ATOM      8  C   UNL     1      -6.894  -3.197   0.475  0.00  0.00    +0.046 A 
ATOM      9  C   UNL     1      -6.440  -1.934   0.812  0.00  0.00    +0.131 A 
ATOM     10  O   UNL     1      -5.949  -1.093  -0.127  0.00  0.00    -0.479 OA
ATOM     11  N   UNL     1      -6.296   0.434   3.659  0.00  0.00    -0.213 NA
ATOM     12  C   UNL     1      -5.900   1.635   4.012  0.00  0.00    +0.237 C 
ATOM     13  N   UNL     1      -6.112   2.362   5.131  0.00  0.00    -0.205 NA
ATOM     14  C   UNL     1      -5.517   3.520   5.039  0.00  0.00    +0.203 C 
ATOM     15  N   UNL     1      -4.879   3.609   3.840  0.00  0.00    -0.251 N 
ATOM     16  N   UNL     1      -5.117   2.404   3.175  0.00  0.00    -0.208 N 
ATOM     17  C   UNL     1      -4.723   1.858   1.870  0.00  0.00    +0.160 C 
ATOM     18  H   UNL     1      -4.361   4.361   3.512  0.00  0.00    +0.171 HD
ENDROOT
BRANCH   1  21
ATOM     19  C   UNL     1      -2.407  -2.807   1.410  0.00  0.00    +0.166 A 
ATOM     20  C   UNL     1      -3.580  -2.082   1.261  0.00  0.00    +0.057 A 
ATOM     21  C   UNL     1      -3.618  -0.990   0.414  0.00  0.00    +0.004 A 
ATOM     22  C   UNL     1      -2.488  -0.616  -0.287  0.00  0.00    +0.057 A 
ATOM     23  C   UNL     1      -1.311  -1.335  -0.144  0.00  0.00    +0.166 A 
ATOM     24  C   UNL     1      -1.267  -2.430   0.710  0.00  0.00    +0.204 A 
BRANCH  19  26
ATOM     25  C   UNL     1      -3.605  -4.276   2.846  0.00  0.00    +0.277 C 
ATOM     26  O   UNL     1      -2.371  -3.881   2.243  0.00  0.00    -0.491 OA
ENDBRANCH  19  26
BRANCH  24  27
ATOM     27  O   UNL     1      -0.112  -3.135   0.858  0.00  0.00    -0.488 OA
ATOM     28  C   UNL     1       0.098  -4.230  -0.036  0.00  0.00    +0.277 C 
ENDBRANCH  24  27
BRANCH  23  29
ATOM     29  O   UNL     1      -0.199  -0.966  -0.836  0.00  0.00    -0.491 OA
ATOM     30  C   UNL     1      -0.316   0.173  -1.692  0.00  0.00    +0.277 C 
ENDBRANCH  23  29
ENDBRANCH   1  21
BRANCH  17  31
ATOM     31  C   UNL     1      -3.218   1.838   1.804  0.00  0.00    -0.003 A 
ATOM     32  C   UNL     1      -2.553   2.450   0.752  0.00  0.00    +0.009 A 
ATOM     33  C   UNL     1      -1.168   2.406   0.732  0.00  0.00    +0.020 A 
ATOM     34  C   UNL     1      -0.500   1.758   1.754  0.00  0.00    +0.111 A 
ATOM     35  N   UNL     1      -1.165   1.186   2.739  0.00  0.00    -0.263 NA
ATOM     36  C   UNL     1      -2.482   1.214   2.793  0.00  0.00    +0.116 A 
ENDBRANCH  17  31
TORSDOF 5
