REMARK  Name = ZINC00181788
REMARK  4 active torsions:
REMARK  status: ('A' for Active; 'I' for Inactive)
REMARK    1  A    between atoms: C_10  and  C_12
REMARK    2  A    between atoms: C_12  and  N_13
REMARK    3  A    between atoms: C_14  and  C_16
REMARK    4  A    between atoms: C_20  and  N_22
REMARK                            x       y       z     vdW  Elec       q    Type
REMARK                         _______ _______ _______ _____ _____    ______ ____
ROOT
ATOM      1  N   UNL     1       3.634   1.769  -0.023  0.00  0.00    -0.309 N 
ATOM      2  C   UNL     1       2.478   1.075  -0.015  0.00  0.00    +0.244 C 
ATOM      3  O   UNL     1       2.499  -0.141  -0.022  0.00  0.00    -0.270 OA
ATOM      4  H   UNL     1       3.617   2.739  -0.018  0.00  0.00    +0.149 HD
ENDROOT
BRANCH   2   5
ATOM      5  C   UNL     1       1.185   1.792   0.000  0.00  0.00    +0.039 A 
ATOM      6  C   UNL     1       1.158   3.187   0.008  0.00  0.00    +0.013 A 
ATOM      7  C   UNL     1      -0.052   3.850   0.023  0.00  0.00    +0.003 A 
ATOM      8  C   UNL     1      -1.236   3.134   0.030  0.00  0.00    +0.033 A 
ATOM      9  C   UNL     1      -1.216   1.751   0.017  0.00  0.00    +0.127 A 
ATOM     10  C   UNL     1      -0.013   1.076   0.008  0.00  0.00    +0.045 A 
BRANCH   9  11
ATOM     11  N   UNL     1      -2.488   0.994   0.019  0.00  0.00    +0.056 N 
ATOM     12  O   UNL     1      -2.471  -0.224   0.012  0.00  0.00    -0.126 OA
ATOM     13  O   UNL     1      -3.550   1.588   0.027  0.00  0.00    -0.126 OA
ENDBRANCH   9  11
ENDBRANCH   2   5
BRANCH   1  14
ATOM     14  C   UNL     1       4.915   1.058  -0.038  0.00  0.00    +0.141 C 
BRANCH  14  24
ATOM     15  C   UNL     1       9.748  -0.029  -0.556  0.00  0.00    +0.000 A 
ATOM     16  C   UNL     1       8.642  -0.358  -1.317  0.00  0.00    +0.000 A 
ATOM     17  C   UNL     1       7.457   0.328  -1.141  0.00  0.00    +0.006 A 
ATOM     18  C   UNL     1       7.370   1.346  -0.203  0.00  0.00    -0.014 A 
ATOM     19  C   UNL     1       8.473   1.672   0.557  0.00  0.00    -0.040 A 
ATOM     20  C   UNL     1       9.663   0.983   0.379  0.00  0.00    +0.004 A 
ATOM     21  C   UNL     1       8.417   2.768   1.590  0.00  0.00    +0.063 C 
ATOM     22  C   UNL     1       7.193   3.652   1.341  0.00  0.00    +0.165 C 
ATOM     23  O   UNL     1       6.048   2.806   1.181  0.00  0.00    -0.370 OA
ATOM     24  C   UNL     1       6.060   2.073  -0.044  0.00  0.00    +0.165 C 
ENDBRANCH  14  24
ENDBRANCH   1  14
TORSDOF 4
