REMARK  Name = ZINC36019103
REMARK  13 active torsions:
REMARK  status: ('A' for Active; 'I' for Inactive)
REMARK    1  A    between atoms: C_1  and  C_2
REMARK    2  A    between atoms: C_2  and  O_3
REMARK    3  A    between atoms: O_3  and  C_4
REMARK    4  A    between atoms: C_4  and  C_6
REMARK    5  A    between atoms: C_7  and  C_24
REMARK    6  A    between atoms: N_8  and  C_21
REMARK    7  A    between atoms: C_12  and  C_14
REMARK    8  A    between atoms: C_21  and  C_22
REMARK    9  A    between atoms: C_24  and  N_25
REMARK   10  A    between atoms: N_34  and  C_35
REMARK   11  A    between atoms: C_35  and  C_36
REMARK   12  A    between atoms: C_35  and  C_37
REMARK   13  A    between atoms: C_35  and  C_38
REMARK                            x       y       z     vdW  Elec       q    Type
REMARK                         _______ _______ _______ _____ _____    ______ ____
ROOT
ATOM      1  C   UNL     1      -3.567  -3.970  -0.729  0.00  0.00    +0.076 C 
ATOM      2  C   UNL     1      -2.679  -3.561   0.202  0.00  0.00    +0.011 C 
ATOM      3  N   UNL     1      -2.846  -2.378   0.863  0.00  0.00    -0.257 N 
ATOM      4  C   UNL     1      -3.874  -1.547   0.651  0.00  0.00    +0.307 C 
ATOM      5  O   UNL     1      -3.938  -0.514   1.289  0.00  0.00    -0.252 OA
ATOM      6  N   UNL     1      -4.842  -1.818  -0.247  0.00  0.00    -0.288 N 
ATOM      7  C   UNL     1      -4.751  -3.069  -1.019  0.00  0.00    +0.144 C 
ATOM      8  H   UNL     1      -5.579  -1.203  -0.384  0.00  0.00    +0.151 HD
ENDROOT
BRANCH   7   9
ATOM      9  C   UNL     1      -6.009  -3.859  -0.764  0.00  0.00    -0.020 A 
ATOM     10  C   UNL     1      -6.474  -4.020   0.529  0.00  0.00    +0.006 A 
ATOM     11  C   UNL     1      -7.628  -4.744   0.764  0.00  0.00    +0.003 A 
ATOM     12  C   UNL     1      -8.318  -5.309  -0.292  0.00  0.00    +0.038 A 
ATOM     13  C   UNL     1      -7.853  -5.148  -1.587  0.00  0.00    +0.124 A 
ATOM     14  C   UNL     1      -6.701  -4.417  -1.822  0.00  0.00    +0.044 A 
ATOM     15  F   UNL     1      -8.527  -5.699  -2.620  0.00  0.00    -0.205 F 
ENDBRANCH   7   9
BRANCH   1  16
ATOM     16  C   UNL     1      -3.396  -5.195  -1.415  0.00  0.00    +0.339 C 
ATOM     17  O   UNL     1      -2.410  -5.877  -1.205  0.00  0.00    -0.245 OA
BRANCH  16  18
ATOM     18  O   UNL     1      -4.325  -5.607  -2.303  0.00  0.00    -0.462 OA
BRANCH  18  20
ATOM     19  C   UNL     1      -5.239  -7.152  -3.921  0.00  0.00    +0.048 C 
ATOM     20  C   UNL     1      -4.087  -6.854  -2.959  0.00  0.00    +0.229 C 
ENDBRANCH  18  20
ENDBRANCH  16  18
ENDBRANCH   1  16
BRANCH   3  21
ATOM     21  C   UNL     1      -1.843  -1.996   1.861  0.00  0.00    +0.141 C 
BRANCH  21  22
ATOM     22  C   UNL     1      -0.805  -1.113   1.217  0.00  0.00    -0.015 C 
ATOM     23  C   UNL     1      -0.544   0.067   1.722  0.00  0.00    +0.005 C 
ENDBRANCH  21  22
ENDBRANCH   3  21
BRANCH   2  24
ATOM     24  C   UNL     1      -1.484  -4.424   0.516  0.00  0.00    -0.026 C 
BRANCH  24  25
ATOM     25  N   UNL     1      -1.781  -5.263   1.685  0.00  0.00    +0.384 N 
ATOM     26  C   UNL     1      -0.539  -5.894   2.127  0.00  0.00    -0.077 C 
ATOM     27  C   UNL     1      -0.607  -6.138   3.619  0.00  0.00    +0.000 C 
ATOM     28  C   UNL     1      -1.127  -7.562   3.882  0.00  0.00    +0.107 C 
ATOM     29  N   UNL     1      -2.211  -7.914   2.942  0.00  0.00    -0.287 N 
ATOM     30  C   UNL     1      -3.253  -6.978   2.575  0.00  0.00    +0.091 C 
ATOM     31  C   UNL     1      -2.814  -6.162   1.337  0.00  0.00    -0.059 C 
ATOM     32  C   UNL     1      -2.230  -9.151   2.406  0.00  0.00    +0.303 C 
ATOM     33  O   UNL     1      -1.413  -9.979   2.759  0.00  0.00    -0.253 OA
ATOM     34  N   UNL     1      -3.156  -9.469   1.480  0.00  0.00    -0.294 N 
ATOM     35  H   UNL     1      -3.762  -8.790   1.146  0.00  0.00    +0.151 HD
ATOM     36  H   UNL     1      -2.115  -4.667   2.427  0.00  0.00    -0.081 HD
BRANCH  34  37
ATOM     37  C   UNL     1      -3.247 -10.842   0.977  0.00  0.00    +0.028 C 
ATOM     38  C   UNL     1      -3.544 -11.792   2.139  0.00  0.00    +0.031 C 
ATOM     39  C   UNL     1      -4.371 -10.933  -0.057  0.00  0.00    +0.031 C 
ATOM     40  C   UNL     1      -1.920 -11.235   0.324  0.00  0.00    +0.031 C 
ENDBRANCH  34  37
ENDBRANCH  24  25
ENDBRANCH   2  24
TORSDOF 9
