REMARK  Name = ZINC60407772
REMARK  5 active torsions:
REMARK  status: ('A' for Active; 'I' for Inactive)
REMARK    1  A    between atoms: C_6  and  C_7
REMARK    2  A    between atoms: N_9  and  C_10
REMARK    3  A    between atoms: C_10  and  C_11
REMARK    4  A    between atoms: C_11  and  N_12
REMARK    5  A    between atoms: C_13  and  C_15
REMARK                            x       y       z     vdW  Elec       q    Type
REMARK                         _______ _______ _______ _____ _____    ______ ____
ROOT
ATOM      1  N   UNL     1      -3.461  -5.109   0.013  0.00  0.00    -0.314 N 
ATOM      2  C   UNL     1      -3.436  -6.457   0.008  0.00  0.00    +0.216 C 
ATOM      3  O   UNL     1      -2.375  -7.044  -0.002  0.00  0.00    -0.276 OA
ATOM      4  H   UNL     1      -4.310  -4.640   0.021  0.00  0.00    +0.149 HD
ENDROOT
BRANCH   2   5
ATOM      5  C   UNL     1      -4.727  -7.234   0.014  0.00  0.00    +0.078 C 
ATOM      6  C   UNL     1      -5.528  -6.883   1.269  0.00  0.00    +0.032 C 
ATOM      7  C   UNL     1      -6.855  -7.649   1.254  0.00  0.00    +0.110 C 
ATOM      8  N   UNL     1      -6.572  -9.082   1.101  0.00  0.00    -0.286 N 
ATOM      9  C   UNL     1      -5.734  -9.520  -0.023  0.00  0.00    +0.110 C 
ATOM     10  C   UNL     1      -4.419  -8.734   0.006  0.00  0.00    +0.032 C 
ATOM     11  C   UNL     1      -7.072  -9.978   1.975  0.00  0.00    +0.300 C 
ATOM     12  O   UNL     1      -7.683  -9.597   2.954  0.00  0.00    -0.253 OA
ATOM     13  N   UNL     1      -6.893 -11.297   1.764  0.00  0.00    -0.313 N 
ATOM     14  H   UNL     1      -6.344 -11.600   1.023  0.00  0.00    +0.146 HD
ATOM     15  H   UNL     1      -7.313 -11.944   2.352  0.00  0.00    +0.146 HD
ENDBRANCH   2   5
BRANCH   1  16
ATOM     16  C   UNL     1      -2.206  -4.354   0.008  0.00  0.00    +0.123 C 
BRANCH  16  17
ATOM     17  C   UNL     1      -2.513  -2.855   0.016  0.00  0.00    +0.123 C 
BRANCH  17  20
ATOM     18  C   UNL     1      -1.283  -0.752   0.016  0.00  0.00    +0.244 C 
ATOM     19  O   UNL     1      -2.347  -0.163   0.025  0.00  0.00    -0.270 OA
ATOM     20  N   UNL     1      -1.258  -2.099   0.010  0.00  0.00    -0.310 N 
ATOM     21  H   UNL     1      -0.409  -2.568   0.003  0.00  0.00    +0.149 HD
BRANCH  18  27
ATOM     22  C   UNL     1      -0.039   1.407   0.016  0.00  0.00    +0.014 A 
ATOM     23  C   UNL     1       1.145   2.113   0.011  0.00  0.00    +0.016 A 
ATOM     24  C   UNL     1       2.356   1.440   0.001  0.00  0.00    +0.018 A 
ATOM     25  C   UNL     1       2.384   0.055  -0.005  0.00  0.00    +0.016 A 
ATOM     26  C   UNL     1       1.206  -0.662  -0.001  0.00  0.00    +0.014 A 
ATOM     27  C   UNL     1      -0.017   0.011   0.010  0.00  0.00    +0.037 A 
ATOM     28 BR   UNL     1       3.975   2.415  -0.006  0.00  0.00    -0.050 Br
ENDBRANCH  18  27
ENDBRANCH  17  20
ENDBRANCH  16  17
ENDBRANCH   1  16
TORSDOF 5
