REMARK  Name = ZINC02306773
REMARK  6 active torsions:
REMARK  status: ('A' for Active; 'I' for Inactive)
REMARK    1  A    between atoms: C_2  and  C_3
REMARK    2  A    between atoms: C_3  and  O_4
REMARK    3  A    between atoms: O_4  and  C_5
REMARK    4  A    between atoms: C_8  and  C_11
REMARK    5  A    between atoms: C_12  and  C_22
REMARK    6  A    between atoms: N_14  and  C_16
REMARK                            x       y       z     vdW  Elec       q    Type
REMARK                         _______ _______ _______ _____ _____    ______ ____
ROOT
ATOM      1  C   UNL     1       6.923   7.751  -0.384  0.00  0.00    +0.100 A 
ATOM      2  C   UNL     1       5.699   6.984  -0.647  0.00  0.00    +0.022 A 
ATOM      3  C   UNL     1       5.888   6.356  -1.865  0.00  0.00    +0.123 A 
ATOM      4  N   UNL     1       7.110   6.693  -2.316  0.00  0.00    -0.239 N 
ATOM      5  N   UNL     1       7.733   7.543  -1.399  0.00  0.00    -0.166 NA
ENDROOT
BRANCH   2   6
ATOM      6  C   UNL     1       4.511   6.905   0.208  0.00  0.00    +0.032 C 
ATOM      7  C   UNL     1       3.276   6.818  -0.351  0.00  0.00    +0.080 C 
ATOM      8  C   UNL     1       2.867   6.937  -1.768  0.00  0.00    +0.276 C 
ATOM      9  O   UNL     1       3.678   7.144  -2.657  0.00  0.00    -0.267 OA
ATOM     10  N   UNL     1       1.582   6.807  -2.018  0.00  0.00    -0.154 NA
ATOM     11  C   UNL     1       0.693   6.582  -1.065  0.00  0.00    +0.154 C 
ATOM     12  S   UNL     1       1.687   6.535   0.419  0.00  0.00    -0.052 S 
ATOM     13  N   UNL     1      -0.664   6.428  -1.185  0.00  0.00    -0.311 N 
ATOM     14  C   UNL     1      -1.269   6.514  -2.529  0.00  0.00    +0.107 C 
ATOM     15  C   UNL     1      -2.346   5.436  -2.750  0.00  0.00    +0.019 C 
ATOM     16  C   UNL     1      -1.896   4.124  -2.156  0.00  0.00    +0.002 C 
ATOM     17  C   UNL     1      -2.399   4.021  -0.719  0.00  0.00    +0.002 C 
ATOM     18  C   UNL     1      -1.529   4.665   0.275  0.00  0.00    +0.019 C 
ATOM     19  C   UNL     1      -1.443   6.188   0.009  0.00  0.00    +0.107 C 
ENDBRANCH   2   6
BRANCH   1  23
ATOM     20  C   UNL     1       7.704  10.179   3.018  0.00  0.00    +0.121 A 
ATOM     21  C   UNL     1       8.736   9.463   2.426  0.00  0.00    +0.046 A 
ATOM     22  C   UNL     1       8.486   8.675   1.323  0.00  0.00    +0.013 A 
ATOM     23  C   UNL     1       7.195   8.597   0.801  0.00  0.00    +0.003 A 
ATOM     24  C   UNL     1       6.162   9.322   1.395  0.00  0.00    +0.013 A 
ATOM     25  C   UNL     1       6.418  10.104   2.502  0.00  0.00    +0.046 A 
BRANCH  20  26
ATOM     26  O   UNL     1       7.954  10.954   4.106  0.00  0.00    -0.488 OA
BRANCH  26  27
ATOM     27  C   UNL     1       6.846  11.663   4.665  0.00  0.00    +0.256 C 
BRANCH  27  29
ATOM     28  C   UNL     1       6.922  13.706   6.000  0.00  0.00    +0.007 C 
ATOM     29  C   UNL     1       7.311  12.463   5.855  0.00  0.00    +0.006 C 
ENDBRANCH  27  29
ENDBRANCH  26  27
ENDBRANCH  20  26
ENDBRANCH   1  23
BRANCH   4  30
ATOM     30  C   UNL     1       7.673   6.257  -3.522  0.00  0.00    +0.065 A 
ATOM     31  C   UNL     1       6.960   5.405  -4.355  0.00  0.00    +0.028 A 
ATOM     32  C   UNL     1       7.515   4.981  -5.547  0.00  0.00    +0.002 A 
ATOM     33  C   UNL     1       8.785   5.396  -5.905  0.00  0.00    +0.000 A 
ATOM     34  C   UNL     1       9.500   6.239  -5.075  0.00  0.00    +0.002 A 
ATOM     35  C   UNL     1       8.948   6.671  -3.885  0.00  0.00    +0.028 A 
ENDBRANCH   4  30
TORSDOF 6
