REMARK  Name = ZINC08796706
REMARK  11 active torsions:
REMARK  status: ('A' for Active; 'I' for Inactive)
REMARK    1  A    between atoms: C_1  and  C_2
REMARK    2  A    between atoms: N_5  and  S_11
REMARK    3  A    between atoms: C_7  and  C_10
REMARK    4  A    between atoms: S_11  and  C_14
REMARK    5  A    between atoms: C_17  and  C_20
REMARK    6  A    between atoms: C_20  and  N_22
REMARK    7  A    between atoms: N_24  and  C_36
REMARK    8  A    between atoms: C_26  and  O_34
REMARK    9  A    between atoms: C_28  and  O_32
REMARK   10  A    between atoms: O_32  and  C_33
REMARK   11  A    between atoms: O_34  and  C_35
REMARK                            x       y       z     vdW  Elec       q    Type
REMARK                         _______ _______ _______ _____ _____    ______ ____
ROOT
ATOM      1  C   UNL     1      -6.885   1.346  -2.897  0.00  0.00    +0.106 A 
ATOM      2  C   UNL     1      -7.355   1.788  -1.674  0.00  0.00    +0.029 A 
ATOM      3  C   UNL     1      -6.484   1.960  -0.618  0.00  0.00    +0.015 A 
ATOM      4  C   UNL     1      -5.126   1.687  -0.786  0.00  0.00    +0.039 A 
ATOM      5  C   UNL     1      -4.657   1.246  -2.024  0.00  0.00    +0.015 A 
ATOM      6  C   UNL     1      -5.540   1.073  -3.071  0.00  0.00    +0.029 A 
ENDROOT
BRANCH   1   7
ATOM      7  S   UNL     1      -8.004   1.128  -4.241  0.00  0.00    +0.061 S 
ATOM      8  O   UNL     1      -7.406   0.186  -5.120  0.00  0.00    -0.153 OA
ATOM      9  O   UNL     1      -9.290   0.927  -3.670  0.00  0.00    -0.153 OA
BRANCH   7  13
ATOM     10  C   UNL     1      -5.583   4.139  -4.705  0.00  0.00    +0.039 C 
ATOM     11  C   UNL     1      -6.501   4.217  -5.927  0.00  0.00    +0.131 C 
ATOM     12  C   UNL     1      -7.146   2.847  -6.170  0.00  0.00    +0.140 C 
ATOM     13  N   UNL     1      -8.070   2.565  -5.061  0.00  0.00    -0.172 NA
ATOM     14  C   UNL     1      -9.059   3.596  -4.705  0.00  0.00    +0.140 C 
ATOM     15  C   UNL     1      -8.317   4.931  -4.529  0.00  0.00    +0.131 C 
ATOM     16  O   UNL     1      -7.526   5.185  -5.693  0.00  0.00    -0.371 OA
ATOM     17  C   UNL     1      -9.335   6.059  -4.347  0.00  0.00    +0.039 C 
ENDBRANCH   7  13
ENDBRANCH   1   7
BRANCH   4  18
ATOM     18  C   UNL     1      -4.185   1.870   0.343  0.00  0.00    +0.269 C 
ATOM     19  O   UNL     1      -4.596   2.260   1.422  0.00  0.00    -0.268 OA
BRANCH  18  20
ATOM     20  N   UNL     1      -2.885   1.608   0.178  0.00  0.00    -0.152 NA
ATOM     21  C   UNL     1      -2.040   1.772   1.192  0.00  0.00    +0.167 A 
ATOM     22  N   UNL     1      -0.698   1.558   1.213  0.00  0.00    -0.321 N 
ATOM     23  C   UNL     1       0.023   1.793   2.373  0.00  0.00    +0.100 A 
ATOM     24  C   UNL     1       1.406   1.636   2.588  0.00  0.00    +0.148 A 
ATOM     25  C   UNL     1       1.964   1.917   3.817  0.00  0.00    +0.093 A 
ATOM     26  C   UNL     1       1.182   2.361   4.876  0.00  0.00    +0.125 A 
ATOM     27  C   UNL     1      -0.183   2.523   4.687  0.00  0.00    +0.063 A 
ATOM     28  C   UNL     1      -0.739   2.242   3.460  0.00  0.00    +0.046 A 
ATOM     29  S   UNL     1      -2.387   2.308   2.804  0.00  0.00    -0.052 S 
ATOM     30  C   UNL     1      -0.013   1.086   0.008  0.00  0.00    +0.151 C 
BRANCH  26  31
ATOM     31  O   UNL     1       1.748   2.634   6.082  0.00  0.00    -0.495 OA
ATOM     32  C   UNL     1       3.159   2.442   6.195  0.00  0.00    +0.277 C 
ENDBRANCH  26  31
BRANCH  24  33
ATOM     33  O   UNL     1       2.199   1.202   1.573  0.00  0.00    -0.493 OA
ATOM     34  C   UNL     1       3.593   1.063   1.852  0.00  0.00    +0.277 C 
ENDBRANCH  24  33
ENDBRANCH  18  20
ENDBRANCH   4  18
TORSDOF 6
