REMARK  Name = ZINC59925596
REMARK  5 active torsions:
REMARK  status: ('A' for Active; 'I' for Inactive)
REMARK    1  A    between atoms: C_5  and  N_7
REMARK    2  A    between atoms: N_12  and  C_15
REMARK    3  A    between atoms: C_15  and  C_16
REMARK    4  A    between atoms: N_20  and  C_21
REMARK    5  A    between atoms: C_26  and  C_27
REMARK                            x       y       z     vdW  Elec       q    Type
REMARK                         _______ _______ _______ _____ _____    ______ ____
ROOT
ATOM      1  C   UNL     1       6.463   0.663  -1.498  0.00  0.00    +0.174 A 
ATOM      2  N   UNL     1       6.665  -0.443  -2.165  0.00  0.00    -0.111 NA
ATOM      3  N   UNL     1       7.168  -0.191  -3.319  0.00  0.00    -0.023 NA
ATOM      4  N   UNL     1       7.321   1.081  -3.470  0.00  0.00    -0.039 NA
ATOM      5  N   UNL     1       6.861   1.685  -2.286  0.00  0.00    -0.195 N 
ENDROOT
BRANCH   5   6
ATOM      6  C   UNL     1       6.825   3.055  -1.988  0.00  0.00    +0.081 A 
ATOM      7  C   UNL     1       7.425   3.530  -0.829  0.00  0.00    +0.030 A 
ATOM      8  C   UNL     1       7.389   4.880  -0.538  0.00  0.00    +0.022 A 
ATOM      9  C   UNL     1       6.755   5.758  -1.399  0.00  0.00    +0.042 A 
ATOM     10  C   UNL     1       6.157   5.287  -2.555  0.00  0.00    +0.034 A 
ATOM     11  C   UNL     1       6.195   3.939  -2.853  0.00  0.00    +0.082 A 
ATOM     12 CL   UNL     1       6.710   7.454  -1.030  0.00  0.00    -0.084 Cl
BRANCH  11  13
ATOM     13  C   UNL     1       5.548   3.427  -4.114  0.00  0.00    +0.419 C 
ATOM     14  F   UNL     1       4.984   4.497  -4.816  0.00  0.00    -0.166 F 
ATOM     15  F   UNL     1       6.513   2.802  -4.913  0.00  0.00    -0.166 F 
ATOM     16  F   UNL     1       4.548   2.506  -3.785  0.00  0.00    -0.166 F 
ENDBRANCH  11  13
ENDBRANCH   5   6
BRANCH   1  17
ATOM     17  C   UNL     1       5.888   0.778  -0.110  0.00  0.00    +0.195 C 
BRANCH  17  26
ATOM     18  C   UNL     1      -0.155   1.419  -0.419  0.00  0.00    +0.003 A 
ATOM     19  C   UNL     1       1.033   2.131  -0.353  0.00  0.00    +0.014 A 
ATOM     20  C   UNL     1       2.239   1.453  -0.294  0.00  0.00    +0.052 A 
ATOM     21  C   UNL     1       2.251   0.043  -0.302  0.00  0.00    +0.080 A 
ATOM     22  C   UNL     1       1.056  -0.656  -0.367  0.00  0.00    +0.139 A 
ATOM     23  C   UNL     1      -0.143   0.037  -0.426  0.00  0.00    +0.033 A 
ATOM     24  C   UNL     1       3.674  -0.350  -0.230  0.00  0.00    +0.256 C 
ATOM     25  O   UNL     1       4.095  -1.489  -0.215  0.00  0.00    -0.269 OA
ATOM     26  N   UNL     1       4.425   0.766  -0.185  0.00  0.00    -0.227 N 
ATOM     27  C   UNL     1       3.655   1.869  -0.219  0.00  0.00    +0.254 C 
ATOM     28  O   UNL     1       4.057   3.014  -0.192  0.00  0.00    -0.270 OA
BRANCH  22  29
ATOM     29  N   UNL     1       1.061  -2.136  -0.376  0.00  0.00    +0.057 N 
ATOM     30  O   UNL     1       0.017  -2.743  -0.433  0.00  0.00    -0.126 OA
ATOM     31  O   UNL     1       2.108  -2.738  -0.326  0.00  0.00    -0.126 OA
ENDBRANCH  22  29
ENDBRANCH  17  26
ENDBRANCH   1  17
TORSDOF 5
