REMARK  Name = ZINC36806919
REMARK  7 active torsions:
REMARK  status: ('A' for Active; 'I' for Inactive)
REMARK    1  A    between atoms: C_1  and  C_2
REMARK    2  A    between atoms: C_7  and  N_8
REMARK    3  A    between atoms: C_9  and  C_11
REMARK    4  A    between atoms: C_11  and  N_12
REMARK    5  A    between atoms: C_15  and  C_19
REMARK    6  A    between atoms: C_15  and  C_20
REMARK    7  A    between atoms: C_23  and  C_26
REMARK                            x       y       z     vdW  Elec       q    Type
REMARK                         _______ _______ _______ _____ _____    ______ ____
ROOT
ATOM      1  N   UNL     1      -0.240  -0.903   5.989  0.00  0.00    -0.215 N 
ATOM      2  C   UNL     1      -1.390  -1.416   6.471  0.00  0.00    +0.251 C 
ATOM      3  O   UNL     1      -2.515  -1.182   6.085  0.00  0.00    -0.272 OA
ATOM      4  C   UNL     1      -0.983  -2.349   7.595  0.00  0.00    +0.135 C 
ATOM      5  N   UNL     1       0.486  -2.243   7.618  0.00  0.00    -0.281 N 
ATOM      6  C   UNL     1       0.825  -1.381   6.642  0.00  0.00    +0.310 C 
ATOM      7  O   UNL     1       1.971  -1.068   6.385  0.00  0.00    -0.252 OA
ATOM      8  C   UNL     1      -1.577  -1.880   8.925  0.00  0.00    +0.047 C 
ATOM      9  H   UNL     1       1.092  -2.706   8.217  0.00  0.00    +0.152 HD
ENDROOT
BRANCH   4  10
ATOM     10  C   UNL     1      -1.408  -3.762   7.291  0.00  0.00    -0.015 A 
ATOM     11  C   UNL     1      -2.532  -3.992   6.519  0.00  0.00    +0.007 A 
ATOM     12  C   UNL     1      -2.927  -5.284   6.237  0.00  0.00    +0.019 A 
ATOM     13  C   UNL     1      -2.189  -6.360   6.733  0.00  0.00    +0.052 A 
ATOM     14  C   UNL     1      -1.055  -6.120   7.512  0.00  0.00    +0.019 A 
ATOM     15  C   UNL     1      -0.669  -4.824   7.782  0.00  0.00    +0.007 A 
BRANCH  13  16
ATOM     16  C   UNL     1      -2.593  -7.703   6.445  0.00  0.00    +0.099 C 
ATOM     17  N   UNL     1      -2.913  -8.769   6.217  0.00  0.00    -0.191 NA
ENDBRANCH  13  16
ENDBRANCH   4  10
BRANCH   1  18
ATOM     18  C   UNL     1      -0.167   0.054   4.882  0.00  0.00    +0.214 C 
BRANCH  18  20
ATOM     19  N   UNL     1       0.026  -0.014   2.417  0.00  0.00    -0.284 N 
ATOM     20  C   UNL     1      -0.056  -0.694   3.578  0.00  0.00    +0.235 C 
ATOM     21  O   UNL     1      -0.040  -1.906   3.574  0.00  0.00    -0.274 OA
ATOM     22  H   UNL     1       0.079   0.955   2.425  0.00  0.00    +0.155 HD
BRANCH  19  29
ATOM     23  C   UNL     1      -1.265   1.183   0.182  0.00  0.00    +0.046 C 
ATOM     24  C   UNL     1      -0.584  -0.158   0.085  0.00  0.00    -0.028 A 
ATOM     25  C   UNL     1      -0.570  -0.840  -1.116  0.00  0.00    +0.020 A 
ATOM     26  C   UNL     1       0.055  -2.071  -1.206  0.00  0.00    +0.018 A 
ATOM     27  C   UNL     1       0.666  -2.623  -0.094  0.00  0.00    +0.017 A 
ATOM     28  C   UNL     1       0.655  -1.945   1.109  0.00  0.00    +0.024 A 
ATOM     29  C   UNL     1       0.034  -0.706   1.201  0.00  0.00    +0.036 A 
ATOM     30 BR   UNL     1       0.072  -3.002  -2.852  0.00  0.00    -0.050 Br
ENDBRANCH  19  29
ENDBRANCH  18  20
ENDBRANCH   1  18
TORSDOF 5
