REMARK  Name = ZINC38965743
REMARK  6 active torsions:
REMARK  status: ('A' for Active; 'I' for Inactive)
REMARK    1  A    between atoms: C_1  and  C_2
REMARK    2  A    between atoms: C_2  and  C_3
REMARK    3  A    between atoms: C_3  and  N_4
REMARK    4  A    between atoms: C_5  and  C_6
REMARK    5  A    between atoms: C_11  and  O_18
REMARK    6  A    between atoms: O_18  and  C_19
REMARK                            x       y       z     vdW  Elec       q    Type
REMARK                         _______ _______ _______ _____ _____    ______ ____
ROOT
ATOM      1  C   UNL     1       1.894  -4.107   1.115  0.00  0.00    +0.139 C 
ATOM      2  C   UNL     1       2.408  -4.558  -0.238  0.00  0.00    +0.001 C 
ATOM      3  C   UNL     1       3.521  -5.345  -0.253  0.00  0.00    -0.003 A 
ATOM      4  C   UNL     1       4.083  -5.824  -1.516  0.00  0.00    +0.055 A 
ATOM      5  C   UNL     1       5.196  -6.609  -1.483  0.00  0.00    +0.121 A 
ATOM      6  C   UNL     1       5.802  -6.961  -0.271  0.00  0.00    +0.047 A 
ATOM      7  C   UNL     1       5.326  -6.546   0.931  0.00  0.00    +0.027 A 
ATOM      8  C   UNL     1       4.181  -5.731   1.006  0.00  0.00    +0.041 A 
ATOM      9  N   UNL     1       3.725  -5.331   2.194  0.00  0.00    -0.284 N 
ATOM     10  C   UNL     1       2.657  -4.567   2.336  0.00  0.00    +0.229 C 
ATOM     11  O   UNL     1       2.289  -4.234   3.447  0.00  0.00    -0.274 OA
ATOM     12  H   UNL     1       4.200  -5.616   2.990  0.00  0.00    +0.155 HD
ENDROOT
BRANCH   1  14
ATOM     13  N   UNL     1       0.762  -1.976   1.234  0.00  0.00    -0.295 NA
ATOM     14  C   UNL     1       1.873  -2.600   1.123  0.00  0.00    +0.094 C 
BRANCH  13  15
ATOM     15  C   UNL     1       0.742  -0.511   1.242  0.00  0.00    +0.141 C 
BRANCH  15  17
ATOM     16  C   UNL     1      -0.019   1.526   0.010  0.00  0.00    +0.005 C 
ATOM     17  C   UNL     1       0.002  -0.004   0.002  0.00  0.00    +0.020 C 
ENDBRANCH  15  17
ENDBRANCH  13  15
ENDBRANCH   1  14
BRANCH   5  18
ATOM     18  O   UNL     1       5.728  -7.061  -2.650  0.00  0.00    -0.495 OA
ATOM     19  C   UNL     1       6.895  -7.881  -2.556  0.00  0.00    +0.277 C 
ENDBRANCH   5  18
TORSDOF 4
