REMARK  Name = ZINC38705720
REMARK  13 active torsions:
REMARK  status: ('A' for Active; 'I' for Inactive)
REMARK    1  A    between atoms: C_1  and  C_2
REMARK    2  A    between atoms: C_2  and  C_3
REMARK    3  A    between atoms: C_3  and  C_4
REMARK    4  A    between atoms: C_4  and  C_5
REMARK    5  A    between atoms: C_5  and  O_6
REMARK    6  A    between atoms: O_6  and  C_7
REMARK    7  A    between atoms: C_11  and  C_13
REMARK    8  A    between atoms: C_16  and  C_31
REMARK    9  A    between atoms: N_23  and  C_24
REMARK   10  A    between atoms: C_24  and  C_25
REMARK   11  A    between atoms: C_32  and  C_39
REMARK   12  A    between atoms: C_34  and  C_38
REMARK   13  A    between atoms: C_36  and  O_37
REMARK                            x       y       z     vdW  Elec       q    Type
REMARK                         _______ _______ _______ _____ _____    ______ ____
ROOT
ATOM      1  C   UNL     1       3.078  -7.771   4.768  0.00  0.00    +0.142 C 
ATOM      2  C   UNL     1       4.285  -8.428   4.157  0.00  0.00    +0.035 A 
ATOM      3  C   UNL     1       5.065  -8.631   3.013  0.00  0.00    +0.102 A 
ATOM      4  N   UNL     1       6.064  -9.423   3.352  0.00  0.00    -0.173 NA
ATOM      5  N   UNL     1       5.991  -9.740   4.595  0.00  0.00    -0.272 N 
ATOM      6  H   UNL     1       6.620 -10.313   5.062  0.00  0.00    +0.189 HD
ATOM      7  C   UNL     1       4.898  -9.149   5.163  0.00  0.00    +0.126 A 
ATOM      8  C   UNL     1       4.124  -8.977   6.398  0.00  0.00    +0.266 C 
ATOM      9  O   UNL     1       4.401  -9.486   7.467  0.00  0.00    -0.268 OA
ATOM     10  N   UNL     1       3.063  -8.178   6.179  0.00  0.00    -0.281 N 
ENDROOT
BRANCH   3  11
ATOM     11  C   UNL     1       4.815  -8.060   1.666  0.00  0.00    +0.047 A 
ATOM     12  C   UNL     1       5.851  -7.451   0.961  0.00  0.00    -0.037 A 
ATOM     13  C   UNL     1       5.613  -6.922  -0.291  0.00  0.00    +0.007 A 
ATOM     14  C   UNL     1       4.349  -6.993  -0.850  0.00  0.00    -0.047 A 
ATOM     15  C   UNL     1       3.314  -7.595  -0.158  0.00  0.00    +0.049 A 
ATOM     16  C   UNL     1       3.541  -8.136   1.097  0.00  0.00    +0.127 A 
ATOM     17  C   UNL     1       4.099  -6.412  -2.217  0.00  0.00    +0.044 C 
ATOM     18  C   UNL     1       7.229  -7.371   1.565  0.00  0.00    +0.044 C 
BRANCH  16  19
ATOM     19  O   UNL     1       2.526  -8.733   1.775  0.00  0.00    -0.506 OA
ATOM     20  H   UNL     1       1.980  -8.120   2.286  0.00  0.00    +0.292 HD
ENDBRANCH  16  19
ENDBRANCH   3  11
BRANCH   1  25
ATOM     21  C   UNL     1       2.484  -4.197   3.692  0.00  0.00    +0.121 A 
ATOM     22  C   UNL     1       3.411  -3.519   4.471  0.00  0.00    +0.045 A 
ATOM     23  C   UNL     1       4.224  -4.218   5.341  0.00  0.00    +0.004 A 
ATOM     24  C   UNL     1       4.116  -5.594   5.437  0.00  0.00    +0.006 A 
ATOM     25  C   UNL     1       3.193  -6.272   4.662  0.00  0.00    -0.019 A 
ATOM     26  C   UNL     1       2.373  -5.577   3.794  0.00  0.00    +0.051 A 
BRANCH  21  27
ATOM     27  O   UNL     1       1.682  -3.512   2.836  0.00  0.00    -0.492 OA
BRANCH  27  28
ATOM     28  C   UNL     1       1.851  -2.094   2.784  0.00  0.00    +0.229 C 
BRANCH  28  29
ATOM     29  C   UNL     1       0.870  -1.500   1.772  0.00  0.00    +0.041 C 
BRANCH  29  30
ATOM     30  C   UNL     1       1.051   0.018   1.716  0.00  0.00    +0.003 C 
BRANCH  30  32
ATOM     31  C   UNL     1       0.250   2.131   0.648  0.00  0.00    +0.004 C 
ATOM     32  C   UNL     1       0.069   0.612   0.704  0.00  0.00    -0.003 C 
ENDBRANCH  30  32
ENDBRANCH  29  30
ENDBRANCH  28  29
ENDBRANCH  27  28
ENDBRANCH  21  27
ENDBRANCH   1  25
BRANCH  10  33
ATOM     33  C   UNL     1       2.065  -7.781   7.176  0.00  0.00    +0.144 C 
BRANCH  33  34
ATOM     34  C   UNL     1       0.936  -8.780   7.182  0.00  0.00    -0.030 A 
ATOM     35  C   UNL     1      -0.152  -8.597   6.350  0.00  0.00    +0.005 A 
ATOM     36  C   UNL     1      -1.188  -9.512   6.355  0.00  0.00    +0.000 A 
ATOM     37  C   UNL     1      -1.134 -10.611   7.192  0.00  0.00    +0.000 A 
ATOM     38  C   UNL     1      -0.045 -10.795   8.023  0.00  0.00    +0.000 A 
ATOM     39  C   UNL     1       0.992  -9.881   8.015  0.00  0.00    +0.005 A 
ENDBRANCH  33  34
ENDBRANCH  10  33
TORSDOF 10
