REMARK  Name = ZINC40718223
REMARK  3 active torsions:
REMARK  status: ('A' for Active; 'I' for Inactive)
REMARK    1  A    between atoms: C_1  and  C_2
REMARK    2  A    between atoms: N_6  and  C_8
REMARK    3  A    between atoms: C_14  and  C_16
REMARK                            x       y       z     vdW  Elec       q    Type
REMARK                         _______ _______ _______ _____ _____    ______ ____
ROOT
ATOM      1  C   UNL     1       1.196  -2.901   1.500  0.00  0.00    -0.051 C 
ATOM      2  C   UNL     1       1.475  -2.663   2.985  0.00  0.00    -0.014 C 
ATOM      3  C   UNL     1       1.081  -3.907   3.783  0.00  0.00    -0.001 C 
ATOM      4  C   UNL     1       1.899  -5.105   3.296  0.00  0.00    +0.001 C 
ATOM      5  C   UNL     1       1.620  -5.343   1.811  0.00  0.00    +0.017 C 
ATOM      6  C   UNL     1       2.014  -4.099   1.013  0.00  0.00    +0.078 C 
ENDROOT
BRANCH   1  11
ATOM      7  C   UNL     1      -0.019   1.526   0.010  0.00  0.00    +0.005 C 
ATOM      8  C   UNL     1       0.002  -0.004   0.002  0.00  0.00    -0.032 C 
ATOM      9  C   UNL     1       0.805  -0.535  -1.214  0.00  0.00    -0.017 C 
ATOM     10  C   UNL     1       1.276  -1.918  -0.699  0.00  0.00    -0.078 C 
ATOM     11  N   UNL     1       1.575  -1.706   0.733  0.00  0.00    +0.383 N 
ATOM     12  C   UNL     1       0.795  -0.546   1.210  0.00  0.00    -0.075 C 
ATOM     13  H   UNL     1       2.561  -1.526   0.851  0.00  0.00    -0.081 HD
ENDBRANCH   1  11
BRANCH   6  14
ATOM     14  C   UNL     1       3.447  -3.826   1.206  0.00  0.00    +0.064 C 
ATOM     15  N   UNL     1       4.554  -3.615   1.354  0.00  0.00    -0.196 NA
ENDBRANCH   6  14
TORSDOF 2
