REMARK  Name = ZINC38990102
REMARK  8 active torsions:
REMARK  status: ('A' for Active; 'I' for Inactive)
REMARK    1  A    between atoms: C_1  and  C_2
REMARK    2  A    between atoms: C_2  and  O_3
REMARK    3  A    between atoms: O_3  and  C_4
REMARK    4  A    between atoms: C_8  and  C_10
REMARK    5  A    between atoms: N_16  and  N_17
REMARK    6  A    between atoms: C_18  and  C_19
REMARK    7  A    between atoms: C_24  and  O_25
REMARK    8  A    between atoms: O_25  and  C_26
REMARK                            x       y       z     vdW  Elec       q    Type
REMARK                         _______ _______ _______ _____ _____    ______ ____
ROOT
ATOM      1  C   UNL     1       2.220  -4.262  -3.844  0.00  0.00    +0.264 C 
ATOM      2  N   UNL     1       3.323  -3.380  -4.254  0.00  0.00    -0.189 NA
ATOM      3  N   UNL     1       4.378  -4.013  -4.157  0.00  0.00    -0.219 N 
ATOM      4  C   UNL     1       4.203  -5.288  -3.717  0.00  0.00    +0.174 C 
ATOM      5  S   UNL     1       5.461  -6.424  -3.476  0.00  0.00    -0.015 S 
ATOM      6  N   UNL     1       2.888  -5.531  -3.498  0.00  0.00    -0.172 N 
ATOM      7  H   UNL     1       5.246  -3.639  -4.374  0.00  0.00    +0.176 HD
ENDROOT
BRANCH   1  12
ATOM      8  C   UNL     1       0.737  -1.806  -1.385  0.00  0.00    +0.121 A 
ATOM      9  C   UNL     1       0.197  -2.660  -0.435  0.00  0.00    +0.045 A 
ATOM     10  C   UNL     1       0.313  -4.028  -0.593  0.00  0.00    +0.004 A 
ATOM     11  C   UNL     1       0.967  -4.545  -1.696  0.00  0.00    +0.007 A 
ATOM     12  C   UNL     1       1.507  -3.695  -2.643  0.00  0.00    +0.001 A 
ATOM     13  C   UNL     1       1.389  -2.327  -2.493  0.00  0.00    +0.053 A 
BRANCH   8  14
ATOM     14  O   UNL     1       0.624  -0.460  -1.233  0.00  0.00    -0.492 OA
BRANCH  14  16
ATOM     15  C   UNL     1      -0.087   1.536  -0.070  0.00  0.00    +0.048 C 
ATOM     16  C   UNL     1      -0.059   0.006  -0.068  0.00  0.00    +0.225 C 
ENDBRANCH  14  16
ENDBRANCH   8  14
ENDBRANCH   1  12
BRANCH   6  17
ATOM     17  N   UNL     1       2.295  -6.716  -3.045  0.00  0.00    -0.183 NA
ATOM     18  C   UNL     1       3.016  -7.785  -2.890  0.00  0.00    +0.142 C 
BRANCH  18  19
ATOM     19  C   UNL     1       2.375  -9.060  -2.522  0.00  0.00    +0.037 A 
ATOM     20  C   UNL     1       3.148 -10.211  -2.349  0.00  0.00    +0.028 A 
ATOM     21  C   UNL     1       2.541 -11.401  -2.004  0.00  0.00    +0.019 A 
ATOM     22  C   UNL     1       1.168 -11.459  -1.827  0.00  0.00    +0.019 A 
ATOM     23  C   UNL     1       0.394 -10.327  -1.995  0.00  0.00    +0.047 A 
ATOM     24  C   UNL     1       0.987  -9.123  -2.337  0.00  0.00    +0.129 A 
ATOM     25 BR   UNL     1       3.588 -12.959  -1.771  0.00  0.00    -0.050 Br
BRANCH  24  26
ATOM     26  O   UNL     1       0.227  -8.009  -2.497  0.00  0.00    -0.494 OA
ATOM     27  C   UNL     1      -1.180  -8.149  -2.292  0.00  0.00    +0.277 C 
ENDBRANCH  24  26
ENDBRANCH  18  19
ENDBRANCH   6  17
TORSDOF 6
