REMARK  Name = ZINC05345285
REMARK  7 active torsions:
REMARK  status: ('A' for Active; 'I' for Inactive)
REMARK    1  A    between atoms: C_1  and  C_2
REMARK    2  A    between atoms: C_2  and  C_3
REMARK    3  A    between atoms: C_3  and  C_5
REMARK    4  A    between atoms: C_3  and  N_6
REMARK    5  A    between atoms: C_25  and  C_27
REMARK    6  A    between atoms: C_27  and  C_28
REMARK    7  A    between atoms: C_27  and  C_29
REMARK                            x       y       z     vdW  Elec       q    Type
REMARK                         _______ _______ _______ _____ _____    ______ ____
ROOT
ATOM      1  N   UNL     1       3.250   3.349  -2.271  0.00  0.00    -0.239 N 
ATOM      2  C   UNL     1       3.792   4.261  -1.456  0.00  0.00    +0.224 C 
ATOM      3  O   UNL     1       4.977   4.495  -1.355  0.00  0.00    -0.275 OA
ATOM      4  C   UNL     1       2.695   4.955  -0.679  0.00  0.00    +0.073 C 
ATOM      5  C   UNL     1       1.400   4.273  -1.201  0.00  0.00    +0.088 C 
ATOM      6  C   UNL     1       1.916   3.271  -2.209  0.00  0.00    +0.225 C 
ATOM      7  O   UNL     1       1.228   2.514  -2.860  0.00  0.00    -0.275 OA
ATOM      8  C   UNL     1       0.831   3.538   0.018  0.00  0.00    +0.050 C 
ATOM      9  C   UNL     1       1.192   2.079   0.002  0.00  0.00    -0.028 A 
ATOM     10  C   UNL     1       2.388   1.398  -0.017  0.00  0.00    +0.004 A 
ATOM     11  C   UNL     1       2.398   0.015  -0.025  0.00  0.00    +0.000 A 
ATOM     12  C   UNL     1       1.203  -0.682  -0.014  0.00  0.00    +0.002 A 
ATOM     13  C   UNL     1       0.002  -0.004   0.002  0.00  0.00    +0.023 A 
ATOM     14  C   UNL     1      -0.017   1.389   0.010  0.00  0.00    +0.036 A 
ATOM     15  N   UNL     1      -1.086   2.287   0.019  0.00  0.00    -0.286 N 
ATOM     16  C   UNL     1      -0.673   3.569   0.028  0.00  0.00    +0.211 C 
ATOM     17  O   UNL     1      -1.376   4.557   0.039  0.00  0.00    -0.277 OA
ATOM     18  C   UNL     1       2.788   4.542   0.805  0.00  0.00    -0.055 C 
ATOM     19  H   UNL     1      -2.018   2.019   0.021  0.00  0.00    +0.155 HD
ATOM     20  N   UNL     1       1.408   4.212   1.168  0.00  0.00    +0.394 N 
ATOM     21  H   UNL     1       1.394   3.592   1.986  0.00  0.00    -0.083 HD
ATOM     22  H   UNL     1       0.882   5.068   1.378  0.00  0.00    -0.083 HD
ENDROOT
BRANCH  18  23
ATOM     23  C   UNL     1       3.325   5.701   1.648  0.00  0.00    -0.031 C 
ATOM     24  C   UNL     1       3.335   5.297   3.123  0.00  0.00    +0.005 C 
ATOM     25  C   UNL     1       4.748   6.040   1.201  0.00  0.00    +0.005 C 
ENDBRANCH  18  23
BRANCH   1  26
ATOM     26  C   UNL     1       4.053   2.506  -3.160  0.00  0.00    +0.081 C 
ATOM     27  C   UNL     1       5.026   1.668  -2.328  0.00  0.00    +0.028 C 
BRANCH  26  29
ATOM     28  C   UNL     1       3.868   4.134  -5.046  0.00  0.00    +0.006 C 
ATOM     29  C   UNL     1       4.840   3.390  -4.129  0.00  0.00    +0.019 C 
ENDBRANCH  26  29
ENDBRANCH   1  26
TORSDOF 3
