REMARK  Name = ZINC03628453
REMARK  7 active torsions:
REMARK  status: ('A' for Active; 'I' for Inactive)
REMARK    1  A    between atoms: C_4  and  C_7
REMARK    2  A    between atoms: C_7  and  N_8
REMARK    3  A    between atoms: C_9  and  C_21
REMARK    4  A    between atoms: C_24  and  O_27
REMARK    5  A    between atoms: O_27  and  C_28
REMARK    6  A    between atoms: C_28  and  C_29
REMARK    7  A    between atoms: N_31  and  C_32
REMARK                            x       y       z     vdW  Elec       q    Type
REMARK                         _______ _______ _______ _____ _____    ______ ____
ROOT
ATOM      1  N   UNL     1       4.152  -0.952   1.338  0.00  0.00    -0.148 NA
ATOM      2  C   UNL     1       4.902   0.057   2.113  0.00  0.00    +0.194 C 
ATOM      3  N   UNL     1       6.180  -0.521   2.521  0.00  0.00    -0.322 N 
ATOM      4  C   UNL     1       6.295  -1.761   3.142  0.00  0.00    +0.055 A 
ATOM      5  C   UNL     1       7.438  -2.033   3.893  0.00  0.00    +0.025 A 
ATOM      6  C   UNL     1       7.590  -3.258   4.507  0.00  0.00    +0.002 A 
ATOM      7  C   UNL     1       6.611  -4.227   4.382  0.00  0.00    +0.002 A 
ATOM      8  C   UNL     1       5.471  -3.963   3.643  0.00  0.00    +0.030 A 
ATOM      9  C   UNL     1       5.312  -2.736   3.035  0.00  0.00    +0.126 A 
ATOM     10  S   UNL     1       3.832  -2.386   2.128  0.00  0.00    +0.065 S 
ATOM     11  O   UNL     1       2.811  -2.117   3.080  0.00  0.00    -0.153 OA
ATOM     12  O   UNL     1       3.709  -3.391   1.131  0.00  0.00    -0.153 OA
ATOM     13  H   UNL     1       6.989  -0.014   2.350  0.00  0.00    +0.148 HD
ENDROOT
BRANCH   2  14
ATOM     14  C   UNL     1       4.108   0.450   3.332  0.00  0.00    -0.011 A 
ATOM     15  C   UNL     1       2.727   0.405   3.301  0.00  0.00    +0.010 A 
ATOM     16  C   UNL     1       1.997   0.765   4.418  0.00  0.00    +0.046 A 
ATOM     17  C   UNL     1       2.652   1.171   5.571  0.00  0.00    +0.121 A 
ATOM     18  C   UNL     1       4.038   1.215   5.600  0.00  0.00    +0.046 A 
ATOM     19  C   UNL     1       4.763   0.849   4.482  0.00  0.00    +0.010 A 
BRANCH  17  20
ATOM     20  O   UNL     1       1.937   1.526   6.671  0.00  0.00    -0.483 OA
BRANCH  20  21
ATOM     21  C   UNL     1       2.677   1.935   7.822  0.00  0.00    +0.324 C 
BRANCH  21  22
ATOM     22  C   UNL     1       1.723   2.288   8.934  0.00  0.00    +0.251 C 
ATOM     23  O   UNL     1       0.526   2.199   8.757  0.00  0.00    -0.272 OA
ATOM     24  N   UNL     1       2.199   2.703  10.125  0.00  0.00    -0.310 N 
ATOM     25  H   UNL     1       3.156   2.774  10.266  0.00  0.00    +0.149 HD
BRANCH  24  26
ATOM     26  C   UNL     1       1.272   3.046  11.205  0.00  0.00    +0.073 C 
ATOM     27  C   UNL     1       0.818   4.499  11.046  0.00  0.00    +0.022 C 
ATOM     28  C   UNL     1      -0.151   4.857  12.174  0.00  0.00    +0.002 C 
ATOM     29  C   UNL     1       0.552   4.688  13.523  0.00  0.00    +0.000 C 
ATOM     30  C   UNL     1       1.005   3.235  13.682  0.00  0.00    +0.002 C 
ATOM     31  C   UNL     1       1.974   2.876  12.554  0.00  0.00    +0.022 C 
ENDBRANCH  24  26
ENDBRANCH  21  22
ENDBRANCH  20  21
ENDBRANCH  17  20
ENDBRANCH   2  14
BRANCH   1  32
ATOM     32  C   UNL     1       3.711  -0.707  -0.038  0.00  0.00    +0.147 C 
BRANCH  32  36
ATOM     33  C   UNL     1      -0.017   1.378   0.010  0.00  0.00    +0.000 A 
ATOM     34  C   UNL     1       1.171   2.086   0.002  0.00  0.00    +0.000 A 
ATOM     35  C   UNL     1       2.377   1.411  -0.013  0.00  0.00    +0.005 A 
ATOM     36  C   UNL     1       2.396   0.029  -0.020  0.00  0.00    -0.032 A 
ATOM     37  C   UNL     1       1.208  -0.679  -0.012  0.00  0.00    +0.005 A 
ATOM     38  C   UNL     1       0.002  -0.004   0.002  0.00  0.00    +0.000 A 
ENDBRANCH  32  36
ENDBRANCH   1  32
TORSDOF 7
