REMARK  Name = ZINC03640069
REMARK  12 active torsions:
REMARK  status: ('A' for Active; 'I' for Inactive)
REMARK    1  A    between atoms: C_1  and  C_2
REMARK    2  A    between atoms: C_3  and  C_31
REMARK    3  A    between atoms: C_4  and  C_22
REMARK    4  A    between atoms: C_10  and  C_15
REMARK    5  A    between atoms: C_25  and  O_30
REMARK    6  A    between atoms: C_26  and  O_28
REMARK    7  A    between atoms: O_28  and  C_29
REMARK    8  A    between atoms: C_31  and  O_33
REMARK    9  A    between atoms: O_33  and  C_34
REMARK   10  A    between atoms: C_34  and  C_35
REMARK   11  A    between atoms: C_35  and  O_36
REMARK   12  A    between atoms: O_36  and  C_37
REMARK                            x       y       z     vdW  Elec       q    Type
REMARK                         _______ _______ _______ _____ _____    ______ ____
ROOT
ATOM      1  C   UNL     1      -0.329   0.536   4.749  0.00  0.00    +0.061 C 
ATOM      2  C   UNL     1      -0.863   1.293   3.561  0.00  0.00    +0.016 C 
ATOM      3  C   UNL     1      -1.558   2.428   3.749  0.00  0.00    +0.065 C 
ATOM      4  C   UNL     1      -2.112   3.204   2.590  0.00  0.00    +0.092 C 
ATOM      5  C   UNL     1      -1.438   2.805   1.301  0.00  0.00    +0.024 C 
ATOM      6  C   UNL     1      -0.746   1.650   1.213  0.00  0.00    +0.016 C 
ATOM      7  N   UNL     1      -0.638   0.821   2.298  0.00  0.00    -0.321 N 
ATOM      8  C   UNL     1      -0.068   1.245  -0.072  0.00  0.00    +0.059 C 
ATOM      9  C   UNL     1      -0.851   1.801  -1.263  0.00  0.00    +0.033 C 
ATOM     10  C   UNL     1      -0.926   3.326  -1.127  0.00  0.00    +0.088 C 
ATOM     11  C   UNL     1      -1.553   3.668   0.197  0.00  0.00    +0.162 C 
ATOM     12  O   UNL     1      -2.171   4.708   0.313  0.00  0.00    -0.292 OA
ATOM     13  H   UNL     1      -0.368  -0.235   2.146  0.00  0.00    +0.152 HD
ENDROOT
BRANCH   9  14
ATOM     14  C   UNL     1      -0.146   1.441  -2.546  0.00  0.00    -0.025 A 
ATOM     15  C   UNL     1       1.147   1.874  -2.769  0.00  0.00    +0.005 A 
ATOM     16  C   UNL     1       1.794   1.544  -3.945  0.00  0.00    +0.000 A 
ATOM     17  C   UNL     1       1.147   0.780  -4.899  0.00  0.00    +0.001 A 
ATOM     18  C   UNL     1      -0.146   0.346  -4.677  0.00  0.00    +0.020 A 
ATOM     19  C   UNL     1      -0.792   0.672  -3.497  0.00  0.00    +0.044 A 
ATOM     20 CL   UNL     1      -2.414   0.121  -3.215  0.00  0.00    -0.083 Cl
ENDBRANCH   9  14
BRANCH   4  21
ATOM     21  C   UNL     1      -3.591   2.936   2.478  0.00  0.00    -0.032 A 
ATOM     22  C   UNL     1      -4.043   1.653   2.236  0.00  0.00    +0.008 A 
ATOM     23  C   UNL     1      -5.399   1.401   2.139  0.00  0.00    +0.049 A 
ATOM     24  C   UNL     1      -6.308   2.439   2.272  0.00  0.00    +0.158 A 
ATOM     25  C   UNL     1      -5.852   3.732   2.511  0.00  0.00    +0.162 A 
ATOM     26  C   UNL     1      -4.492   3.976   2.613  0.00  0.00    +0.054 A 
BRANCH  25  27
ATOM     27  O   UNL     1      -6.740   4.754   2.643  0.00  0.00    -0.491 OA
ATOM     28  C   UNL     1      -6.200   6.054   2.887  0.00  0.00    +0.277 C 
ENDBRANCH  25  27
BRANCH  24  29
ATOM     29  O   UNL     1      -7.641   2.194   2.171  0.00  0.00    -0.503 OA
ATOM     30  H   UNL     1      -8.361   3.019   2.277  0.00  0.00    +0.292 HD
ENDBRANCH  24  29
ENDBRANCH   4  21
BRANCH   3  31
ATOM     31  C   UNL     1      -1.771   2.901   5.065  0.00  0.00    +0.338 C 
ATOM     32  O   UNL     1      -1.423   2.228   6.017  0.00  0.00    -0.245 OA
BRANCH  31  33
ATOM     33  O   UNL     1      -2.360   4.099   5.265  0.00  0.00    -0.459 OA
BRANCH  33  34
ATOM     34  C   UNL     1      -2.544   4.514   6.620  0.00  0.00    +0.260 C 
BRANCH  34  35
ATOM     35  C   UNL     1      -3.221   5.885   6.646  0.00  0.00    +0.200 C 
BRANCH  35  36
ATOM     36  O   UNL     1      -4.538   5.776   6.103  0.00  0.00    -0.380 OA
ATOM     37  C   UNL     1      -5.262   7.008   6.081  0.00  0.00    +0.194 C 
ENDBRANCH  35  36
ENDBRANCH  34  35
ENDBRANCH  33  34
ENDBRANCH  31  33
ENDBRANCH   3  31
TORSDOF 9
