REMARK  Name = ZINC10134164
REMARK  9 active torsions:
REMARK  status: ('A' for Active; 'I' for Inactive)
REMARK    1  A    between atoms: C_1  and  C_2
REMARK    2  A    between atoms: C_2  and  C_3
REMARK    3  A    between atoms: N_11  and  C_15
REMARK    4  A    between atoms: C_15  and  C_16
REMARK    5  A    between atoms: C_16  and  O_18
REMARK    6  A    between atoms: O_18  and  C_19
REMARK    7  A    between atoms: C_19  and  C_20
REMARK    8  A    between atoms: C_28  and  C_32
REMARK    9  A    between atoms: C_29  and  C_31
REMARK                            x       y       z     vdW  Elec       q    Type
REMARK                         _______ _______ _______ _____ _____    ______ ____
ROOT
ATOM      1  C   UNL     1      -1.624  -1.124  -1.409  0.00  0.00    +0.326 C 
ATOM      2  O   UNL     1      -0.990  -0.669  -2.331  0.00  0.00    -0.249 OA
ENDROOT
BRANCH   1   3
ATOM      3  C   UNL     1      -1.198  -0.844   0.009  0.00  0.00    +0.238 C 
BRANCH   3  12
ATOM      4  C   UNL     1       1.282   4.683   0.015  0.00  0.00    -0.011 C 
ATOM      5  C   UNL     1       0.926   3.877  -1.236  0.00  0.00    +0.006 C 
ATOM      6  C   UNL     1       1.741   2.581  -1.255  0.00  0.00    +0.035 C 
ATOM      7  C   UNL     1       1.435   1.768  -0.002  0.00  0.00    +0.113 C 
ATOM      8  C   UNL     1       1.765   2.568   1.254  0.00  0.00    +0.035 C 
ATOM      9  C   UNL     1       0.951   3.864   1.264  0.00  0.00    +0.006 C 
ATOM     10  C   UNL     1      -0.016   1.345   0.009  0.00  0.00    +0.247 C 
ATOM     11  O   UNL     1      -0.991   2.066   0.018  0.00  0.00    -0.273 OA
ATOM     12  N   UNL     1       0.002  -0.004   0.002  0.00  0.00    -0.213 N 
ATOM     13  C   UNL     1       1.253  -0.480  -0.013  0.00  0.00    +0.310 C 
ATOM     14  O   UNL     1       1.526  -1.665  -0.021  0.00  0.00    -0.252 OA
ATOM     15  N   UNL     1       2.176   0.501  -0.016  0.00  0.00    -0.285 N 
ATOM     16  H   UNL     1       3.140   0.392  -0.026  0.00  0.00    +0.151 HD
BRANCH   4  18
ATOM     17  C   UNL     1       0.922   6.846   1.212  0.00  0.00    +0.004 C 
ATOM     18  C   UNL     1       0.477   5.984   0.030  0.00  0.00    -0.000 C 
ENDBRANCH   4  18
ENDBRANCH   3  12
ENDBRANCH   1   3
BRANCH   1  19
ATOM     19  O   UNL     1      -2.708  -1.879  -1.647  0.00  0.00    -0.459 OA
BRANCH  19  20
ATOM     20  C   UNL     1      -3.059  -2.108  -3.038  0.00  0.00    +0.268 C 
BRANCH  20  21
ATOM     21  C   UNL     1      -4.293  -2.970  -3.109  0.00  0.00    +0.007 A 
ATOM     22  C   UNL     1      -4.899  -3.415  -1.979  0.00  0.00    +0.099 A 
ATOM     23  C   UNL     1      -6.057  -4.217  -2.073  0.00  0.00    +0.338 A 
ATOM     24  O   UNL     1      -6.594  -4.605  -1.051  0.00  0.00    -0.245 OA
ATOM     25  O   UNL     1      -6.578  -4.566  -3.259  0.00  0.00    -0.422 OA
ATOM     26  C   UNL     1      -6.020  -4.162  -4.420  0.00  0.00    +0.140 A 
ATOM     27  C   UNL     1      -4.868  -3.357  -4.401  0.00  0.00    +0.024 A 
ATOM     28  C   UNL     1      -4.289  -2.938  -5.603  0.00  0.00    +0.015 A 
ATOM     29  C   UNL     1      -4.848  -3.314  -6.792  0.00  0.00    -0.047 A 
ATOM     30  C   UNL     1      -5.985  -4.109  -6.815  0.00  0.00    -0.044 A 
ATOM     31  C   UNL     1      -6.571  -4.533  -5.640  0.00  0.00    +0.050 A 
ATOM     32  C   UNL     1      -6.586  -4.513  -8.136  0.00  0.00    +0.044 C 
ATOM     33  C   UNL     1      -4.225  -2.863  -8.087  0.00  0.00    +0.044 C 
ENDBRANCH  20  21
ENDBRANCH  19  20
ENDBRANCH   1  19
TORSDOF 6
