REMARK  Name = ZINC05395988
REMARK  8 active torsions:
REMARK  status: ('A' for Active; 'I' for Inactive)
REMARK    1  A    between atoms: C_1  and  C_2
REMARK    2  A    between atoms: C_2  and  C_4
REMARK    3  A    between atoms: C_2  and  O_29
REMARK    4  A    between atoms: C_4  and  O_28
REMARK    5  A    between atoms: C_9  and  O_26
REMARK    6  A    between atoms: C_12  and  O_13
REMARK    7  A    between atoms: C_21  and  O_22
REMARK    8  A    between atoms: O_22  and  C_23
REMARK                            x       y       z     vdW  Elec       q    Type
REMARK                         _______ _______ _______ _____ _____    ______ ____
ROOT
ATOM      1  C   UNL     1      -0.765   1.599  -1.225  0.00  0.00    +0.096 C 
ATOM      2  C   UNL     1      -0.013   1.086   0.008  0.00  0.00    +0.042 C 
ATOM      3  C   UNL     1      -0.739   1.584   1.256  0.00  0.00    +0.042 C 
ATOM      4  C   UNL     1      -0.968   3.072   1.179  0.00  0.00    +0.002 A 
ATOM      5  C   UNL     1      -0.895   3.770  -0.001  0.00  0.00    +0.004 A 
ATOM      6  C   UNL     1      -1.129   5.151  -0.015  0.00  0.00    +0.132 A 
ATOM      7  C   UNL     1      -1.432   5.828   1.164  0.00  0.00    +0.078 A 
ATOM      8  C   UNL     1      -1.503   5.111   2.376  0.00  0.00    +0.078 A 
ATOM      9  C   UNL     1      -1.270   3.739   2.374  0.00  0.00    +0.132 A 
ATOM     10  C   UNL     1      -1.820   5.823   3.629  0.00  0.00    +0.202 C 
ATOM     11  O   UNL     1      -2.131   5.202   4.627  0.00  0.00    -0.286 OA
ATOM     12  C   UNL     1      -1.755   7.296   3.656  0.00  0.00    +0.075 A 
ATOM     13  C   UNL     1      -1.685   8.014   2.446  0.00  0.00    +0.037 A 
ATOM     14  C   UNL     1      -1.622   9.402   2.470  0.00  0.00    +0.012 A 
ATOM     15  C   UNL     1      -1.630  10.075   3.682  0.00  0.00    +0.004 A 
ATOM     16  C   UNL     1      -1.698   9.378   4.871  0.00  0.00    +0.046 A 
ATOM     17  C   UNL     1      -1.761   7.987   4.870  0.00  0.00    +0.132 A 
ATOM     18  C   UNL     1      -1.677   7.282   1.161  0.00  0.00    +0.198 C 
ATOM     19  O   UNL     1      -1.869   7.872   0.115  0.00  0.00    -0.286 OA
ATOM     20  C   UNL     1      -0.565   3.110  -1.315  0.00  0.00    +0.076 C 
ENDROOT
BRANCH   1  22
ATOM     21  C   UNL     1      -0.388  -0.586  -2.376  0.00  0.00    +0.040 C 
ATOM     22  C   UNL     1      -0.210   0.930  -2.484  0.00  0.00    +0.143 C 
BRANCH  22  23
ATOM     23  O   UNL     1       1.179   1.238  -2.614  0.00  0.00    -0.389 OA
ATOM     24  H   UNL     1       1.598   0.846  -3.393  0.00  0.00    +0.210 HD
ENDBRANCH  22  23
ENDBRANCH   1  22
BRANCH   9  25
ATOM     25  O   UNL     1      -1.338   3.042   3.535  0.00  0.00    -0.506 OA
ATOM     26  H   UNL     1      -2.218   2.695   3.735  0.00  0.00    +0.292 HD
ENDBRANCH   9  25
BRANCH  17  27
ATOM     27  O   UNL     1      -1.828   7.307   6.041  0.00  0.00    -0.494 OA
ATOM     28  C   UNL     1      -1.830   8.081   7.242  0.00  0.00    +0.277 C 
ENDBRANCH  17  27
BRANCH   6  29
ATOM     29  O   UNL     1      -1.062   5.834  -1.185  0.00  0.00    -0.506 OA
ATOM     30  H   UNL     1      -1.902   5.885  -1.660  0.00  0.00    +0.292 HD
ENDBRANCH   6  29
BRANCH   1  31
ATOM     31  O   UNL     1      -2.158   1.305  -1.097  0.00  0.00    -0.386 OA
ATOM     32  H   UNL     1      -2.354   0.361  -1.017  0.00  0.00    +0.210 HD
ENDBRANCH   1  31
TORSDOF 6
