REMARK  Name = ZINC06300992
REMARK  8 active torsions:
REMARK  status: ('A' for Active; 'I' for Inactive)
REMARK    1  A    between atoms: C_1  and  C_2
REMARK    2  A    between atoms: C_4  and  C_39
REMARK    3  A    between atoms: C_9  and  C_14
REMARK    4  A    between atoms: C_14  and  C_16
REMARK    5  A    between atoms: C_14  and  N_76
REMARK    6  A    between atoms: N_20  and  C_21
REMARK    7  A    between atoms: C_29  and  C_32
REMARK    8  A    between atoms: C_32  and  C_33
REMARK                            x       y       z     vdW  Elec       q    Type
REMARK                         _______ _______ _______ _____ _____    ______ ____
ROOT
ATOM      1  C   UNL     1      -2.604   3.705   0.050  0.00  0.00    +0.039 C 
ENDROOT
BRANCH   1  10
ATOM      2  C   UNL     1       1.877  -1.124   3.546  0.00  0.00    +0.044 C 
ATOM      3  C   UNL     1       1.564  -0.236   2.369  0.00  0.00    -0.050 A 
ATOM      4  C   UNL     1       2.458  -0.159   1.309  0.00  0.00    +0.008 A 
ATOM      5  C   UNL     1       2.193   0.647   0.223  0.00  0.00    -0.026 A 
ATOM      6  C   UNL     1       1.019   1.392   0.187  0.00  0.00    +0.052 A 
ATOM      7  C   UNL     1       0.115   1.311   1.263  0.00  0.00    -0.001 A 
ATOM      8  C   UNL     1       0.405   0.486   2.355  0.00  0.00    +0.013 A 
ATOM      9  C   UNL     1      -1.118   2.099   1.215  0.00  0.00    +0.017 A 
ATOM     10  C   UNL     1      -1.345   2.882   0.131  0.00  0.00    +0.011 A 
ATOM     11  C   UNL     1      -0.403   2.933  -0.918  0.00  0.00    +0.251 A 
ATOM     12  O   UNL     1      -0.624   3.648  -1.881  0.00  0.00    -0.268 OA
ATOM     13  N   UNL     1       0.729   2.208  -0.886  0.00  0.00    -0.322 N 
ATOM     14  H   UNL     1       1.353   2.262  -1.627  0.00  0.00    +0.169 HD
ATOM     15  C   UNL     1       3.172   0.721  -0.920  0.00  0.00    +0.046 C 
ENDBRANCH   1  10
BRANCH   1  21
ATOM     16  C   UNL     1      -3.595   1.867  -1.174  0.00  0.00    -0.077 C 
ATOM     17  C   UNL     1      -4.262   1.481  -2.496  0.00  0.00    -0.015 C 
ATOM     18  C   UNL     1      -5.592   2.228  -2.628  0.00  0.00    -0.010 C 
ATOM     19  C   UNL     1      -5.333   3.735  -2.545  0.00  0.00    -0.015 C 
ATOM     20  C   UNL     1      -4.635   4.055  -1.221  0.00  0.00    -0.077 C 
ATOM     21  N   UNL     1      -3.350   3.325  -1.167  0.00  0.00    +0.389 N 
ATOM     22  H   UNL     1      -2.791   3.573  -1.992  0.00  0.00    -0.080 HD
BRANCH  18  23
ATOM     23  C   UNL     1      -6.235   1.894  -3.975  0.00  0.00    +0.038 C 
BRANCH  23  24
ATOM     24  C   UNL     1      -6.602   0.433  -4.008  0.00  0.00    -0.047 A 
ATOM     25  C   UNL     1      -5.694  -0.498  -4.478  0.00  0.00    +0.003 A 
ATOM     26  C   UNL     1      -6.029  -1.839  -4.504  0.00  0.00    +0.000 A 
ATOM     27  C   UNL     1      -7.276  -2.248  -4.069  0.00  0.00    +0.000 A 
ATOM     28  C   UNL     1      -8.185  -1.317  -3.603  0.00  0.00    +0.000 A 
ATOM     29  C   UNL     1      -7.849   0.023  -3.573  0.00  0.00    +0.003 A 
ENDBRANCH  23  24
ENDBRANCH  18  23
ENDBRANCH   1  21
BRANCH   1  30
ATOM     30  C   UNL     1      -3.441   3.466   1.281  0.00  0.00    +0.143 A 
ATOM     31  N   UNL     1      -4.158   2.402   1.545  0.00  0.00    -0.115 NA
ATOM     32  N   UNL     1      -4.724   2.577   2.689  0.00  0.00    -0.023 NA
ATOM     33  N   UNL     1      -4.386   3.726   3.162  0.00  0.00    -0.044 NA
ATOM     34  N   UNL     1      -3.591   4.302   2.325  0.00  0.00    -0.227 N 
BRANCH  34  35
ATOM     35  C   UNL     1      -2.971   5.620   2.481  0.00  0.00    +0.111 C 
ATOM     36  C   UNL     1      -2.099   5.629   3.738  0.00  0.00    +0.027 C 
ATOM     37  C   UNL     1      -1.452   7.005   3.901  0.00  0.00    +0.002 C 
ATOM     38  C   UNL     1      -2.543   8.070   4.030  0.00  0.00    +0.000 C 
ATOM     39  C   UNL     1      -3.415   8.062   2.773  0.00  0.00    +0.002 C 
ATOM     40  C   UNL     1      -4.062   6.685   2.610  0.00  0.00    +0.027 C 
ENDBRANCH  34  35
ENDBRANCH   1  30
TORSDOF 6
