REMARK  Name = ZINC44713750
REMARK  8 active torsions:
REMARK  status: ('A' for Active; 'I' for Inactive)
REMARK    1  A    between atoms: C_1  and  C_2
REMARK    2  A    between atoms: C_3  and  C_9
REMARK    3  A    between atoms: C_4  and  C_8
REMARK    4  A    between atoms: C_9  and  C_11
REMARK    5  A    between atoms: C_9  and  N_12
REMARK    6  A    between atoms: C_13  and  C_15
REMARK    7  A    between atoms: C_26  and  C_28
REMARK    8  A    between atoms: C_30  and  C_35
REMARK                            x       y       z     vdW  Elec       q    Type
REMARK                         _______ _______ _______ _____ _____    ______ ____
ROOT
ATOM      1  C   UNL     1       2.734  -0.830  -4.806  0.00  0.00    +0.100 C 
ATOM      2  C   UNL     1       4.049  -1.307  -4.152  0.00  0.00    +0.121 C 
ATOM      3  N   UNL     1       5.058  -1.224  -5.234  0.00  0.00    -0.296 N 
ATOM      4  C   UNL     1       4.718   0.024  -5.960  0.00  0.00    +0.115 C 
ATOM      5  C   UNL     1       3.177   0.044  -5.992  0.00  0.00    -0.004 C 
ATOM      6  C   UNL     1       2.669  -0.548  -7.303  0.00  0.00    -0.010 C 
ATOM      7  C   UNL     1       3.073   0.369  -8.462  0.00  0.00    -0.082 C 
ATOM      8  N   UNL     1       2.505   1.706  -8.252  0.00  0.00    +0.379 N 
ATOM      9  C   UNL     1       3.069   2.305  -7.037  0.00  0.00    -0.082 C 
ATOM     10  C   UNL     1       2.664   1.470  -5.818  0.00  0.00    -0.010 C 
ATOM     11  C   UNL     1       6.058  -2.087  -5.500  0.00  0.00    +0.247 C 
ATOM     12  O   UNL     1       6.133  -3.137  -4.892  0.00  0.00    -0.270 OA
ATOM     13  H   UNL     1       2.721   2.290  -9.045  0.00  0.00    -0.086 HD
ATOM     14  H   UNL     1       1.503   1.632  -8.155  0.00  0.00    -0.086 HD
ENDROOT
BRANCH  11  15
ATOM     15  C   UNL     1       7.066  -1.756  -6.530  0.00  0.00    +0.040 A 
ATOM     16  C   UNL     1       7.821  -2.770  -7.122  0.00  0.00    +0.025 A 
ATOM     17  C   UNL     1       8.759  -2.457  -8.084  0.00  0.00    +0.058 A 
ATOM     18  C   UNL     1       8.954  -1.141  -8.462  0.00  0.00    +0.050 A 
ATOM     19  C   UNL     1       8.209  -0.129  -7.879  0.00  0.00    +0.125 A 
ATOM     20  C   UNL     1       7.262  -0.431  -6.919  0.00  0.00    +0.051 A 
ATOM     21  F   UNL     1       8.405   1.155  -8.253  0.00  0.00    -0.205 F 
BRANCH  17  22
ATOM     22  C   UNL     1       9.575  -3.551  -8.723  0.00  0.00    +0.418 C 
ATOM     23  F   UNL     1       8.911  -4.025  -9.859  0.00  0.00    -0.166 F 
ATOM     24  F   UNL     1      10.826  -3.046  -9.091  0.00  0.00    -0.166 F 
ATOM     25  F   UNL     1       9.745  -4.599  -7.811  0.00  0.00    -0.166 F 
ENDBRANCH  17  22
ENDBRANCH  11  15
BRANCH   1  27
ATOM     26  N   UNL     1       0.580  -0.010  -3.906  0.00  0.00    -0.308 N 
ATOM     27  C   UNL     1       1.926  -0.016  -3.828  0.00  0.00    +0.219 C 
ATOM     28  O   UNL     1       2.487   0.632  -2.970  0.00  0.00    -0.275 OA
ATOM     29  H   UNL     1       0.132  -0.528  -4.593  0.00  0.00    +0.149 HD
BRANCH  26  30
ATOM     30  C   UNL     1      -0.205   0.781  -2.955  0.00  0.00    +0.104 C 
ATOM     31  C   UNL     1      -0.315   2.222  -3.458  0.00  0.00    +0.033 C 
BRANCH  30  34
ATOM     32  C   UNL     1      -1.755   0.288  -0.283  0.00  0.00    +0.065 C 
ATOM     33  C   UNL     1      -2.254  -0.026  -1.671  0.00  0.00    +0.038 A 
ATOM     34  C   UNL     1      -1.584   0.187  -2.826  0.00  0.00    +0.015 A 
ATOM     35  C   UNL     1      -2.397  -0.241  -3.881  0.00  0.00    +0.065 A 
ATOM     36  N   UNL     1      -3.516  -0.694  -3.376  0.00  0.00    -0.179 NA
ATOM     37  N   UNL     1      -3.447  -0.574  -1.982  0.00  0.00    -0.281 N 
ATOM     38  H   UNL     1      -4.136  -0.836  -1.352  0.00  0.00    +0.189 HD
ATOM     39  C   UNL     1      -2.046  -0.188  -5.345  0.00  0.00    +0.068 C 
ENDBRANCH  30  34
ENDBRANCH  26  30
ENDBRANCH   1  27
TORSDOF 5
