REMARK  Name = ZINC13686797
REMARK  4 active torsions:
REMARK  status: ('A' for Active; 'I' for Inactive)
REMARK    1  A    between atoms: C_1  and  C_2
REMARK    2  A    between atoms: C_4  and  N_16
REMARK    3  A    between atoms: C_5  and  C_13
REMARK    4  A    between atoms: C_9  and  C_12
REMARK                            x       y       z     vdW  Elec       q    Type
REMARK                         _______ _______ _______ _____ _____    ______ ____
ROOT
ATOM      1  C   UNL     1       4.247  -0.672  -0.556  0.00  0.00    +0.046 C 
ATOM      2  C   UNL     1       3.551   0.664  -0.495  0.00  0.00    -0.019 A 
ATOM      3  C   UNL     1       2.136   0.739  -0.510  0.00  0.00    +0.033 A 
ATOM      4  C   UNL     1       1.170  -0.346  -0.580  0.00  0.00    +0.054 A 
ATOM      5  C   UNL     1      -0.171  -0.028  -0.582  0.00  0.00    +0.097 A 
ATOM      6  S   UNL     1      -0.173   1.752  -0.488  0.00  0.00    -0.062 S 
ATOM      7  C   UNL     1       1.579   2.037  -0.449  0.00  0.00    +0.111 A 
ATOM      8  N   UNL     1       2.320   3.122  -0.382  0.00  0.00    -0.243 NA
ATOM      9  C   UNL     1       3.637   3.057  -0.368  0.00  0.00    +0.058 A 
ATOM     10  C   UNL     1       4.281   1.828  -0.425  0.00  0.00    +0.066 A 
ATOM     11 CL   UNL     1       6.015   1.761  -0.405  0.00  0.00    -0.081 Cl
ATOM     12  C   UNL     1       4.449   4.324  -0.290  0.00  0.00    +0.067 C 
ENDROOT
BRANCH   5  13
ATOM     13  C   UNL     1      -1.282  -0.906  -0.643  0.00  0.00    +0.250 C 
ATOM     14  O   UNL     1      -1.104  -2.109  -0.705  0.00  0.00    -0.270 OA
ATOM     15  N   UNL     1      -2.534  -0.409  -0.634  0.00  0.00    -0.325 N 
ATOM     16  H   UNL     1      -2.676   0.549  -0.585  0.00  0.00    +0.145 HD
ATOM     17  H   UNL     1      -3.295  -1.010  -0.676  0.00  0.00    +0.145 HD
ENDBRANCH   5  13
BRANCH   4  18
ATOM     18  N   UNL     1       1.587  -1.668  -0.645  0.00  0.00    -0.356 N 
ATOM     19  H   UNL     1       2.459  -1.883  -1.011  0.00  0.00    +0.142 HD
ATOM     20  H   UNL     1       1.008  -2.376  -0.324  0.00  0.00    +0.142 HD
ENDBRANCH   4  18
TORSDOF 2
