REMARK  Name = ZINC12498130
REMARK  10 active torsions:
REMARK  status: ('A' for Active; 'I' for Inactive)
REMARK    1  A    between atoms: C_4  and  C_7
REMARK    2  A    between atoms: C_7  and  O_8
REMARK    3  A    between atoms: O_8  and  C_9
REMARK    4  A    between atoms: C_13  and  C_15
REMARK    5  A    between atoms: C_15  and  N_17
REMARK    6  A    between atoms: C_15  and  O_38
REMARK    7  A    between atoms: N_17  and  C_18
REMARK    8  A    between atoms: C_20  and  S_29
REMARK    9  A    between atoms: C_23  and  N_24
REMARK   10  A    between atoms: S_29  and  N_32
REMARK                            x       y       z     vdW  Elec       q    Type
REMARK                         _______ _______ _______ _____ _____    ______ ____
ROOT
ATOM      1  C   UNL     1       0.048   1.468  -3.432  0.00  0.00    +0.052 A 
ATOM      2  C   UNL     1       0.319   0.720  -4.567  0.00  0.00    +0.053 A 
ATOM      3  C   UNL     1       0.045  -0.635  -4.583  0.00  0.00    +0.107 A 
ATOM      4  C   UNL     1      -0.499  -1.248  -3.470  0.00  0.00    +0.030 A 
ATOM      5  C   UNL     1      -0.768  -0.510  -2.332  0.00  0.00    +0.027 A 
ATOM      6  C   UNL     1      -0.501   0.850  -2.308  0.00  0.00    +0.051 A 
ENDROOT
BRANCH   6   7
ATOM      7  N   UNL     1      -0.776   1.600  -1.158  0.00  0.00    -0.328 N 
ATOM      8  C   UNL     1      -0.013   1.086   0.008  0.00  0.00    +0.105 C 
ATOM      9  C   UNL     1      -0.782   1.607   1.240  0.00  0.00    +0.020 C 
ATOM     10  C   UNL     1      -2.223   1.850   0.736  0.00  0.00    +0.020 C 
ATOM     11  C   UNL     1      -2.199   1.455  -0.756  0.00  0.00    +0.105 C 
ENDBRANCH   6   7
BRANCH   3  12
ATOM     12  S   UNL     1       0.389  -1.584  -6.028  0.00  0.00    +0.061 S 
ATOM     13  O   UNL     1      -0.463  -2.720  -5.980  0.00  0.00    -0.153 OA
ATOM     14  O   UNL     1       0.387  -0.675  -7.120  0.00  0.00    -0.153 OA
BRANCH  12  15
ATOM     15  N   UNL     1       1.939  -2.148  -5.885  0.00  0.00    -0.172 NA
ATOM     16  C   UNL     1       3.078  -1.374  -6.402  0.00  0.00    +0.137 C 
ATOM     17  C   UNL     1       4.129  -1.262  -5.286  0.00  0.00    +0.177 C 
ATOM     18  O   UNL     1       4.425  -2.569  -4.788  0.00  0.00    -0.377 OA
ATOM     19  C   UNL     1       3.310  -3.232  -4.187  0.00  0.00    +0.177 C 
ATOM     20  C   UNL     1       2.218  -3.442  -5.242  0.00  0.00    +0.137 C 
ENDBRANCH  12  15
ENDBRANCH   3  12
BRANCH   1  21
ATOM     21  N   UNL     1       0.326   2.841  -3.413  0.00  0.00    -0.314 N 
ATOM     22  H   UNL     1       0.136   3.363  -2.617  0.00  0.00    +0.149 HD
BRANCH  21  23
ATOM     23  C   UNL     1       0.902   3.488  -4.594  0.00  0.00    +0.232 C 
BRANCH  23  28
ATOM     24  C   UNL     1      -0.291   6.750  -6.082  0.00  0.00    +0.121 A 
ATOM     25  C   UNL     1      -0.659   7.452  -4.943  0.00  0.00    +0.045 A 
ATOM     26  C   UNL     1      -0.521   6.870  -3.699  0.00  0.00    +0.004 A 
ATOM     27  C   UNL     1      -0.020   5.585  -3.587  0.00  0.00    +0.008 A 
ATOM     28  C   UNL     1       0.352   4.885  -4.719  0.00  0.00    +0.002 A 
ATOM     29  C   UNL     1       0.215   5.464  -5.967  0.00  0.00    +0.053 A 
BRANCH  24  30
ATOM     30  O   UNL     1      -0.427   7.321  -7.307  0.00  0.00    -0.487 OA
BRANCH  30  31
ATOM     31  C   UNL     1      -0.955   8.648  -7.350  0.00  0.00    +0.264 C 
BRANCH  31  35
ATOM     32  C   UNL     1      -1.175   9.964 -11.408  0.00  0.00    +0.000 A 
ATOM     33  C   UNL     1      -2.248   9.307 -10.835  0.00  0.00    +0.000 A 
ATOM     34  C   UNL     1      -2.177   8.881  -9.522  0.00  0.00    +0.007 A 
ATOM     35  C   UNL     1      -1.033   9.112  -8.782  0.00  0.00    -0.010 A 
ATOM     36  C   UNL     1       0.038   9.774  -9.352  0.00  0.00    +0.007 A 
ATOM     37  C   UNL     1      -0.031  10.195 -10.667  0.00  0.00    +0.000 A 
ENDBRANCH  31  35
ENDBRANCH  30  31
ENDBRANCH  24  30
ENDBRANCH  23  28
BRANCH  23  38
ATOM     38  O   UNL     1       2.323   3.546  -4.459  0.00  0.00    -0.370 OA
ATOM     39  H   UNL     1       2.626   4.042  -3.686  0.00  0.00    +0.212 HD
ENDBRANCH  23  38
ENDBRANCH  21  23
ENDBRANCH   1  21
TORSDOF 10
