REMARK  Name = ZINC36931278
REMARK  5 active torsions:
REMARK  status: ('A' for Active; 'I' for Inactive)
REMARK    1  A    between atoms: C_3  and  C_8
REMARK    2  A    between atoms: C_8  and  C_10
REMARK    3  A    between atoms: C_8  and  C_12
REMARK    4  A    between atoms: C_12  and  C_14
REMARK    5  A    between atoms: C_18  and  N_20
REMARK                            x       y       z     vdW  Elec       q    Type
REMARK                         _______ _______ _______ _____ _____    ______ ____
ROOT
ATOM      1  C   UNL     1       4.479   1.827   1.200  0.00  0.00    +0.184 C 
ATOM      2  O   UNL     1       4.379   0.723   1.690  0.00  0.00    -0.290 OA
ENDROOT
BRANCH   1   3
ATOM      3  C   UNL     1       5.389   2.818   1.797  0.00  0.00    +0.021 A 
ATOM      4  C   UNL     1       5.503   4.095   1.238  0.00  0.00    +0.011 A 
ATOM      5  C   UNL     1       6.357   5.017   1.804  0.00  0.00    +0.003 A 
ATOM      6  C   UNL     1       7.102   4.682   2.922  0.00  0.00    +0.033 A 
ATOM      7  C   UNL     1       6.994   3.420   3.481  0.00  0.00    +0.127 A 
ATOM      8  C   UNL     1       6.140   2.489   2.930  0.00  0.00    +0.044 A 
BRANCH   7   9
ATOM      9  N   UNL     1       7.795   3.072   4.676  0.00  0.00    +0.056 N 
ATOM     10  O   UNL     1       8.541   3.889   5.162  0.00  0.00    -0.126 OA
ATOM     11  O   UNL     1       7.702   1.971   5.165  0.00  0.00    -0.126 OA
ENDBRANCH   7   9
ENDBRANCH   1   3
BRANCH   1  12
ATOM     12  C   UNL     1       3.672   2.186  -0.021  0.00  0.00    +0.192 C 
BRANCH  12  15
ATOM     13  C   UNL     1      -0.017   1.377   0.010  0.00  0.00    +0.003 A 
ATOM     14  C   UNL     1       1.171   2.086   0.002  0.00  0.00    +0.005 A 
ATOM     15  C   UNL     1       2.378   1.413  -0.013  0.00  0.00    -0.020 A 
ATOM     16  C   UNL     1       2.399   0.030  -0.021  0.00  0.00    +0.043 A 
ATOM     17  C   UNL     1       1.211  -0.679  -0.013  0.00  0.00    +0.124 A 
ATOM     18  C   UNL     1       0.002  -0.004   0.002  0.00  0.00    +0.038 A 
ATOM     19  F   UNL     1       1.230  -2.030  -0.022  0.00  0.00    -0.205 F 
ENDBRANCH  12  15
BRANCH  12  20
ATOM     20  C   UNL     1       4.437   1.848  -1.232  0.00  0.00    +0.079 C 
ATOM     21  N   UNL     1       5.028   1.588  -2.167  0.00  0.00    -0.195 NA
ENDBRANCH  12  20
ENDBRANCH   1  12
TORSDOF 5
