REMARK  Name = ZINC48331296
REMARK  7 active torsions:
REMARK  status: ('A' for Active; 'I' for Inactive)
REMARK    1  A    between atoms: C_1  and  C_2
REMARK    2  A    between atoms: C_3  and  N_19
REMARK    3  A    between atoms: C_4  and  N_8
REMARK    4  A    between atoms: N_5  and  C_7
REMARK    5  A    between atoms: N_8  and  C_9
REMARK    6  A    between atoms: C_9  and  C_11
REMARK    7  A    between atoms: C_9  and  C_12
REMARK                            x       y       z     vdW  Elec       q    Type
REMARK                         _______ _______ _______ _____ _____    ______ ____
ROOT
ATOM      1  N   UNL     1       0.616  -3.191  -0.809  0.00  0.00    -0.321 N 
ATOM      2  H   UNL     1       0.644  -2.979  -1.755  0.00  0.00    +0.148 HD
ENDROOT
BRANCH   1   6
ATOM      3  C   UNL     1       0.471   1.335   1.284  0.00  0.00    +0.070 C 
ATOM      4  C   UNL     1       0.446  -0.160   1.095  0.00  0.00    +0.092 A 
ATOM      5  C   UNL     1       0.599  -0.834  -0.120  0.00  0.00    +0.188 A 
ATOM      6  C   UNL     1       0.515  -2.170   0.131  0.00  0.00    +0.148 A 
ATOM      7  N   UNL     1       0.317  -2.323   1.460  0.00  0.00    -0.251 N 
ATOM      8  N   UNL     1       0.282  -1.049   2.041  0.00  0.00    -0.173 NA
ATOM      9  C   UNL     1       0.169  -3.597   2.168  0.00  0.00    +0.174 C 
BRANCH   5  10
ATOM     10  N   UNL     1       0.813  -0.207  -1.444  0.00  0.00    +0.062 N 
ATOM     11  O   UNL     1       1.936   0.012  -1.835  0.00  0.00    -0.126 OA
ATOM     12  O   UNL     1      -0.135   0.085  -2.135  0.00  0.00    -0.126 OA
ENDBRANCH   5  10
ENDBRANCH   1   6
BRANCH   1  13
ATOM     13  C   UNL     1       0.680  -4.587  -0.370  0.00  0.00    +0.100 C 
ATOM     14  C   UNL     1      -0.715  -5.211  -0.446  0.00  0.00    +0.033 C 
BRANCH  13  15
ATOM     15  C   UNL     1       1.622  -5.353  -1.264  0.00  0.00    -0.009 A 
ATOM     16  C   UNL     1       1.814  -4.949  -2.572  0.00  0.00    +0.007 A 
ATOM     17  C   UNL     1       2.678  -5.651  -3.392  0.00  0.00    +0.000 A 
ATOM     18  C   UNL     1       3.350  -6.756  -2.904  0.00  0.00    +0.001 A 
ATOM     19  C   UNL     1       3.159  -7.160  -1.597  0.00  0.00    +0.020 A 
ATOM     20  C   UNL     1       2.299  -6.455  -0.773  0.00  0.00    +0.046 A 
ATOM     21 CL   UNL     1       2.063  -6.958   0.871  0.00  0.00    -0.083 Cl
ENDBRANCH  13  15
ENDBRANCH   1  13
TORSDOF 4
