REMARK  Name = ZINC14241893
REMARK  9 active torsions:
REMARK  status: ('A' for Active; 'I' for Inactive)
REMARK    1  A    between atoms: C_1  and  C_2
REMARK    2  A    between atoms: C_2  and  C_4
REMARK    3  A    between atoms: C_2  and  N_14
REMARK    4  A    between atoms: C_15  and  C_17
REMARK    5  A    between atoms: C_17  and  N_18
REMARK    6  A    between atoms: C_21  and  C_25
REMARK    7  A    between atoms: C_21  and  C_32
REMARK    8  A    between atoms: C_25  and  C_26
REMARK    9  A    between atoms: C_32  and  C_33
REMARK                            x       y       z     vdW  Elec       q    Type
REMARK                         _______ _______ _______ _____ _____    ______ ____
ROOT
ATOM      1  N   UNL     1       2.186   0.418   0.067  0.00  0.00    -0.215 N 
ATOM      2  C   UNL     1       1.462   1.552   0.132  0.00  0.00    +0.248 C 
ATOM      3  O   UNL     1       1.883   2.689   0.159  0.00  0.00    -0.273 OA
ATOM      4  C   UNL     1       0.011   1.112   0.161  0.00  0.00    +0.120 C 
ATOM      5  N   UNL     1       0.094  -0.357   0.105  0.00  0.00    -0.284 N 
ATOM      6  C   UNL     1       1.402  -0.667   0.052  0.00  0.00    +0.310 C 
ATOM      7  O   UNL     1       1.825  -1.805  -0.003  0.00  0.00    -0.252 OA
ATOM      8  H   UNL     1      -0.649  -0.980   0.105  0.00  0.00    +0.151 HD
ENDROOT
BRANCH   1   9
ATOM      9  C   UNL     1       3.649   0.377   0.021  0.00  0.00    +0.213 C 
BRANCH   9  11
ATOM     10  N   UNL     1       5.423   0.387  -1.703  0.00  0.00    -0.307 N 
ATOM     11  C   UNL     1       4.107   0.415  -1.415  0.00  0.00    +0.231 C 
ATOM     12  O   UNL     1       3.291   0.470  -2.310  0.00  0.00    -0.274 OA
ATOM     13  H   UNL     1       6.076   0.342  -0.987  0.00  0.00    +0.149 HD
BRANCH  10  15
ATOM     14  C   UNL     1       5.915  -1.000  -3.656  0.00  0.00    +0.033 C 
ATOM     15  C   UNL     1       5.869   0.424  -3.098  0.00  0.00    +0.101 C 
BRANCH  15  16
ATOM     16  C   UNL     1       7.243   1.037  -3.171  0.00  0.00    -0.020 A 
ATOM     17  C   UNL     1       8.087   0.954  -2.106  0.00  0.00    +0.006 A 
ATOM     18  C   UNL     1       9.363   1.511  -2.156  0.00  0.00    +0.001 A 
ATOM     19  C   UNL     1       9.800   2.163  -3.268  0.00  0.00    +0.008 A 
ATOM     20  C   UNL     1       8.955   2.274  -4.386  0.00  0.00    -0.018 A 
ATOM     21  C   UNL     1       7.659   1.703  -4.336  0.00  0.00    -0.013 A 
ATOM     22  C   UNL     1       6.814   1.813  -5.454  0.00  0.00    +0.009 A 
ATOM     23  C   UNL     1       7.252   2.464  -6.567  0.00  0.00    +0.001 A 
ATOM     24  C   UNL     1       8.527   3.026  -6.615  0.00  0.00    +0.001 A 
ATOM     25  C   UNL     1       9.371   2.939  -5.551  0.00  0.00    +0.008 A 
ENDBRANCH  15  16
ENDBRANCH  10  15
ENDBRANCH   9  11
ENDBRANCH   1   9
BRANCH   4  26
ATOM     26  C   UNL     1      -0.741   1.656  -1.055  0.00  0.00    +0.070 C 
BRANCH  26  27
ATOM     27  C   UNL     1      -0.097   1.140  -2.316  0.00  0.00    -0.045 A 
ATOM     28  C   UNL     1       0.918   1.860  -2.919  0.00  0.00    +0.004 A 
ATOM     29  C   UNL     1       1.512   1.385  -4.073  0.00  0.00    +0.000 A 
ATOM     30  C   UNL     1       1.084   0.194  -4.630  0.00  0.00    +0.000 A 
ATOM     31  C   UNL     1       0.065  -0.523  -4.030  0.00  0.00    +0.000 A 
ATOM     32  C   UNL     1      -0.525  -0.050  -2.874  0.00  0.00    +0.004 A 
ENDBRANCH  26  27
ENDBRANCH   4  26
BRANCH   4  33
ATOM     33  C   UNL     1      -0.662   1.564   1.458  0.00  0.00    +0.070 C 
BRANCH  33  34
ATOM     34  C   UNL     1       0.130   1.060   2.637  0.00  0.00    -0.045 A 
ATOM     35  C   UNL     1      -0.164  -0.172   3.192  0.00  0.00    +0.004 A 
ATOM     36  C   UNL     1       0.566  -0.636   4.270  0.00  0.00    +0.000 A 
ATOM     37  C   UNL     1       1.583   0.136   4.801  0.00  0.00    +0.000 A 
ATOM     38  C   UNL     1       1.873   1.370   4.250  0.00  0.00    +0.000 A 
ATOM     39  C   UNL     1       1.147   1.832   3.168  0.00  0.00    +0.004 A 
ENDBRANCH  33  34
ENDBRANCH   4  33
TORSDOF 8
