REMARK  Name = ZINC03227266
REMARK  7 active torsions:
REMARK  status: ('A' for Active; 'I' for Inactive)
REMARK    1  A    between atoms: C_3  and  S_10
REMARK    2  A    between atoms: C_6  and  N_7
REMARK    3  A    between atoms: S_10  and  C_11
REMARK    4  A    between atoms: C_14  and  S_20
REMARK    5  A    between atoms: C_16  and  N_17
REMARK    6  A    between atoms: S_20  and  C_23
REMARK    7  A    between atoms: C_23  and  C_24
REMARK                            x       y       z     vdW  Elec       q    Type
REMARK                         _______ _______ _______ _____ _____    ______ ____
ROOT
ATOM      1  C   UNL     1       2.271  -0.261  -0.085  0.00  0.00    +0.043 A 
ATOM      2  C   UNL     1       1.997   1.101  -0.108  0.00  0.00    +0.019 A 
ATOM      3  C   UNL     1       0.689   1.540  -0.143  0.00  0.00    +0.028 A 
ATOM      4  C   UNL     1      -0.349   0.626  -0.155  0.00  0.00    +0.097 A 
ATOM      5  C   UNL     1      -0.081  -0.730  -0.133  0.00  0.00    +0.061 A 
ATOM      6  C   UNL     1       1.225  -1.177  -0.097  0.00  0.00    +0.142 A 
ENDROOT
BRANCH   6   7
ATOM      7  N   UNL     1       1.511  -2.629  -0.072  0.00  0.00    +0.058 N 
ATOM      8  O   UNL     1       0.595  -3.430  -0.083  0.00  0.00    -0.126 OA
ATOM      9  O   UNL     1       2.664  -3.022  -0.041  0.00  0.00    -0.126 OA
ENDBRANCH   6   7
BRANCH   4  10
ATOM     10  S   UNL     1      -2.017   1.192  -0.208  0.00  0.00    +0.065 S 
ATOM     11  O   UNL     1      -1.948   2.470  -0.824  0.00  0.00    -0.164 OA
ATOM     12  O   UNL     1      -2.740   0.132  -0.818  0.00  0.00    -0.164 OA
BRANCH  10  13
ATOM     13  C   UNL     1      -2.507   1.361   1.531  0.00  0.00    +0.410 C 
ATOM     14  F   UNL     1      -2.400   0.121   2.168  0.00  0.00    -0.176 F 
ATOM     15  F   UNL     1      -1.667   2.284   2.164  0.00  0.00    -0.176 F 
BRANCH  13  16
ATOM     16  C   UNL     1      -3.954   1.852   1.608  0.00  0.00    +0.348 C 
ATOM     17  F   UNL     1      -4.060   3.093   0.970  0.00  0.00    -0.220 F 
ATOM     18 CL   UNL     1      -4.440   2.021   3.336  0.00  0.00    -0.077 Cl
ENDBRANCH  13  16
ENDBRANCH  10  13
ENDBRANCH   4  10
BRANCH   1  19
ATOM     19  S   UNL     1       3.939  -0.827  -0.040  0.00  0.00    -0.087 S 
BRANCH  19  22
ATOM     20  C   UNL     1       5.553  -2.293   3.340  0.00  0.00    +0.034 A 
ATOM     21  C   UNL     1       5.366  -1.921   2.024  0.00  0.00    +0.017 A 
ATOM     22  C   UNL     1       4.182  -1.303   1.639  0.00  0.00    +0.013 A 
ATOM     23  C   UNL     1       3.193  -1.055   2.584  0.00  0.00    +0.017 A 
ATOM     24  C   UNL     1       3.385  -1.435   3.897  0.00  0.00    +0.034 A 
ATOM     25  C   UNL     1       4.564  -2.050   4.276  0.00  0.00    +0.126 A 
BRANCH  25  26
ATOM     26  N   UNL     1       4.769  -2.449   5.687  0.00  0.00    +0.056 N 
ATOM     27  O   UNL     1       5.807  -2.991   6.022  0.00  0.00    -0.126 OA
ATOM     28  O   UNL     1       3.899  -2.236   6.513  0.00  0.00    -0.126 OA
ENDBRANCH  25  26
ENDBRANCH  19  22
ENDBRANCH   1  19
TORSDOF 7
