REMARK  Name = ZINC20601381
REMARK  7 active torsions:
REMARK  status: ('A' for Active; 'I' for Inactive)
REMARK    1  A    between atoms: C_1  and  C_2
REMARK    2  A    between atoms: C_2  and  C_3
REMARK    3  A    between atoms: C_5  and  C_21
REMARK    4  A    between atoms: C_6  and  C_8
REMARK    5  A    between atoms: C_10  and  C_13
REMARK    6  A    between atoms: C_17  and  C_19
REMARK    7  A    between atoms: C_19  and  O_20
REMARK                            x       y       z     vdW  Elec       q    Type
REMARK                         _______ _______ _______ _____ _____    ______ ____
ROOT
ATOM      1  C   UNL     1       4.489   4.455  -0.018  0.00  0.00    +0.296 A 
ATOM      2  N   UNL     1       3.670   3.416  -0.010  0.00  0.00    -0.184 NA
ATOM      3  C   UNL     1       2.426   3.938  -0.001  0.00  0.00    +0.202 A 
ATOM      4  N   UNL     1       2.548   5.241   0.006  0.00  0.00    -0.056 NA
ATOM      5  O   UNL     1       3.719   5.556  -0.004  0.00  0.00    -0.329 OA
ENDROOT
BRANCH   1   9
ATOM      6  C   UNL     1       8.011   3.704  -0.055  0.00  0.00    +0.196 A 
ATOM      7  N   UNL     1       8.052   5.008  -0.049  0.00  0.00    -0.218 NA
ATOM      8  C   UNL     1       6.801   5.483  -0.035  0.00  0.00    +0.089 A 
ATOM      9  C   UNL     1       5.957   4.414  -0.033  0.00  0.00    +0.215 A 
ATOM     10  O   UNL     1       6.733   3.305  -0.041  0.00  0.00    -0.435 OA
ATOM     11  C   UNL     1       6.399   6.936  -0.023  0.00  0.00    +0.070 C 
BRANCH   6  13
ATOM     12  C   UNL     1       9.629   2.475   1.366  0.00  0.00    +0.013 C 
ATOM     13  C   UNL     1       9.210   2.791  -0.071  0.00  0.00    +0.093 C 
ENDBRANCH   6  13
ENDBRANCH   1   9
BRANCH   3  14
ATOM     14  C   UNL     1       1.153   3.174   0.008  0.00  0.00    +0.023 A 
ATOM     15  C   UNL     1       1.174   1.781   0.000  0.00  0.00    +0.012 A 
ATOM     16  C   UNL     1      -0.013   1.076   0.008  0.00  0.00    +0.001 A 
ATOM     17  C   UNL     1      -1.221   1.750   0.017  0.00  0.00    +0.006 A 
ATOM     18  C   UNL     1      -1.246   3.133   0.031  0.00  0.00    -0.022 A 
ATOM     19  C   UNL     1      -0.066   3.848   0.023  0.00  0.00    +0.017 A 
BRANCH  18  20
ATOM     20  C   UNL     1      -2.566   3.860   0.047  0.00  0.00    +0.191 C 
BRANCH  20  21
ATOM     21  O   UNL     1      -2.996   4.097  -1.295  0.00  0.00    -0.390 OA
ATOM     22  H   UNL     1      -3.945   4.620  -1.485  0.00  0.00    +0.210 HD
ENDBRANCH  20  21
ENDBRANCH  18  20
ENDBRANCH   3  14
TORSDOF 5
