REMARK  Name = ZINC39662965
REMARK  3 active torsions:
REMARK  status: ('A' for Active; 'I' for Inactive)
REMARK    1  A    between atoms: C_12  and  C_13
REMARK    2  A    between atoms: C_17  and  C_26
REMARK    3  A    between atoms: N_28  and  C_29
REMARK                            x       y       z     vdW  Elec       q    Type
REMARK                         _______ _______ _______ _____ _____    ______ ____
ROOT
ATOM      1  C   UNL     1      -0.820  -3.096   0.022  0.00  0.00    +0.247 C 
ATOM      2  O   UNL     1      -1.352  -2.009   0.134  0.00  0.00    -0.270 OA
ATOM      3  N   UNL     1      -1.574  -4.207  -0.087  0.00  0.00    -0.296 N 
ATOM      4  C   UNL     1      -1.117  -5.616  -0.120  0.00  0.00    +0.121 C 
ATOM      5  C   UNL     1      -2.164  -6.386   0.715  0.00  0.00    +0.100 C 
ATOM      6  C   UNL     1      -3.431  -5.516   0.655  0.00  0.00    -0.004 C 
ATOM      7  C   UNL     1      -3.050  -4.296  -0.196  0.00  0.00    +0.115 C 
ATOM      8  C   UNL     1      -3.830  -5.068   2.058  0.00  0.00    -0.010 C 
ATOM      9  C   UNL     1      -5.124  -4.252   1.979  0.00  0.00    -0.082 C 
ATOM     10  N   UNL     1      -6.186  -5.072   1.383  0.00  0.00    +0.379 N 
ATOM     11  C   UNL     1      -5.835  -5.421   0.002  0.00  0.00    -0.082 C 
ATOM     12  C   UNL     1      -4.571  -6.286  -0.003  0.00  0.00    -0.010 C 
ATOM     13  H   UNL     1      -6.300  -5.917   1.924  0.00  0.00    -0.086 HD
ATOM     14  H   UNL     1      -7.052  -4.554   1.388  0.00  0.00    -0.086 HD
ENDROOT
BRANCH   1  26
ATOM     15  C   UNL     1      -0.296  -0.516   3.763  0.00  0.00    +0.001 A 
ATOM     16  C   UNL     1       0.851  -0.125   4.427  0.00  0.00    +0.001 A 
ATOM     17  C   UNL     1       2.095  -0.525   3.966  0.00  0.00    +0.012 A 
ATOM     18  C   UNL     1       2.190  -1.323   2.833  0.00  0.00    +0.030 A 
ATOM     19  C   UNL     1       1.025  -1.721   2.157  0.00  0.00    -0.006 A 
ATOM     20  C   UNL     1      -0.214  -1.311   2.630  0.00  0.00    +0.009 A 
ATOM     21  C   UNL     1       1.414  -2.558   0.994  0.00  0.00    +0.006 A 
ATOM     22  C   UNL     1       2.813  -2.667   0.965  0.00  0.00    +0.031 A 
ATOM     23  C   UNL     1       3.432  -3.406  -0.036  0.00  0.00    +0.012 A 
ATOM     24  C   UNL     1       2.671  -4.037  -1.008  0.00  0.00    +0.001 A 
ATOM     25  C   UNL     1       1.296  -3.939  -0.992  0.00  0.00    +0.014 A 
ATOM     26  C   UNL     1       0.654  -3.199   0.008  0.00  0.00    +0.045 A 
ATOM     27  C   UNL     1       3.351  -1.899   2.113  0.00  0.00    +0.194 C 
ATOM     28  O   UNL     1       4.522  -1.767   2.408  0.00  0.00    -0.287 OA
ENDBRANCH   1  26
BRANCH   5  29
ATOM     29  C   UNL     1      -1.693  -6.535   2.139  0.00  0.00    +0.218 C 
ATOM     30  O   UNL     1      -1.029  -5.660   2.652  0.00  0.00    -0.275 OA
ATOM     31  N   UNL     1      -2.011  -7.641   2.841  0.00  0.00    -0.314 N 
ATOM     32  H   UNL     1      -2.543  -8.341   2.431  0.00  0.00    +0.149 HD
BRANCH  31  33
ATOM     33  C   UNL     1      -1.553  -7.785   4.226  0.00  0.00    +0.059 C 
ATOM     34  C   UNL     1      -2.540  -7.090   5.167  0.00  0.00    -0.056 C 
ATOM     35  N   UNL     1      -3.100  -8.060   6.111  0.00  0.00    +0.381 N 
ATOM     36  C   UNL     1      -3.837  -9.107   5.399  0.00  0.00    -0.078 C 
ATOM     37  C   UNL     1      -2.894  -9.869   4.465  0.00  0.00    -0.014 C 
ATOM     38  C   UNL     1      -1.482  -9.274   4.590  0.00  0.00    +0.004 C 
ATOM     39  C   UNL     1      -1.036  -9.393   6.054  0.00  0.00    -0.014 C 
ATOM     40  C   UNL     1      -2.042  -8.646   6.938  0.00  0.00    -0.078 C 
ATOM     41  H   UNL     1      -3.748  -7.579   6.716  0.00  0.00    -0.082 HD
ENDBRANCH  31  33
ENDBRANCH   5  29
TORSDOF 3
