REMARK  Name = ZINC38556118
REMARK  7 active torsions:
REMARK  status: ('A' for Active; 'I' for Inactive)
REMARK    1  A    between atoms: C_1  and  O_2
REMARK    2  A    between atoms: O_2  and  C_3
REMARK    3  A    between atoms: C_6  and  C_11
REMARK    4  A    between atoms: C_8  and  O_9
REMARK    5  A    between atoms: O_9  and  C_10
REMARK    6  A    between atoms: N_16  and  N_17
REMARK    7  A    between atoms: C_18  and  C_19
REMARK                            x       y       z     vdW  Elec       q    Type
REMARK                         _______ _______ _______ _____ _____    ______ ____
ROOT
ATOM      1  C   UNL     1      -5.165  -2.716   0.148  0.00  0.00    +0.214 C 
ATOM      2  N   UNL     1      -5.007  -3.937  -0.665  0.00  0.00    -0.215 NA
ATOM      3  N   UNL     1      -5.690  -3.712  -1.826  0.00  0.00    -0.259 N 
ATOM      4  C   UNL     1      -6.251  -2.495  -1.826  0.00  0.00    +0.168 C 
ATOM      5  N   UNL     1      -5.992  -1.827  -0.684  0.00  0.00    -0.180 N 
ATOM      6  S   UNL     1      -7.184  -1.866  -3.116  0.00  0.00    -0.016 S 
ATOM      7  H   UNL     1      -4.033  -4.126  -0.850  0.00  0.00    +0.147 HD
ATOM      8  H   UNL     1      -5.760  -4.348  -2.555  0.00  0.00    +0.168 HD
ENDROOT
BRANCH   1  12
ATOM      9  C   UNL     1      -1.359  -0.924   0.919  0.00  0.00    +0.162 A 
ATOM     10  C   UNL     1      -2.484  -0.129   0.768  0.00  0.00    +0.050 A 
ATOM     11  C   UNL     1      -3.713  -0.712   0.519  0.00  0.00    +0.011 A 
ATOM     12  C   UNL     1      -3.823  -2.086   0.420  0.00  0.00    -0.006 A 
ATOM     13  C   UNL     1      -2.704  -2.884   0.570  0.00  0.00    +0.056 A 
ATOM     14  C   UNL     1      -1.468  -2.307   0.813  0.00  0.00    +0.162 A 
BRANCH   9  16
ATOM     15  C   UNL     1      -0.112   1.073   1.259  0.00  0.00    +0.277 C 
ATOM     16  O   UNL     1      -0.149  -0.352   1.163  0.00  0.00    -0.491 OA
ENDBRANCH   9  16
BRANCH  14  17
ATOM     17  O   UNL     1      -0.366  -3.091   0.955  0.00  0.00    -0.491 OA
ATOM     18  C   UNL     1      -0.553  -4.502   0.835  0.00  0.00    +0.277 C 
ENDBRANCH  14  17
ENDBRANCH   1  12
BRANCH   5  19
ATOM     19  N   UNL     1      -6.424  -0.536  -0.352  0.00  0.00    -0.184 NA
ATOM     20  C   UNL     1      -7.257   0.099  -1.139  0.00  0.00    +0.136 C 
BRANCH  20  21
ATOM     21  C   UNL     1      -7.607   1.426  -0.864  0.00  0.00    +0.000 C 
ATOM     22  C   UNL     1      -8.478   2.237  -1.592  0.00  0.00    +0.004 A 
ATOM     23  C   UNL     1      -9.239   2.012  -2.759  0.00  0.00    +0.010 A 
ATOM     24  C   UNL     1     -10.017   3.006  -3.257  0.00  0.00    +0.001 A 
ATOM     25  C   UNL     1     -10.087   4.259  -2.642  0.00  0.00    +0.002 A 
ATOM     26  C   UNL     1      -9.384   4.545  -1.520  0.00  0.00    +0.026 A 
ATOM     27  C   UNL     1      -8.548   3.555  -0.939  0.00  0.00    +0.043 A 
ATOM     28  N   UNL     1      -7.777   3.582   0.129  0.00  0.00    -0.380 N 
ATOM     29  C   UNL     1      -7.126   2.279   0.289  0.00  0.00    +0.150 C 
ATOM     30  H   UNL     1      -7.662   4.344   0.719  0.00  0.00    +0.160 HD
ENDBRANCH  20  21
ENDBRANCH   5  19
TORSDOF 5
