REMARK  Name = ZINC33052710
REMARK  8 active torsions:
REMARK  status: ('A' for Active; 'I' for Inactive)
REMARK    1  A    between atoms: C_1  and  C_2
REMARK    2  A    between atoms: C_2  and  O_3
REMARK    3  A    between atoms: O_3  and  C_4
REMARK    4  A    between atoms: C_8  and  C_10
REMARK    5  A    between atoms: C_19  and  C_28
REMARK    6  A    between atoms: N_21  and  C_22
REMARK    7  A    between atoms: N_33  and  C_34
REMARK    8  A    between atoms: C_34  and  C_35
REMARK                            x       y       z     vdW  Elec       q    Type
REMARK                         _______ _______ _______ _____ _____    ______ ____
ROOT
ATOM      1  C   UNL     1      -2.461  -2.870   0.010  0.00  0.00    +0.155 C 
ATOM      2  C   UNL     1      -2.707  -3.400   1.392  0.00  0.00    +0.050 A 
ATOM      3  C   UNL     1      -3.819  -3.325   2.140  0.00  0.00    +0.025 A 
ATOM      4  C   UNL     1      -3.528  -3.912   3.391  0.00  0.00    +0.020 A 
ATOM      5  C   UNL     1      -2.246  -4.343   3.351  0.00  0.00    +0.093 A 
ATOM      6  N   UNL     1      -1.754  -4.068   2.120  0.00  0.00    -0.303 N 
ATOM      7  C   UNL     1      -0.520  -4.385   1.544  0.00  0.00    +0.146 A 
ATOM      8  C   UNL     1      -0.453  -4.861   0.265  0.00  0.00    +0.035 A 
ATOM      9  C   UNL     1       0.893  -4.970  -0.072  0.00  0.00    +0.067 A 
ATOM     10  N   UNL     1       1.610  -4.607   0.966  0.00  0.00    -0.169 NA
ATOM     11  N   UNL     1       0.737  -4.253   2.008  0.00  0.00    -0.215 N 
ATOM     12  C   UNL     1       1.434  -5.426  -1.402  0.00  0.00    +0.068 C 
ATOM     13  C   UNL     1      -1.665  -5.188  -0.555  0.00  0.00    +0.151 C 
ATOM     14  N   UNL     1      -2.377  -3.962  -0.987  0.00  0.00    -0.269 N 
ATOM     15  C   UNL     1      -2.917  -3.848  -2.217  0.00  0.00    +0.304 C 
ATOM     16  O   UNL     1      -3.493  -2.826  -2.535  0.00  0.00    -0.253 OA
ATOM     17  N   UNL     1      -2.818  -4.867  -3.094  0.00  0.00    -0.292 N 
ATOM     18  H   UNL     1      -2.296  -5.791  -2.806  0.00  0.00    +0.151 HD
ENDROOT
BRANCH   1  23
ATOM     19  C   UNL     1       0.869  -1.465  -1.094  0.00  0.00    +0.121 A 
ATOM     20  C   UNL     1       1.210  -0.679  -0.003  0.00  0.00    +0.045 A 
ATOM     21  C   UNL     1       0.359  -0.598   1.082  0.00  0.00    +0.004 A 
ATOM     22  C   UNL     1      -0.828  -1.308   1.085  0.00  0.00    +0.006 A 
ATOM     23  C   UNL     1      -1.167  -2.096   0.002  0.00  0.00    -0.018 A 
ATOM     24  C   UNL     1      -0.322  -2.177  -1.088  0.00  0.00    +0.051 A 
BRANCH  19  25
ATOM     25  O   UNL     1       1.702  -1.542  -2.165  0.00  0.00    -0.492 OA
BRANCH  25  27
ATOM     26  C   UNL     1       3.713  -0.994  -3.388  0.00  0.00    +0.048 C 
ATOM     27  C   UNL     1       2.911  -0.783  -2.102  0.00  0.00    +0.225 C 
ENDBRANCH  25  27
ENDBRANCH  19  25
ENDBRANCH   1  23
BRANCH  11  28
ATOM     28  C   UNL     1       1.106  -3.838   3.295  0.00  0.00    +0.068 A 
ATOM     29  C   UNL     1       0.353  -2.878   3.959  0.00  0.00    +0.028 A 
ATOM     30  C   UNL     1       0.716  -2.476   5.230  0.00  0.00    +0.002 A 
ATOM     31  C   UNL     1       1.834  -3.019   5.836  0.00  0.00    +0.000 A 
ATOM     32  C   UNL     1       2.589  -3.971   5.174  0.00  0.00    +0.002 A 
ATOM     33  C   UNL     1       2.228  -4.381   3.906  0.00  0.00    +0.028 A 
ENDBRANCH  11  28
BRANCH  17  34
ATOM     34  C   UNL     1      -3.405  -4.742  -4.430  0.00  0.00    +0.180 C 
BRANCH  34  35
ATOM     35  C   UNL     1      -3.157  -6.009  -5.208  0.00  0.00    +0.122 A 
ATOM     36  C   UNL     1      -3.963  -7.086  -5.236  0.00  0.00    +0.046 A 
ATOM     37  C   UNL     1      -3.351  -8.034  -6.086  0.00  0.00    +0.041 A 
ATOM     38  C   UNL     1      -2.203  -7.484  -6.521  0.00  0.00    +0.195 A 
ATOM     39  O   UNL     1      -2.091  -6.258  -5.985  0.00  0.00    -0.466 OA
ENDBRANCH  34  35
ENDBRANCH  17  34
TORSDOF 6
