REMARK  Name = ZINC20356569
REMARK  5 active torsions:
REMARK  status: ('A' for Active; 'I' for Inactive)
REMARK    1  A    between atoms: C_3  and  C_16
REMARK    2  A    between atoms: N_4  and  C_6
REMARK    3  A    between atoms: C_6  and  C_7
REMARK    4  A    between atoms: C_7  and  O_8
REMARK    5  A    between atoms: O_8  and  C_9
REMARK                            x       y       z     vdW  Elec       q    Type
REMARK                         _______ _______ _______ _____ _____    ______ ____
ROOT
ATOM      1  C   UNL     1       3.591   0.866  -0.012  0.00  0.00    +0.042 C 
ATOM      2  C   UNL     1       4.357  -0.287   0.035  0.00  0.00    +0.082 C 
ATOM      3  C   UNL     1       3.741  -1.640  -0.027  0.00  0.00    +0.153 C 
ATOM      4  N   UNL     1       2.658  -1.905  -0.711  0.00  0.00    -0.283 NA
ATOM      5  N   UNL     1       4.438  -2.608   0.725  0.00  0.00    -0.150 N 
ATOM      6  C   UNL     1       5.770  -2.373   0.984  0.00  0.00    +0.182 C 
ATOM      7  N   UNL     1       6.461  -1.299   0.697  0.00  0.00    -0.152 NA
ATOM      8  C   UNL     1       5.833  -0.239   0.142  0.00  0.00    +0.273 C 
ATOM      9  O   UNL     1       6.461   0.731  -0.254  0.00  0.00    -0.268 OA
ATOM     10  S   UNL     1       6.261  -3.866   1.805  0.00  0.00    -0.018 S 
ATOM     11  C   UNL     1       4.657  -4.654   1.839  0.00  0.00    +0.182 C 
ATOM     12  N   UNL     1       3.906  -3.781   1.216  0.00  0.00    -0.149 NA
ATOM     13  N   UNL     1       4.300  -5.876   2.385  0.00  0.00    -0.308 N 
ATOM     14  C   UNL     1       2.942  -6.407   2.208  0.00  0.00    +0.107 C 
ATOM     15  C   UNL     1       3.037  -7.820   1.623  0.00  0.00    +0.019 C 
ATOM     16  C   UNL     1       3.935  -8.678   2.517  0.00  0.00    +0.003 C 
ATOM     17  C   UNL     1       5.341  -8.076   2.558  0.00  0.00    +0.019 C 
ATOM     18  C   UNL     1       5.274  -6.669   3.148  0.00  0.00    +0.107 C 
ATOM     19  H   UNL     1       2.256  -2.787  -0.660  0.00  0.00    +0.188 HD
ENDROOT
BRANCH   1  22
ATOM     20  C   UNL     1       0.016   1.014  -0.472  0.00  0.00    +0.020 A 
ATOM     21  C   UNL     1       1.305   1.352  -0.885  0.00  0.00    +0.027 A 
ATOM     22  C   UNL     1       2.186   0.780   0.022  0.00  0.00    +0.043 A 
ATOM     23  N   UNL     1       1.432   0.110   0.962  0.00  0.00    -0.344 N 
ATOM     24  C   UNL     1       0.120   0.261   0.651  0.00  0.00    +0.086 A 
BRANCH  23  25
ATOM     25  C   UNL     1       1.959  -0.638   2.106  0.00  0.00    +0.162 C 
BRANCH  25  26
ATOM     26  C   UNL     1       2.189   0.317   3.279  0.00  0.00    +0.250 C 
BRANCH  26  27
ATOM     27  O   UNL     1       2.810  -0.390   4.354  0.00  0.00    -0.490 OA
BRANCH  27  28
ATOM     28  C   UNL     1       3.178   0.339   5.441  0.00  0.00    +0.121 A 
ATOM     29  C   UNL     1       2.842   1.683   5.522  0.00  0.00    +0.047 A 
ATOM     30  C   UNL     1       3.217   2.422   6.627  0.00  0.00    +0.023 A 
ATOM     31  C   UNL     1       3.928   1.824   7.652  0.00  0.00    +0.041 A 
ATOM     32  C   UNL     1       4.265   0.484   7.572  0.00  0.00    +0.023 A 
ATOM     33  C   UNL     1       3.886  -0.260   6.472  0.00  0.00    +0.047 A 
ATOM     34 CL   UNL     1       4.399   2.755   9.039  0.00  0.00    -0.084 Cl
ENDBRANCH  27  28
ENDBRANCH  26  27
ENDBRANCH  25  26
ENDBRANCH  23  25
ENDBRANCH   1  22
TORSDOF 5
