REMARK  Name = ZINC18153073
REMARK  10 active torsions:
REMARK  status: ('A' for Active; 'I' for Inactive)
REMARK    1  A    between atoms: C_1  and  C_2
REMARK    2  A    between atoms: C_2  and  N_26
REMARK    3  A    between atoms: C_4  and  C_18
REMARK    4  A    between atoms: N_6  and  C_9
REMARK    5  A    between atoms: C_12  and  N_15
REMARK    6  A    between atoms: C_21  and  O_24
REMARK    7  A    between atoms: O_24  and  C_25
REMARK    8  A    between atoms: N_26  and  C_27
REMARK    9  A    between atoms: C_27  and  C_28
REMARK   10  A    between atoms: C_28  and  N_29
REMARK                            x       y       z     vdW  Elec       q    Type
REMARK                         _______ _______ _______ _____ _____    ______ ____
ROOT
ATOM      1  C   UNL     1      -0.035   1.511  -0.027  0.00  0.00    +0.061 C 
ATOM      2  C   UNL     1       0.010   0.005  -0.004  0.00  0.00    +0.015 C 
ATOM      3  C   UNL     1       0.032  -0.667   1.203  0.00  0.00    +0.083 C 
ATOM      4  C   UNL     1      -0.042  -2.127   1.414  0.00  0.00    +0.103 C 
ATOM      5  N   UNL     1       0.012  -2.333   2.705  0.00  0.00    -0.171 NA
ATOM      6  N   UNL     1       0.117  -1.118   3.383  0.00  0.00    -0.156 N 
ATOM      7  C   UNL     1       0.137  -0.098   2.503  0.00  0.00    +0.274 C 
ATOM      8  O   UNL     1       0.224   1.089   2.770  0.00  0.00    -0.268 OA
ENDROOT
BRANCH   6   9
ATOM      9  C   UNL     1       0.194  -0.979   4.774  0.00  0.00    +0.060 A 
ATOM     10  C   UNL     1       0.290   0.284   5.343  0.00  0.00    +0.028 A 
ATOM     11  C   UNL     1       0.367   0.418   6.715  0.00  0.00    +0.034 A 
ATOM     12  C   UNL     1       0.348  -0.705   7.523  0.00  0.00    +0.126 A 
ATOM     13  C   UNL     1       0.254  -1.964   6.959  0.00  0.00    +0.034 A 
ATOM     14  C   UNL     1       0.171  -2.104   5.588  0.00  0.00    +0.028 A 
BRANCH  12  15
ATOM     15  N   UNL     1       0.431  -0.558   8.994  0.00  0.00    +0.056 N 
ATOM     16  O   UNL     1       0.514   0.543   9.488  0.00  0.00    -0.126 OA
ATOM     17  O   UNL     1       0.415  -1.538   9.701  0.00  0.00    -0.126 OA
ENDBRANCH  12  15
ENDBRANCH   6   9
BRANCH   4  18
ATOM     18  C   UNL     1      -0.155  -3.163   0.362  0.00  0.00    +0.003 A 
ATOM     19  C   UNL     1       0.990  -3.798  -0.120  0.00  0.00    +0.013 A 
ATOM     20  C   UNL     1       0.880  -4.763  -1.100  0.00  0.00    +0.046 A 
ATOM     21  C   UNL     1      -0.367  -5.102  -1.606  0.00  0.00    +0.120 A 
ATOM     22  C   UNL     1      -1.509  -4.472  -1.128  0.00  0.00    +0.046 A 
ATOM     23  C   UNL     1      -1.407  -3.510  -0.145  0.00  0.00    +0.013 A 
BRANCH  21  24
ATOM     24  O   UNL     1      -0.472  -6.052  -2.571  0.00  0.00    -0.495 OA
ATOM     25  C   UNL     1      -1.785  -6.353  -3.047  0.00  0.00    +0.277 C 
ENDBRANCH  21  24
ENDBRANCH   4  18
BRANCH   2  26
ATOM     26  N   UNL     1       0.029  -0.688  -1.162  0.00  0.00    -0.345 N 
ATOM     27  H   UNL     1      -0.017  -1.657  -1.149  0.00  0.00    +0.146 HD
BRANCH  26  28
ATOM     28  C   UNL     1       0.119   0.024  -2.439  0.00  0.00    +0.116 C 
BRANCH  28  29
ATOM     29  C   UNL     1       0.123  -0.988  -3.587  0.00  0.00    +0.103 C 
BRANCH  29  30
ATOM     30  N   UNL     1       0.213  -0.274  -4.868  0.00  0.00    -0.304 NA
ATOM     31  C   UNL     1      -0.997   0.522  -5.114  0.00  0.00    +0.065 C 
ATOM     32  C   UNL     1      -0.838   1.294  -6.426  0.00  0.00    -0.067 C 
ATOM     33  N   UNL     1      -0.621   0.348  -7.528  0.00  0.00    +0.381 N 
ATOM     34  C   UNL     1       0.605  -0.422  -7.280  0.00  0.00    -0.067 C 
ATOM     35  C   UNL     1       0.458  -1.209  -5.976  0.00  0.00    +0.065 C 
ATOM     36  H   UNL     1      -1.407  -0.281  -7.590  0.00  0.00    -0.086 HD
ATOM     37  H   UNL     1      -0.529   0.857  -8.395  0.00  0.00    -0.086 HD
ENDBRANCH  29  30
ENDBRANCH  28  29
ENDBRANCH  26  28
ENDBRANCH   2  26
TORSDOF 8
