REMARK  Name = ZINC18125204
REMARK  3 active torsions:
REMARK  status: ('A' for Active; 'I' for Inactive)
REMARK    1  A    between atoms: C_1  and  C_2
REMARK    2  A    between atoms: N_10  and  N_11
REMARK    3  A    between atoms: C_12  and  C_13
REMARK                            x       y       z     vdW  Elec       q    Type
REMARK                         _______ _______ _______ _____ _____    ______ ____
ROOT
ATOM      1  N   UNL     1       3.611  -1.839  -0.025  0.00  0.00    -0.188 NA
ATOM      2  C   UNL     1       4.765  -2.433  -0.034  0.00  0.00    +0.138 C 
ENDROOT
BRANCH   1  12
ATOM      3  C   UNL     1      -0.018   1.503   0.010  0.00  0.00    +0.066 C 
ATOM      4  C   UNL     1       0.002  -0.004   0.002  0.00  0.00    +0.047 A 
ATOM      5  C   UNL     1      -1.171  -0.701   0.004  0.00  0.00    +0.093 A 
ATOM      6  C   UNL     1      -1.127  -2.107  -0.004  0.00  0.00    +0.253 A 
ATOM      7  O   UNL     1      -2.157  -2.761  -0.003  0.00  0.00    -0.268 OA
ATOM      8  N   UNL     1       0.077  -2.718  -0.013  0.00  0.00    -0.294 N 
ATOM      9  H   UNL     1       0.131  -3.687  -0.019  0.00  0.00    +0.172 HD
ATOM     10  C   UNL     1       1.215  -1.970  -0.015  0.00  0.00    +0.216 A 
ATOM     11  N   UNL     1       1.164  -0.652  -0.013  0.00  0.00    -0.220 NA
ATOM     12  N   UNL     1       2.433  -2.597  -0.024  0.00  0.00    -0.207 N 
ATOM     13  H   UNL     1       2.479  -3.566  -0.029  0.00  0.00    +0.177 HD
ENDBRANCH   1  12
BRANCH   2  14
ATOM     14  C   UNL     1       6.004  -1.635  -0.036  0.00  0.00    -0.002 A 
ATOM     15  C   UNL     1       5.940  -0.239  -0.022  0.00  0.00    +0.013 A 
ATOM     16  C   UNL     1       7.101   0.503  -0.025  0.00  0.00    +0.050 A 
ATOM     17  C   UNL     1       8.337  -0.130  -0.041  0.00  0.00    +0.162 A 
ATOM     18  C   UNL     1       8.409  -1.520  -0.052  0.00  0.00    +0.163 A 
ATOM     19  C   UNL     1       7.247  -2.272  -0.045  0.00  0.00    +0.059 A 
ATOM     20  O   UNL     1       9.613  -2.155  -0.059  0.00  0.00    -0.485 OA
ATOM     21  C   UNL     1      10.751  -1.373  -0.436  0.00  0.00    +0.270 C 
ATOM     22  C   UNL     1      10.686  -0.037   0.317  0.00  0.00    +0.270 C 
ATOM     23  O   UNL     1       9.470   0.625  -0.047  0.00  0.00    -0.485 OA
ENDBRANCH   2  14
TORSDOF 2
