REMARK  Name = ZINC21185271
REMARK  12 active torsions:
REMARK  status: ('A' for Active; 'I' for Inactive)
REMARK    1  A    between atoms: C_1  and  C_2
REMARK    2  A    between atoms: C_2  and  N_3
REMARK    3  A    between atoms: N_3  and  C_4
REMARK    4  A    between atoms: N_3  and  C_6
REMARK    5  A    between atoms: C_4  and  C_5
REMARK    6  A    between atoms: C_6  and  C_7
REMARK    7  A    between atoms: C_7  and  C_8
REMARK    8  A    between atoms: C_8  and  N_9
REMARK    9  A    between atoms: C_19  and  S_20
REMARK   10  A    between atoms: S_20  and  C_21
REMARK   11  A    between atoms: C_21  and  C_22
REMARK   12  A    between atoms: C_31  and  O_33
REMARK                            x       y       z     vdW  Elec       q    Type
REMARK                         _______ _______ _______ _____ _____    ______ ____
ROOT
ATOM      1  N   UNL     1       1.030   1.994   2.252  0.00  0.00    -0.287 N 
ATOM      2  C   UNL     1       0.705   0.964   3.067  0.00  0.00    +0.262 A 
ATOM      3  O   UNL     1      -0.319   0.327   2.902  0.00  0.00    -0.267 OA
ATOM      4  C   UNL     1       1.637   0.640   4.155  0.00  0.00    +0.065 A 
ATOM      5  C   UNL     1       1.396  -0.406   5.045  0.00  0.00    +0.015 A 
ATOM      6  C   UNL     1       2.295  -0.662   6.043  0.00  0.00    +0.001 A 
ATOM      7  C   UNL     1       3.443   0.108   6.179  0.00  0.00    +0.002 A 
ATOM      8  C   UNL     1       3.704   1.139   5.322  0.00  0.00    +0.028 A 
ATOM      9  C   UNL     1       2.804   1.426   4.290  0.00  0.00    +0.079 A 
ATOM     10  N   UNL     1       3.023   2.433   3.422  0.00  0.00    -0.223 NA
ATOM     11  C   UNL     1       2.180   2.702   2.455  0.00  0.00    +0.172 A 
ENDROOT
BRANCH   1  12
ATOM     12  C   UNL     1       0.138   2.357   1.147  0.00  0.00    +0.125 C 
BRANCH  12  13
ATOM     13  C   UNL     1       0.539   1.579  -0.108  0.00  0.00    +0.003 C 
BRANCH  13  14
ATOM     14  C   UNL     1      -0.392   1.958  -1.262  0.00  0.00    -0.077 C 
BRANCH  14  15
ATOM     15  N   UNL     1      -0.008   1.210  -2.467  0.00  0.00    +0.379 N 
ATOM     16  H   UNL     1       1.069   1.362  -2.629  0.00  0.00    -0.082 HD
BRANCH  15  18
ATOM     17  C   UNL     1      -1.727  -0.479  -2.035  0.00  0.00    -0.017 C 
ATOM     18  C   UNL     1      -0.239  -0.229  -2.289  0.00  0.00    -0.082 C 
ENDBRANCH  15  18
BRANCH  15  19
ATOM     19  C   UNL     1      -0.719   1.716  -3.649  0.00  0.00    -0.082 C 
ATOM     20  C   UNL     1      -0.029   1.206  -4.915  0.00  0.00    -0.017 C 
ENDBRANCH  15  19
ENDBRANCH  14  15
ENDBRANCH  13  14
ENDBRANCH  12  13
ENDBRANCH   1  12
BRANCH  11  21
ATOM     21  S   UNL     1       2.548   4.038   1.367  0.00  0.00    -0.083 S 
BRANCH  21  22
ATOM     22  C   UNL     1       4.119   4.594   2.072  0.00  0.00    +0.113 C 
BRANCH  22  23
ATOM     23  C   UNL     1       4.639   5.766   1.280  0.00  0.00    -0.020 A 
ATOM     24  C   UNL     1       4.306   7.039   1.617  0.00  0.00    +0.097 A 
ATOM     25  C   UNL     1       4.805   8.118   0.860  0.00  0.00    +0.338 A 
ATOM     26  O   UNL     1       4.498   9.255   1.173  0.00  0.00    -0.245 OA
ATOM     27  O   UNL     1       5.610   7.926  -0.197  0.00  0.00    -0.422 OA
ATOM     28  C   UNL     1       5.979   6.686  -0.585  0.00  0.00    +0.143 A 
ATOM     29  C   UNL     1       5.522   5.563   0.129  0.00  0.00    +0.022 A 
ATOM     30  C   UNL     1       5.898   4.277  -0.273  0.00  0.00    +0.015 A 
ATOM     31  C   UNL     1       6.718   4.116  -1.352  0.00  0.00    +0.046 A 
ATOM     32  C   UNL     1       7.178   5.224  -2.060  0.00  0.00    +0.120 A 
ATOM     33  C   UNL     1       6.811   6.505  -1.679  0.00  0.00    +0.092 A 
BRANCH  32  34
ATOM     34  O   UNL     1       7.993   5.048  -3.131  0.00  0.00    -0.507 OA
ATOM     35  H   UNL     1       8.359   5.919  -3.693  0.00  0.00    +0.292 HD
ENDBRANCH  32  34
ENDBRANCH  22  23
ENDBRANCH  21  22
ENDBRANCH  11  21
TORSDOF 10
