REMARK  Name = ZINC40008013
REMARK  13 active torsions:
REMARK  status: ('A' for Active; 'I' for Inactive)
REMARK    1  A    between atoms: C_1  and  C_2
REMARK    2  A    between atoms: C_2  and  CA_3
REMARK    3  A    between atoms: CA_3  and  C_5
REMARK    4  A    between atoms: CA_3  and  N_7
REMARK    5  A    between atoms: C_5  and  O_6
REMARK    6  A    between atoms: N_7  and  C_8
REMARK    7  A    between atoms: C_9  and  C_20
REMARK    8  A    between atoms: C_16  and  C_19
REMARK    9  A    between atoms: N_24  and  C_28
REMARK   10  A    between atoms: C_28  and  C_29
REMARK   11  A    between atoms: C_29  and  C_30
REMARK   12  A    between atoms: C_33  and  O_36
REMARK   13  A    between atoms: O_36  and  C_37
REMARK                            x       y       z     vdW  Elec       q    Type
REMARK                         _______ _______ _______ _____ _____    ______ ____
ROOT
ATOM      1  C   UNL     1       2.430   0.970   1.176  0.00  0.00    +0.134 A 
ATOM      2  C   UNL     1       3.743   1.456   1.378  0.00  0.00    +0.081 A 
ATOM      3  C   UNL     1       3.903   2.743   1.946  0.00  0.00    +0.267 A 
ATOM      4  O   UNL     1       5.016   3.201   2.138  0.00  0.00    -0.267 OA
ATOM      5  N   UNL     1       2.802   3.453   2.273  0.00  0.00    -0.267 N 
ATOM      6  C   UNL     1       2.946   4.693   2.821  0.00  0.00    +0.096 A 
ATOM      7  C   UNL     1       1.865   5.431   3.159  0.00  0.00    +0.019 A 
ATOM      8  C   UNL     1       0.575   4.925   2.948  0.00  0.00    +0.008 A 
ATOM      9  C   UNL     1       0.420   3.686   2.400  0.00  0.00    -0.007 A 
ATOM     10  C   UNL     1       1.556   2.933   2.055  0.00  0.00    +0.145 A 
ATOM     11  N   UNL     1       1.395   1.725   1.515  0.00  0.00    -0.214 NA
ATOM     12  C   UNL     1      -0.960   3.127   2.168  0.00  0.00    +0.047 C 
ENDROOT
BRANCH   2  13
ATOM     13  C   UNL     1       4.868   0.676   1.021  0.00  0.00    +0.037 C 
ATOM     14  C   UNL     1       5.022  -0.576   1.541  0.00  0.00    +0.077 C 
ATOM     15  C   UNL     1       6.001  -1.566   1.243  0.00  0.00    +0.258 C 
ATOM     16  O   UNL     1       6.871  -1.358   0.415  0.00  0.00    -0.269 OA
ATOM     17  N   UNL     1       5.940  -2.717   1.889  0.00  0.00    -0.255 N 
ATOM     18  C   UNL     1       4.975  -2.948   2.808  0.00  0.00    +0.121 C 
ATOM     19  S   UNL     1       4.707  -4.349   3.755  0.00  0.00    -0.027 S 
ATOM     20  S   UNL     1       4.056  -1.417   2.788  0.00  0.00    -0.061 S 
BRANCH  17  21
ATOM     21  C   UNL     1       6.931  -3.758   1.606  0.00  0.00    +0.119 C 
BRANCH  21  22
ATOM     22  C   UNL     1       8.132  -3.587   2.540  0.00  0.00    +0.054 C 
BRANCH  22  23
ATOM     23  C   UNL     1       9.151  -4.657   2.248  0.00  0.00    -0.046 A 
ATOM     24  C   UNL     1       9.092  -5.867   2.916  0.00  0.00    +0.007 A 
ATOM     25  C   UNL     1      10.026  -6.850   2.651  0.00  0.00    +0.046 A 
ATOM     26  C   UNL     1      11.024  -6.622   1.714  0.00  0.00    +0.120 A 
ATOM     27  C   UNL     1      11.081  -5.408   1.046  0.00  0.00    +0.046 A 
ATOM     28  C   UNL     1      10.141  -4.430   1.310  0.00  0.00    +0.007 A 
BRANCH  26  29
ATOM     29  O   UNL     1      11.944  -7.588   1.452  0.00  0.00    -0.495 OA
ATOM     30  C   UNL     1      12.942  -7.284   0.476  0.00  0.00    +0.277 C 
ENDBRANCH  26  29
ENDBRANCH  22  23
ENDBRANCH  21  22
ENDBRANCH  17  21
ENDBRANCH   2  13
BRANCH   1  31
ATOM     31  N   UNL     1       2.228  -0.276   0.625  0.00  0.00    -0.323 N 
ATOM     32  H   UNL     1       2.989  -0.826   0.378  0.00  0.00    +0.148 HD
BRANCH  31  33
ATOM     33  CA  UNL     1       0.867  -0.772   0.412  0.00  0.00    +0.097 C 
BRANCH  33  35
ATOM     34  C   UNL     1       0.211   1.268  -0.873  0.00  0.00    +0.006 C 
ATOM     35  C   UNL     1       0.339  -0.256  -0.928  0.00  0.00    +0.021 C 
ENDBRANCH  33  35
BRANCH  33  36
ATOM     36  C   UNL     1       0.877  -2.302   0.401  0.00  0.00    +0.178 C 
BRANCH  36  37
ATOM     37  O   UNL     1       1.627  -2.765  -0.723  0.00  0.00    -0.393 OA
ATOM     38  H   UNL     1       1.676  -3.729  -0.793  0.00  0.00    +0.209 HD
ENDBRANCH  36  37
ENDBRANCH  33  36
ENDBRANCH  31  33
ENDBRANCH   1  31
TORSDOF 10
