REMARK  Name = ZINC39666513
REMARK  8 active torsions:
REMARK  status: ('A' for Active; 'I' for Inactive)
REMARK    1  A    between atoms: C_1  and  C_2
REMARK    2  A    between atoms: C_2  and  C_4
REMARK    3  A    between atoms: C_2  and  O_30
REMARK    4  A    between atoms: C_4  and  N_5
REMARK    5  A    between atoms: C_6  and  C_8
REMARK    6  A    between atoms: C_19  and  C_21
REMARK    7  A    between atoms: C_27  and  C_29
REMARK    8  A    between atoms: O_30  and  C_31
REMARK                            x       y       z     vdW  Elec       q    Type
REMARK                         _______ _______ _______ _____ _____    ______ ____
ROOT
ATOM      1  C   UNL     1       0.693  -4.275  -1.914  0.00  0.00    +0.100 C 
ATOM      2  C   UNL     1       1.235  -4.816  -0.571  0.00  0.00    +0.121 C 
ATOM      3  N   UNL     1       1.790  -6.149  -0.902  0.00  0.00    -0.300 N 
ATOM      4  C   UNL     1       2.442  -5.961  -2.220  0.00  0.00    +0.115 C 
ATOM      5  C   UNL     1       1.488  -5.029  -2.993  0.00  0.00    -0.004 C 
ATOM      6  C   UNL     1       2.286  -4.046  -3.844  0.00  0.00    -0.010 C 
ATOM      7  C   UNL     1       3.022  -4.813  -4.947  0.00  0.00    -0.082 C 
ATOM      8  N   UNL     1       2.049  -5.533  -5.777  0.00  0.00    +0.379 N 
ATOM      9  C   UNL     1       1.351  -6.541  -4.971  0.00  0.00    -0.082 C 
ATOM     10  C   UNL     1       0.544  -5.847  -3.869  0.00  0.00    -0.010 C 
ATOM     11  C   UNL     1       1.718  -7.279  -0.169  0.00  0.00    +0.219 C 
ATOM     12  O   UNL     1       2.228  -8.300  -0.579  0.00  0.00    -0.275 OA
ATOM     13  H   UNL     1       1.378  -4.879  -6.150  0.00  0.00    -0.086 HD
ATOM     14  H   UNL     1       2.530  -5.988  -6.539  0.00  0.00    -0.086 HD
ENDROOT
BRANCH  11  15
ATOM     15  C   UNL     1       1.005  -7.271   1.158  0.00  0.00    +0.078 C 
ATOM     16  C   UNL     1       1.679  -6.264   2.094  0.00  0.00    +0.032 C 
ATOM     17  C   UNL     1       0.930  -6.235   3.430  0.00  0.00    +0.108 C 
ATOM     18  N   UNL     1       0.862  -7.602   3.964  0.00  0.00    -0.302 N 
ATOM     19  C   UNL     1       0.314  -8.666   3.112  0.00  0.00    +0.108 C 
ATOM     20  C   UNL     1       1.070  -8.669   1.779  0.00  0.00    +0.032 C 
ATOM     21  C   UNL     1       1.293  -7.874   5.211  0.00  0.00    +0.212 C 
ATOM     22  O   UNL     1       1.743  -6.987   5.904  0.00  0.00    -0.276 OA
ATOM     23  C   UNL     1       1.216  -9.281   5.745  0.00  0.00    +0.109 C 
ENDBRANCH  11  15
BRANCH   1  25
ATOM     24  N   UNL     1       0.126  -2.027  -2.774  0.00  0.00    -0.312 N 
ATOM     25  C   UNL     1       0.939  -2.792  -2.020  0.00  0.00    +0.218 C 
ATOM     26  O   UNL     1       1.869  -2.288  -1.427  0.00  0.00    -0.275 OA
ATOM     27  H   UNL     1      -0.618  -2.430  -3.248  0.00  0.00    +0.149 HD
BRANCH  24  28
ATOM     28  C   UNL     1       0.365  -0.585  -2.878  0.00  0.00    +0.148 C 
BRANCH  28  30
ATOM     29  C   UNL     1      -0.371   1.525  -3.995  0.00  0.00    +0.053 C 
ATOM     30  C   UNL     1      -0.693   0.043  -3.787  0.00  0.00    +0.187 C 
BRANCH  30  31
ATOM     31  O   UNL     1      -1.980  -0.083  -3.179  0.00  0.00    -0.486 OA
BRANCH  31  32
ATOM     32  C   UNL     1      -3.058  -0.060  -4.006  0.00  0.00    +0.139 A 
ATOM     33  C   UNL     1      -2.891   0.195  -5.359  0.00  0.00    +0.047 A 
ATOM     34  C   UNL     1      -3.988   0.217  -6.198  0.00  0.00    +0.004 A 
ATOM     35  C   UNL     1      -5.253  -0.014  -5.690  0.00  0.00    +0.002 A 
ATOM     36  C   UNL     1      -5.424  -0.269  -4.342  0.00  0.00    +0.023 A 
ATOM     37  C   UNL     1      -4.328  -0.299  -3.499  0.00  0.00    +0.083 A 
ATOM     38 CL   UNL     1      -4.542  -0.625  -1.808  0.00  0.00    -0.080 Cl
ENDBRANCH  31  32
ENDBRANCH  30  31
ENDBRANCH  28  30
ENDBRANCH  24  28
ENDBRANCH   1  25
TORSDOF 6
