REMARK  Name = ZINC67038693
REMARK  6 active torsions:
REMARK  status: ('A' for Active; 'I' for Inactive)
REMARK    1  A    between atoms: C_1  and  C_2
REMARK    2  A    between atoms: C_8  and  N_10
REMARK    3  A    between atoms: C_20  and  C_22
REMARK    4  A    between atoms: C_22  and  C_23
REMARK    5  A    between atoms: C_22  and  C_24
REMARK    6  A    between atoms: C_22  and  C_25
REMARK                            x       y       z     vdW  Elec       q    Type
REMARK                         _______ _______ _______ _____ _____    ______ ____
ROOT
ATOM      1  N   UNL     1       0.359   1.870   2.699  0.00  0.00    -0.296 N 
ATOM      2  C   UNL     1       0.945   1.927   3.911  0.00  0.00    +0.302 C 
ATOM      3  O   UNL     1       2.158   1.936   4.000  0.00  0.00    -0.253 OA
ATOM      4  N   UNL     1       0.188   1.976   5.025  0.00  0.00    -0.284 N 
ATOM      5  C   UNL     1       0.773   2.043   6.318  0.00  0.00    +0.111 C 
ATOM      6  C   UNL     1       1.190   0.660   6.917  0.00  0.00    +0.038 C 
ATOM      7  C   UNL     1       0.092  -0.374   6.504  0.00  0.00    +0.109 C 
ATOM      8  N   UNL     1      -1.235   0.133   6.518  0.00  0.00    -0.299 N 
ATOM      9  C   UNL     1      -1.787   0.615   5.226  0.00  0.00    +0.126 C 
ATOM     10  C   UNL     1      -1.296   1.968   4.954  0.00  0.00    +0.128 C 
ATOM     11  C   UNL     1      -1.961   0.174   7.652  0.00  0.00    +0.221 C 
ATOM     12  O   UNL     1      -1.500  -0.266   8.684  0.00  0.00    -0.275 OA
ATOM     13  H   UNL     1      -0.609   1.863   2.628  0.00  0.00    +0.151 HD
ENDROOT
BRANCH   1  20
ATOM     14  C   UNL     1      -0.010   3.820   0.590  0.00  0.00    +0.009 C 
ATOM     15  C   UNL     1       0.386   2.370   0.305  0.00  0.00    +0.006 C 
ATOM     16  C   UNL     1       1.246   2.315  -0.959  0.00  0.00    +0.005 C 
ATOM     17  C   UNL     1       1.641   0.865  -1.244  0.00  0.00    +0.000 C 
ATOM     18  C   UNL     1       2.438   0.312  -0.061  0.00  0.00    +0.002 C 
ATOM     19  C   UNL     1       1.578   0.367   1.204  0.00  0.00    +0.022 C 
ATOM     20  C   UNL     1       1.182   1.817   1.488  0.00  0.00    +0.077 C 
ENDBRANCH   1  20
BRANCH  11  21
ATOM     21  C   UNL     1      -3.346   0.767   7.639  0.00  0.00    +0.039 C 
ATOM     22  C   UNL     1      -3.859   0.898   9.075  0.00  0.00    +0.020 C 
ATOM     23  C   UNL     1      -3.303   2.150   6.986  0.00  0.00    +0.020 C 
ATOM     24  C   UNL     1      -4.284  -0.143   6.844  0.00  0.00    +0.020 C 
ENDBRANCH  11  21
TORSDOF 2
