REMARK  Name = ZINC66735374
REMARK  6 active torsions:
REMARK  status: ('A' for Active; 'I' for Inactive)
REMARK    1  A    between atoms: C_1  and  C_2
REMARK    2  A    between atoms: C_3  and  C_13
REMARK    3  A    between atoms: N_9  and  C_12
REMARK    4  A    between atoms: N_15  and  S_16
REMARK    5  A    between atoms: S_16  and  C_19
REMARK    6  A    between atoms: C_23  and  C_25
REMARK                            x       y       z     vdW  Elec       q    Type
REMARK                         _______ _______ _______ _____ _____    ______ ____
ROOT
ATOM      1  C   UNL     1      -2.510  -0.375   0.013  0.00  0.00    +0.299 C 
ATOM      2  O   UNL     1      -3.151  -0.185   1.188  0.00  0.00    -0.264 OA
ATOM      3  N   UNL     1      -3.139  -0.180  -1.111  0.00  0.00    -0.086 NA
ENDROOT
BRANCH   1   6
ATOM      4  C   UNL     1      -0.018   1.503   0.010  0.00  0.00    +0.087 C 
ATOM      5  C   UNL     1       0.002  -0.004   0.002  0.00  0.00    +0.118 A 
ATOM      6  C   UNL     1      -1.098  -0.802   0.003  0.00  0.00    +0.098 A 
ATOM      7  C   UNL     1      -0.586  -2.182  -0.007  0.00  0.00    +0.117 A 
ATOM      8  C   UNL     1       0.805  -2.070  -0.013  0.00  0.00    +0.235 A 
ATOM      9  O   UNL     1       1.108  -0.762  -0.013  0.00  0.00    -0.441 OA
ATOM     10  N   UNL     1       1.545  -3.190  -0.023  0.00  0.00    -0.202 NA
ATOM     11  C   UNL     1       0.991  -4.370  -0.027  0.00  0.00    +0.205 A 
ATOM     12  N   UNL     1      -0.354  -4.541  -0.022  0.00  0.00    -0.302 N 
ATOM     13  C   UNL     1      -1.175  -3.465  -0.011  0.00  0.00    +0.265 A 
ATOM     14  O   UNL     1      -2.386  -3.600  -0.006  0.00  0.00    -0.267 OA
ATOM     15  C   UNL     1      -0.919  -5.892  -0.028  0.00  0.00    +0.153 C 
ENDBRANCH   1   6
BRANCH   3  16
ATOM     16  S   UNL     1      -4.724   0.300  -1.100  0.00  0.00    +0.102 S 
ATOM     17  O   UNL     1      -5.471  -0.778  -0.551  0.00  0.00    -0.146 OA
ATOM     18  O   UNL     1      -4.749   1.606  -0.542  0.00  0.00    -0.146 OA
BRANCH  16  19
ATOM     19  C   UNL     1      -5.231   0.460  -2.780  0.00  0.00    +0.114 A 
ATOM     20  C   UNL     1      -5.077   1.670  -3.435  0.00  0.00    +0.032 A 
ATOM     21  C   UNL     1      -5.472   1.806  -4.753  0.00  0.00    +0.041 A 
ATOM     22  C   UNL     1      -6.025   0.732  -5.426  0.00  0.00    +0.141 A 
ATOM     23  C   UNL     1      -6.183  -0.493  -4.769  0.00  0.00    +0.089 A 
ATOM     24  C   UNL     1      -5.776  -0.622  -3.439  0.00  0.00    +0.050 A 
ATOM     25  F   UNL     1      -6.412   0.866  -6.713  0.00  0.00    -0.204 F 
BRANCH  23  26
ATOM     26  C   UNL     1      -6.755  -1.610  -5.458  0.00  0.00    +0.102 C 
ATOM     27  N   UNL     1      -7.209  -2.496  -6.005  0.00  0.00    -0.191 NA
ENDBRANCH  23  26
ENDBRANCH  16  19
ENDBRANCH   3  16
TORSDOF 4
