REMARK  Name = ZINC05225739
REMARK  8 active torsions:
REMARK  status: ('A' for Active; 'I' for Inactive)
REMARK    1  A    between atoms: C_1  and  C_2
REMARK    2  A    between atoms: C_3  and  C_25
REMARK    3  A    between atoms: C_4  and  C_16
REMARK    4  A    between atoms: C_10  and  C_14
REMARK    5  A    between atoms: C_10  and  C_15
REMARK    6  A    between atoms: C_25  and  O_27
REMARK    7  A    between atoms: O_27  and  C_28
REMARK    8  A    between atoms: C_28  and  C_29
REMARK                            x       y       z     vdW  Elec       q    Type
REMARK                         _______ _______ _______ _____ _____    ______ ____
ROOT
ATOM      1  C   UNL     1      -2.453   0.076   0.245  0.00  0.00    +0.061 C 
ATOM      2  C   UNL     1      -1.155  -0.679   0.119  0.00  0.00    +0.031 C 
ATOM      3  C   UNL     1       0.001  -0.003   0.002  0.00  0.00    +0.154 C 
ATOM      4  C   UNL     1       1.312  -0.722  -0.143  0.00  0.00    +0.073 C 
ATOM      5  C   UNL     1       1.190  -2.158   0.309  0.00  0.00    +0.025 C 
ATOM      6  C   UNL     1      -0.020  -2.748   0.407  0.00  0.00    +0.049 C 
ATOM      7  N   UNL     1      -1.161  -2.046   0.123  0.00  0.00    -0.260 NA
ATOM      8  C   UNL     1      -0.149  -4.191   0.828  0.00  0.00    +0.062 C 
ATOM      9  C   UNL     1       0.987  -4.540   1.800  0.00  0.00    -0.023 C 
ATOM     10  C   UNL     1       2.321  -4.289   1.090  0.00  0.00    +0.086 C 
ATOM     11  C   UNL     1       2.367  -2.859   0.624  0.00  0.00    +0.162 C 
ATOM     12  O   UNL     1       3.441  -2.301   0.517  0.00  0.00    -0.292 OA
ATOM     13  C   UNL     1       0.894  -3.659   3.047  0.00  0.00    +0.011 C 
ATOM     14  C   UNL     1       0.885  -6.014   2.197  0.00  0.00    +0.011 C 
ENDROOT
BRANCH   4  15
ATOM     15  C   UNL     1       1.747  -0.686  -1.585  0.00  0.00    -0.035 A 
ATOM     16  C   UNL     1       0.950  -1.256  -2.560  0.00  0.00    +0.008 A 
ATOM     17  C   UNL     1       1.343  -1.222  -3.885  0.00  0.00    +0.050 A 
ATOM     18  C   UNL     1       2.542  -0.625  -4.238  0.00  0.00    +0.166 A 
ATOM     19  C   UNL     1       3.348  -0.055  -3.255  0.00  0.00    +0.167 A 
ATOM     20  C   UNL     1       2.945  -0.089  -1.929  0.00  0.00    +0.053 A 
ATOM     21  O   UNL     1       4.462   0.462  -3.849  0.00  0.00    -0.453 OA
ATOM     22  C   UNL     1       4.138   0.566  -5.248  0.00  0.00    +0.466 C 
ATOM     23  O   UNL     1       3.152  -0.464  -5.448  0.00  0.00    -0.453 OA
ENDBRANCH   4  15
BRANCH   3  24
ATOM     24  C   UNL     1      -0.018   1.411   0.007  0.00  0.00    +0.317 C 
ATOM     25  O   UNL     1      -1.080   2.005   0.008  0.00  0.00    -0.250 OA
BRANCH  24  26
ATOM     26  O   UNL     1       1.141   2.102   0.004  0.00  0.00    -0.462 OA
BRANCH  26  27
ATOM     27  C   UNL     1       1.047   3.528   0.009  0.00  0.00    +0.263 C 
BRANCH  27  28
ATOM     28  C   UNL     1       2.452   4.132   0.005  0.00  0.00    +0.156 C 
ATOM     29  C   UNL     1       2.362   5.669   0.126  0.00  0.00    +0.037 C 
ATOM     30  C   UNL     1       3.483   6.142  -0.839  0.00  0.00    +0.031 C 
ATOM     31  C   UNL     1       3.407   5.050  -1.936  0.00  0.00    +0.160 C 
ATOM     32  O   UNL     1       3.106   3.834  -1.234  0.00  0.00    -0.373 OA
ENDBRANCH  27  28
ENDBRANCH  26  27
ENDBRANCH  24  26
ENDBRANCH   3  24
TORSDOF 5
