REMARK  Name = ZINC09130012
REMARK  11 active torsions:
REMARK  status: ('A' for Active; 'I' for Inactive)
REMARK    1  A    between atoms: C_1  and  C_2
REMARK    2  A    between atoms: C_2  and  N_3
REMARK    3  A    between atoms: C_7  and  S_23
REMARK    4  A    between atoms: C_11  and  C_12
REMARK    5  A    between atoms: C_12  and  N_13
REMARK    6  A    between atoms: C_14  and  C_22
REMARK    7  A    between atoms: C_15  and  N_19
REMARK    8  A    between atoms: C_16  and  C_18
REMARK    9  A    between atoms: S_23  and  N_26
REMARK   10  A    between atoms: N_26  and  C_27
REMARK   11  A    between atoms: N_26  and  C_28
REMARK                            x       y       z     vdW  Elec       q    Type
REMARK                         _______ _______ _______ _____ _____    ______ ____
ROOT
ATOM      1  N   UNL     1       2.181   3.416  -0.222  0.00  0.00    -0.326 N 
ATOM      2  C   UNL     1       0.936   2.905  -0.527  0.00  0.00    +0.069 A 
ATOM      3  C   UNL     1      -0.329   3.460  -0.668  0.00  0.00    +0.030 A 
ATOM      4  C   UNL     1      -1.398   2.651  -0.989  0.00  0.00    +0.030 A 
ATOM      5  C   UNL     1      -1.217   1.288  -1.176  0.00  0.00    +0.108 A 
ATOM      6  C   UNL     1       0.019   0.723  -1.036  0.00  0.00    +0.058 A 
ATOM      7  C   UNL     1       1.117   1.524  -0.712  0.00  0.00    +0.091 A 
ATOM      8  N   UNL     1       2.436   1.269  -0.514  0.00  0.00    -0.230 NA
ATOM      9  C   UNL     1       3.058   2.375  -0.228  0.00  0.00    +0.132 A 
ENDROOT
BRANCH   5  10
ATOM     10  S   UNL     1      -2.597   0.274  -1.592  0.00  0.00    +0.060 S 
ATOM     11  O   UNL     1      -3.557   1.125  -2.202  0.00  0.00    -0.153 OA
ATOM     12  O   UNL     1      -2.074  -0.875  -2.244  0.00  0.00    -0.153 OA
BRANCH  10  13
ATOM     13  N   UNL     1      -3.265  -0.251  -0.171  0.00  0.00    -0.183 NA
ATOM     14  C   UNL     1      -4.316   0.535   0.479  0.00  0.00    +0.131 C 
ATOM     15  C   UNL     1      -2.805  -1.503   0.436  0.00  0.00    +0.131 C 
ENDBRANCH  10  13
ENDBRANCH   5  10
BRANCH   1  17
ATOM     16  C   UNL     1       2.365   5.083   1.558  0.00  0.00    +0.027 C 
ATOM     17  C   UNL     1       2.500   4.818   0.057  0.00  0.00    +0.120 C 
ENDBRANCH   1  17
BRANCH   9  18
ATOM     18  C   UNL     1       4.533   2.488   0.057  0.00  0.00    +0.218 C 
BRANCH  18  19
ATOM     19  N   UNL     1       5.267   2.605  -1.206  0.00  0.00    -0.259 N 
ATOM     20  C   UNL     1       5.813   1.587  -1.904  0.00  0.00    +0.067 A 
ATOM     21  C   UNL     1       6.395   2.110  -3.008  0.00  0.00    +0.169 A 
ATOM     22  C   UNL     1       6.207   3.496  -2.978  0.00  0.00    +0.090 A 
ATOM     23  N   UNL     1       5.530   3.793  -1.899  0.00  0.00    -0.174 NA
ATOM     24  C   UNL     1       6.698   4.477  -4.012  0.00  0.00    +0.070 C 
ATOM     25  C   UNL     1       5.777   0.129  -1.524  0.00  0.00    +0.068 C 
BRANCH  21  26
ATOM     26  N   UNL     1       7.110   1.351  -4.058  0.00  0.00    +0.060 N 
ATOM     27  O   UNL     1       8.307   1.150  -3.956  0.00  0.00    -0.126 OA
ATOM     28  O   UNL     1       6.502   0.926  -5.024  0.00  0.00    -0.126 OA
ENDBRANCH  21  26
ENDBRANCH  18  19
ENDBRANCH   9  18
TORSDOF 6
