REMARK  Name = ZINC37389795
REMARK  5 active torsions:
REMARK  status: ('A' for Active; 'I' for Inactive)
REMARK    1  A    between atoms: C_1  and  C_2
REMARK    2  A    between atoms: N_7  and  S_9
REMARK    3  A    between atoms: S_9  and  C_12
REMARK    4  A    between atoms: C_15  and  N_21
REMARK    5  A    between atoms: C_16  and  N_18
REMARK                            x       y       z     vdW  Elec       q    Type
REMARK                         _______ _______ _______ _____ _____    ______ ____
ROOT
ATOM      1  C   UNL     1       1.561  -3.288   3.699  0.00  0.00    +0.108 A 
ATOM      2  C   UNL     1       2.554  -4.138   3.247  0.00  0.00    +0.030 A 
ATOM      3  C   UNL     1       3.774  -4.182   3.893  0.00  0.00    +0.027 A 
ATOM      4  C   UNL     1       4.003  -3.372   4.998  0.00  0.00    +0.055 A 
ATOM      5  C   UNL     1       3.003  -2.520   5.450  0.00  0.00    +0.149 A 
ATOM      6  C   UNL     1       1.787  -2.477   4.796  0.00  0.00    +0.063 A 
ENDROOT
BRANCH   1   7
ATOM      7  S   UNL     1       0.006  -3.235   2.872  0.00  0.00    +0.061 S 
ATOM      8  O   UNL     1      -0.940  -2.753   3.816  0.00  0.00    -0.153 OA
ATOM      9  O   UNL     1      -0.145  -4.483   2.211  0.00  0.00    -0.153 OA
BRANCH   7  15
ATOM     10  C   UNL     1      -1.538   1.274   1.125  0.00  0.00    +0.009 C 
ATOM     11  C   UNL     1      -1.260  -0.218   0.933  0.00  0.00    +0.002 C 
ATOM     12  C   UNL     1      -0.709  -0.459  -0.474  0.00  0.00    +0.006 C 
ATOM     13  C   UNL     1      -0.462  -1.955  -0.678  0.00  0.00    +0.017 C 
ATOM     14  C   UNL     1       0.577  -2.441   0.337  0.00  0.00    +0.109 C 
ATOM     15  N   UNL     1       0.121  -2.083   1.688  0.00  0.00    -0.176 NA
ATOM     16  C   UNL     1      -0.231  -0.684   1.968  0.00  0.00    +0.112 C 
ENDBRANCH   7  15
ENDBRANCH   1   7
BRANCH   5  17
ATOM     17  N   UNL     1       3.242  -1.655   6.627  0.00  0.00    +0.058 N 
ATOM     18  O   UNL     1       3.881  -2.073   7.564  0.00  0.00    -0.126 OA
ATOM     19  O   UNL     1       2.798  -0.531   6.651  0.00  0.00    -0.126 OA
ENDBRANCH   5  17
BRANCH   4  20
ATOM     20  N   UNL     1       5.235  -3.414   5.654  0.00  0.00    -0.356 N 
ATOM     21  H   UNL     1       5.887  -4.093   5.419  0.00  0.00    +0.142 HD
ATOM     22  H   UNL     1       5.440  -2.764   6.345  0.00  0.00    +0.142 HD
ENDBRANCH   4  20
TORSDOF 4
