REMARK  Name = ZINC09500457
REMARK  4 active torsions:
REMARK  status: ('A' for Active; 'I' for Inactive)
REMARK    1  A    between atoms: C_1  and  C_2
REMARK    2  A    between atoms: C_7  and  C_8
REMARK    3  A    between atoms: C_20  and  C_24
REMARK    4  A    between atoms: C_20  and  C_25
REMARK                            x       y       z     vdW  Elec       q    Type
REMARK                         _______ _______ _______ _____ _____    ______ ____
ROOT
ATOM      1  C   UNL     1      -2.133   6.264   0.300  0.00  0.00    +0.047 C 
ATOM      2  C   UNL     1      -0.804   5.554   0.257  0.00  0.00    -0.010 A 
ATOM      3  C   UNL     1       0.463   6.145   0.329  0.00  0.00    +0.042 A 
ATOM      4  C   UNL     1       1.412   5.126   0.244  0.00  0.00    +0.028 A 
ATOM      5  N   UNL     1       0.760   3.968   0.135  0.00  0.00    -0.354 N 
ATOM      6  H   UNL     1       1.177   3.095   0.062  0.00  0.00    +0.166 HD
ATOM      7  C   UNL     1      -0.601   4.207   0.144  0.00  0.00    +0.106 A 
ATOM      8  C   UNL     1       2.897   5.386   0.274  0.00  0.00    +0.060 C 
ATOM      9  C   UNL     1       3.161   6.846  -0.102  0.00  0.00    -0.023 C 
ATOM     10  C   UNL     1       2.328   7.790   0.771  0.00  0.00    +0.086 C 
ATOM     11  C   UNL     1       0.857   7.556   0.463  0.00  0.00    +0.166 C 
ATOM     12  O   UNL     1       0.066   8.468   0.337  0.00  0.00    -0.292 OA
ATOM     13  C   UNL     1       2.794   7.063  -1.571  0.00  0.00    +0.011 C 
ATOM     14  C   UNL     1       4.647   7.155   0.097  0.00  0.00    +0.011 C 
ENDROOT
BRANCH   7  15
ATOM     15  C   UNL     1      -1.651   3.186   0.042  0.00  0.00    +0.267 C 
ATOM     16  O   UNL     1      -2.818   3.521  -0.041  0.00  0.00    -0.268 OA
ATOM     17  N   UNL     1      -1.323   1.879   0.041  0.00  0.00    -0.266 N 
ATOM     18  C   UNL     1       0.046   1.357   0.040  0.00  0.00    +0.119 C 
ATOM     19  C   UNL     1      -0.106  -0.173   0.039  0.00  0.00    +0.056 C 
ATOM     20  C   UNL     1      -1.600  -0.407   0.046  0.00  0.00    -0.024 A 
ATOM     21  C   UNL     1      -2.239   0.823   0.050  0.00  0.00    +0.040 A 
ATOM     22  C   UNL     1      -3.635   0.862   0.056  0.00  0.00    +0.024 A 
ATOM     23  C   UNL     1      -4.363  -0.308   0.058  0.00  0.00    +0.002 A 
ATOM     24  C   UNL     1      -3.716  -1.530   0.054  0.00  0.00    +0.000 A 
ATOM     25  C   UNL     1      -2.334  -1.577   0.048  0.00  0.00    +0.005 A 
ENDBRANCH   7  15
TORSDOF 1
