REMARK  Name = ZINC23944389
REMARK  7 active torsions:
REMARK  status: ('A' for Active; 'I' for Inactive)
REMARK    1  A    between atoms: C_1  and  C_2
REMARK    2  A    between atoms: C_5  and  N_9
REMARK    3  A    between atoms: C_6  and  C_8
REMARK    4  A    between atoms: C_10  and  N_19
REMARK    5  A    between atoms: C_20  and  C_22
REMARK    6  A    between atoms: N_24  and  C_25
REMARK    7  A    between atoms: C_31  and  C_33
REMARK                            x       y       z     vdW  Elec       q    Type
REMARK                         _______ _______ _______ _____ _____    ______ ____
ROOT
ATOM      1  N   UNL     1      -2.560  -0.162   0.214  0.00  0.00    -0.217 N 
ATOM      2  C   UNL     1      -2.405   1.186   0.258  0.00  0.00    +0.134 A 
ATOM      3  C   UNL     1      -3.662   1.749   0.221  0.00  0.00    +0.038 A 
ATOM      4  C   UNL     1      -4.585   0.721   0.145  0.00  0.00    +0.091 A 
ATOM      5  N   UNL     1      -3.928  -0.430   0.144  0.00  0.00    -0.168 NA
ATOM      6  C   UNL     1      -6.058   1.123   0.088  0.00  0.00    +0.223 C 
ATOM      7  S   UNL     1      -5.989   2.880   0.638  0.00  0.00    -0.021 S 
ATOM      8  O   UNL     1      -6.174   2.947   2.045  0.00  0.00    -0.174 OA
ATOM      9  O   UNL     1      -6.800   3.671  -0.219  0.00  0.00    -0.174 OA
ATOM     10  C   UNL     1      -4.216   3.172   0.241  0.00  0.00    +0.206 C 
ENDROOT
BRANCH   1  15
ATOM     11  C   UNL     1       1.607  -4.013   0.296  0.00  0.00    +0.044 C 
ATOM     12  C   UNL     1       0.501  -2.990   0.275  0.00  0.00    -0.050 A 
ATOM     13  C   UNL     1       0.580  -1.906  -0.580  0.00  0.00    +0.005 A 
ATOM     14  C   UNL     1      -0.434  -0.970  -0.606  0.00  0.00    +0.028 A 
ATOM     15  C   UNL     1      -1.530  -1.113   0.234  0.00  0.00    +0.070 A 
ATOM     16  C   UNL     1      -1.608  -2.203   1.091  0.00  0.00    -0.025 A 
ATOM     17  C   UNL     1      -0.592  -3.138   1.109  0.00  0.00    +0.008 A 
ATOM     18  C   UNL     1      -2.798  -2.364   2.001  0.00  0.00    +0.046 C 
ENDBRANCH   1  15
BRANCH   2  19
ATOM     19  N   UNL     1      -1.198   1.873   0.332  0.00  0.00    -0.262 N 
ATOM     20  C   UNL     1      -1.103   3.124  -0.159  0.00  0.00    +0.304 C 
ATOM     21  O   UNL     1      -2.036   3.611  -0.764  0.00  0.00    -0.265 OA
ATOM     22  H   UNL     1      -0.321   1.395   0.793  0.00  0.00    +0.157 HD
BRANCH  20  23
ATOM     23  C   UNL     1       0.147   3.914   0.046  0.00  0.00    +0.300 C 
ATOM     24  O   UNL     1       1.080   3.427   0.650  0.00  0.00    -0.265 OA
ATOM     25  N   UNL     1       0.240   5.167  -0.441  0.00  0.00    -0.304 N 
ATOM     26  H   UNL     1      -0.606   5.609  -0.989  0.00  0.00    +0.149 HD
BRANCH  25  27
ATOM     27  C   UNL     1       1.467   5.942  -0.240  0.00  0.00    +0.076 C 
ATOM     28  C   UNL     1       1.417   6.633   1.125  0.00  0.00    +0.022 C 
ATOM     29  C   UNL     1       2.698   7.442   1.334  0.00  0.00    +0.002 C 
ATOM     30  C   UNL     1       2.821   8.497   0.233  0.00  0.00    +0.000 C 
ATOM     31  C   UNL     1       2.872   7.806  -1.131  0.00  0.00    +0.005 C 
ATOM     32  C   UNL     1       1.590   6.997  -1.341  0.00  0.00    +0.006 C 
ATOM     33  C   UNL     1       1.641   6.307  -2.705  0.00  0.00    +0.009 C 
ENDBRANCH  25  27
ENDBRANCH  20  23
ENDBRANCH   2  19
TORSDOF 4
