REMARK  Name = ZINC01373934
REMARK  8 active torsions:
REMARK  status: ('A' for Active; 'I' for Inactive)
REMARK    1  A    between atoms: C_6  and  C_7
REMARK    2  A    between atoms: C_7  and  N_8
REMARK    3  A    between atoms: C_9  and  C_13
REMARK    4  A    between atoms: C_13  and  N_14
REMARK    5  A    between atoms: N_14  and  C_15
REMARK    6  A    between atoms: N_14  and  C_25
REMARK    7  A    between atoms: C_15  and  C_16
REMARK    8  A    between atoms: C_25  and  C_26
REMARK                            x       y       z     vdW  Elec       q    Type
REMARK                         _______ _______ _______ _____ _____    ______ ____
ROOT
ATOM      1  N   UNL     1      -2.157   2.594  -2.028  0.00  0.00    -0.287 NA
ENDROOT
BRANCH   1   2
ATOM      2  C   UNL     1      -3.136   1.504  -1.934  0.00  0.00    +0.163 C 
BRANCH   2   4
ATOM      3  N   UNL     1      -3.106  -0.907  -2.766  0.00  0.00    -0.224 N 
ATOM      4  C   UNL     1      -2.730   0.382  -2.855  0.00  0.00    +0.166 A 
ATOM      5  N   UNL     1      -1.943   0.473  -3.899  0.00  0.00    -0.112 NA
ATOM      6  N   UNL     1      -1.840  -0.699  -4.424  0.00  0.00    -0.023 NA
ATOM      7  N   UNL     1      -2.538  -1.537  -3.738  0.00  0.00    -0.044 NA
BRANCH   3   8
ATOM      8  C   UNL     1      -3.990  -1.488  -1.752  0.00  0.00    +0.182 C 
BRANCH   8  14
ATOM      9  C   UNL     1      -2.935  -1.119   0.488  0.00  0.00    +0.008 A 
ATOM     10  C   UNL     1      -2.181  -1.554   1.561  0.00  0.00    +0.038 A 
ATOM     11  C   UNL     1      -1.658  -2.837   1.565  0.00  0.00    +0.123 A 
ATOM     12  C   UNL     1      -1.891  -3.681   0.493  0.00  0.00    +0.038 A 
ATOM     13  C   UNL     1      -2.646  -3.244  -0.580  0.00  0.00    +0.008 A 
ATOM     14  C   UNL     1      -3.167  -1.964  -0.582  0.00  0.00    -0.026 A 
ATOM     15  F   UNL     1      -0.921  -3.263   2.613  0.00  0.00    -0.205 F 
ENDBRANCH   8  14
ENDBRANCH   3   8
ENDBRANCH   2   4
ENDBRANCH   1   2
BRANCH   1  16
ATOM     16  C   UNL     1      -0.939   2.274  -1.270  0.00  0.00    +0.120 C 
BRANCH  16  17
ATOM     17  C   UNL     1      -0.111   1.283  -2.046  0.00  0.00    -0.030 A 
ATOM     18  C   UNL     1      -0.204  -0.067  -1.760  0.00  0.00    +0.009 A 
ATOM     19  C   UNL     1       0.553  -0.980  -2.469  0.00  0.00    +0.050 A 
ATOM     20  C   UNL     1       1.409  -0.545  -3.467  0.00  0.00    +0.166 A 
ATOM     21  C   UNL     1       1.504   0.815  -3.755  0.00  0.00    +0.167 A 
ATOM     22  C   UNL     1       0.737   1.724  -3.044  0.00  0.00    +0.054 A 
ATOM     23  O   UNL     1       2.404   0.985  -4.766  0.00  0.00    -0.453 OA
ATOM     24  C   UNL     1       3.162  -0.238  -4.817  0.00  0.00    +0.466 C 
ATOM     25  O   UNL     1       2.251  -1.226  -4.299  0.00  0.00    -0.453 OA
ENDBRANCH  16  17
ENDBRANCH   1  16
BRANCH   1  26
ATOM     26  C   UNL     1      -2.739   3.865  -1.578  0.00  0.00    +0.125 C 
BRANCH  26  27
ATOM     27  C   UNL     1      -1.878   5.008  -2.052  0.00  0.00    +0.031 A 
ATOM     28  C   UNL     1      -2.165   5.629  -3.224  0.00  0.00    +0.020 A 
ATOM     29  C   UNL     1      -1.311   6.735  -3.656  0.00  0.00    +0.003 A 
ATOM     30  C   UNL     1      -1.558   7.412  -4.857  0.00  0.00    +0.059 A 
ATOM     31  C   UNL     1      -0.737   8.452  -5.238  0.00  0.00    +0.163 A 
ATOM     32  C   UNL     1       0.339   8.832  -4.431  0.00  0.00    +0.164 A 
ATOM     33  C   UNL     1       0.593   8.166  -3.243  0.00  0.00    +0.075 A 
ATOM     34  C   UNL     1      -0.225   7.117  -2.845  0.00  0.00    +0.053 A 
ATOM     35  N   UNL     1       0.013   6.443  -1.664  0.00  0.00    -0.322 N 
ATOM     36  H   UNL     1       0.761   6.706  -1.106  0.00  0.00    +0.169 HD
ATOM     37  C   UNL     1      -0.781   5.431  -1.274  0.00  0.00    +0.254 A 
ATOM     38  O   UNL     1      -0.545   4.861  -0.222  0.00  0.00    -0.268 OA
ATOM     39  O   UNL     1       1.150   9.862  -4.796  0.00  0.00    -0.485 OA
ATOM     40  C   UNL     1       1.099  10.266  -6.168  0.00  0.00    +0.270 C 
ATOM     41  C   UNL     1      -0.374  10.380  -6.582  0.00  0.00    +0.270 C 
ATOM     42  O   UNL     1      -0.989   9.098  -6.410  0.00  0.00    -0.485 OA
ENDBRANCH  26  27
ENDBRANCH   1  26
TORSDOF 8
