REMARK  Name = ZINC20116157
REMARK  13 active torsions:
REMARK  status: ('A' for Active; 'I' for Inactive)
REMARK    1  A    between atoms: C_1  and  C_2
REMARK    2  A    between atoms: C_2  and  N_3
REMARK    3  A    between atoms: N_6  and  C_9
REMARK    4  A    between atoms: C_9  and  C_10
REMARK    5  A    between atoms: C_10  and  C_11
REMARK    6  A    between atoms: C_11  and  N_12
REMARK    7  A    between atoms: C_13  and  C_15
REMARK    8  A    between atoms: C_15  and  C_17
REMARK    9  A    between atoms: C_15  and  N_20
REMARK   10  A    between atoms: C_17  and  C_18
REMARK   11  A    between atoms: C_17  and  C_19
REMARK   12  A    between atoms: C_21  and  C_23
REMARK   13  A    between atoms: C_26  and  C_29
REMARK                            x       y       z     vdW  Elec       q    Type
REMARK                         _______ _______ _______ _____ _____    ______ ____
ROOT
ATOM      1  C   UNL     1      -2.683  -2.696   0.034  0.00  0.00    +0.162 C 
ENDROOT
BRANCH   1   3
ATOM      2  N   UNL     1      -3.677  -4.613  -1.173  0.00  0.00    -0.314 N 
ATOM      3  C   UNL     1      -2.568  -3.939  -0.811  0.00  0.00    +0.234 C 
ATOM      4  O   UNL     1      -1.476  -4.332  -1.165  0.00  0.00    -0.274 OA
ATOM      5  H   UNL     1      -4.670  -4.213  -0.923  0.00  0.00    +0.149 HD
BRANCH   2   6
ATOM      6  C   UNL     1      -3.559  -5.879  -1.901  0.00  0.00    +0.105 C 
BRANCH   6   7
ATOM      7  C   UNL     1      -4.956  -6.434  -2.188  0.00  0.00    +0.034 C 
BRANCH   7   8
ATOM      8  C   UNL     1      -4.833  -7.756  -2.948  0.00  0.00    +0.086 C 
BRANCH   8  12
ATOM      9  N   UNL     1      -8.211 -10.278  -3.230  0.00  0.00    +0.381 N 
ATOM     10  C   UNL     1      -7.527  -9.900  -4.475  0.00  0.00    -0.063 C 
ATOM     11  C   UNL     1      -6.109  -9.426  -4.152  0.00  0.00    +0.066 C 
ATOM     12  N   UNL     1      -6.174  -8.288  -3.224  0.00  0.00    -0.306 NA
ATOM     13  C   UNL     1      -6.857  -8.666  -1.979  0.00  0.00    +0.066 C 
ATOM     14  C   UNL     1      -8.276  -9.140  -2.303  0.00  0.00    -0.063 C 
ATOM     15  H   UNL     1      -7.624 -11.075  -2.749  0.00  0.00    -0.082 HD
BRANCH   9  17
ATOM     16  C   UNL     1     -10.132 -11.420  -2.228  0.00  0.00    -0.017 C 
ATOM     17  C   UNL     1      -9.552 -10.810  -3.506  0.00  0.00    -0.082 C 
ENDBRANCH   9  17
ENDBRANCH   8  12
ENDBRANCH   7   8
ENDBRANCH   6   7
ENDBRANCH   2   6
ENDBRANCH   1   3
BRANCH   1  18
ATOM     18  N   UNL     1      -1.538  -1.821  -0.225  0.00  0.00    -0.300 N 
ATOM     19  C   UNL     1      -1.642  -0.494  -0.011  0.00  0.00    +0.245 C 
ATOM     20  O   UNL     1      -2.685  -0.024   0.398  0.00  0.00    -0.270 OA
ATOM     21  H   UNL     1      -0.593  -2.246  -0.596  0.00  0.00    +0.150 HD
BRANCH  19  22
ATOM     22  C   UNL     1      -0.485   0.390  -0.272  0.00  0.00    +0.037 A 
ATOM     23  C   UNL     1      -0.589   1.764  -0.051  0.00  0.00    +0.013 A 
ATOM     24  C   UNL     1       0.493   2.583  -0.297  0.00  0.00    +0.005 A 
ATOM     25  C   UNL     1       1.680   2.045  -0.762  0.00  0.00    -0.041 A 
ATOM     26  C   UNL     1       1.790   0.683  -0.983  0.00  0.00    +0.005 A 
ATOM     27  C   UNL     1       0.715  -0.147  -0.741  0.00  0.00    +0.013 A 
BRANCH  25  28
ATOM     28  C   UNL     1       2.858   2.946  -1.028  0.00  0.00    -0.003 C 
ATOM     29  C   UNL     1       3.258   2.840  -2.502  0.00  0.00    +0.015 C 
ATOM     30  C   UNL     1       4.454   3.754  -2.772  0.00  0.00    -0.010 C 
ATOM     31  C   UNL     1       4.074   5.200  -2.450  0.00  0.00    +0.007 C 
ATOM     32  C   UNL     1       3.674   5.306  -0.977  0.00  0.00    -0.010 C 
ATOM     33  C   UNL     1       2.478   4.392  -0.706  0.00  0.00    +0.015 C 
ATOM     34  C   UNL     1       4.851   4.880  -0.097  0.00  0.00    +0.007 C 
ATOM     35  C   UNL     1       5.232   3.434  -0.420  0.00  0.00    -0.010 C 
ATOM     36  C   UNL     1       5.631   3.328  -1.893  0.00  0.00    +0.007 C 
ATOM     37  C   UNL     1       4.035   2.519  -0.149  0.00  0.00    +0.015 C 
ENDBRANCH  25  28
ENDBRANCH  19  22
ENDBRANCH   1  18
BRANCH   1  38
ATOM     38  C   UNL     1      -2.703  -3.086   1.513  0.00  0.00    +0.012 C 
ATOM     39  C   UNL     1      -2.869  -1.829   2.370  0.00  0.00    +0.009 C 
ATOM     40  C   UNL     1      -3.872  -4.038   1.775  0.00  0.00    +0.009 C 
ENDBRANCH   1  38
TORSDOF 10
