REMARK  Name = ZINC34900163
REMARK  5 active torsions:
REMARK  status: ('A' for Active; 'I' for Inactive)
REMARK    1  A    between atoms: C_3  and  C_6
REMARK    2  A    between atoms: C_12  and  C_15
REMARK    3  A    between atoms: N_17  and  C_18
REMARK    4  A    between atoms: C_24  and  N_26
REMARK    5  A    between atoms: C_27  and  C_29
REMARK                            x       y       z     vdW  Elec       q    Type
REMARK                         _______ _______ _______ _____ _____    ______ ____
ROOT
ATOM      1  C   UNL     1       7.627  -1.776   0.840  0.00  0.00    +0.218 C 
ATOM      2  O   UNL     1       8.101  -2.872   0.623  0.00  0.00    -0.275 OA
ATOM      3  N   UNL     1       8.439  -0.713   1.006  0.00  0.00    -0.310 N 
ATOM      4  H   UNL     1       8.060   0.164   1.179  0.00  0.00    +0.149 HD
ENDROOT
BRANCH   1  11
ATOM      5  C   UNL     1       3.561   0.619  -0.029  0.00  0.00    +0.282 C 
ATOM      6  O   UNL     1       2.353   0.644   0.118  0.00  0.00    -0.267 OA
ATOM      7  N   UNL     1       4.201  -0.561  -0.143  0.00  0.00    -0.294 N 
ATOM      8  C   UNL     1       3.445  -1.815  -0.260  0.00  0.00    +0.108 C 
ATOM      9  C   UNL     1       3.933  -2.788   0.819  0.00  0.00    +0.020 C 
ATOM     10  C   UNL     1       5.450  -2.955   0.701  0.00  0.00    +0.016 C 
ATOM     11  C   UNL     1       6.133  -1.604   0.923  0.00  0.00    +0.092 C 
ATOM     12  C   UNL     1       5.670  -0.618  -0.160  0.00  0.00    +0.121 C 
BRANCH   5  15
ATOM     13  C   UNL     1       4.891   4.019   0.000  0.00  0.00    +0.042 A 
ATOM     14  C   UNL     1       3.824   3.122   0.163  0.00  0.00    +0.054 A 
ATOM     15  C   UNL     1       4.319   1.873  -0.082  0.00  0.00    +0.189 A 
ATOM     16  O   UNL     1       5.629   1.995  -0.381  0.00  0.00    -0.458 OA
ATOM     17  C   UNL     1       5.978   3.288  -0.333  0.00  0.00    +0.196 A 
ENDBRANCH   5  15
ENDBRANCH   1  11
BRANCH   3  18
ATOM     18  C   UNL     1       9.892  -0.880   0.924  0.00  0.00    +0.093 C 
ATOM     19  C   UNL     1      10.432  -1.319   2.287  0.00  0.00    +0.024 C 
ATOM     20  C   UNL     1      11.949  -1.494   2.201  0.00  0.00    +0.002 C 
ATOM     21  C   UNL     1      12.594  -0.165   1.801  0.00  0.00    +0.002 C 
ATOM     22  C   UNL     1      12.054   0.274   0.439  0.00  0.00    +0.024 C 
ATOM     23  C   UNL     1      10.536   0.449   0.524  0.00  0.00    +0.093 C 
BRANCH  23  24
ATOM     24  N   UNL     1      10.019   0.869  -0.780  0.00  0.00    -0.307 N 
ATOM     25  C   UNL     1      10.021   2.174  -1.117  0.00  0.00    +0.244 C 
ATOM     26  O   UNL     1      10.451   3.002  -0.338  0.00  0.00    -0.270 OA
ATOM     27  H   UNL     1       9.676   0.209  -1.402  0.00  0.00    +0.149 HD
BRANCH  25  28
ATOM     28  C   UNL     1       9.500   2.599  -2.433  0.00  0.00    +0.037 A 
ATOM     29  C   UNL     1       8.999   1.650  -3.327  0.00  0.00    +0.016 A 
ATOM     30  C   UNL     1       8.514   2.051  -4.553  0.00  0.00    +0.039 A 
ATOM     31  C   UNL     1       8.523   3.394  -4.899  0.00  0.00    +0.123 A 
ATOM     32  C   UNL     1       9.018   4.340  -4.015  0.00  0.00    +0.039 A 
ATOM     33  C   UNL     1       9.500   3.950  -2.784  0.00  0.00    +0.016 A 
ATOM     34  F   UNL     1       8.046   3.781  -6.103  0.00  0.00    -0.205 F 
ENDBRANCH  25  28
ENDBRANCH  23  24
ENDBRANCH   3  18
TORSDOF 5
