REMARK  Name = ZINC39604156
REMARK  11 active torsions:
REMARK  status: ('A' for Active; 'I' for Inactive)
REMARK    1  A    between atoms: C_1  and  C_2
REMARK    2  A    between atoms: C_2  and  O_3
REMARK    3  A    between atoms: O_3  and  C_4
REMARK    4  A    between atoms: C_4  and  C_6
REMARK    5  A    between atoms: C_6  and  C_7
REMARK    6  A    between atoms: C_7  and  N_8
REMARK    7  A    between atoms: C_9  and  C_11
REMARK    8  A    between atoms: C_22  and  C_24
REMARK    9  A    between atoms: C_27  and  O_34
REMARK   10  A    between atoms: C_28  and  C_30
REMARK   11  A    between atoms: O_34  and  C_35
REMARK                            x       y       z     vdW  Elec       q    Type
REMARK                         _______ _______ _______ _____ _____    ______ ____
ROOT
ATOM      1  C   UNL     1       3.378  -6.377   5.507  0.00  0.00    +0.100 C 
ATOM      2  C   UNL     1       2.438  -5.821   6.600  0.00  0.00    +0.121 C 
ATOM      3  N   UNL     1       1.488  -6.925   6.873  0.00  0.00    -0.296 N 
ATOM      4  C   UNL     1       2.321  -8.150   6.824  0.00  0.00    +0.115 C 
ATOM      5  C   UNL     1       3.302  -7.905   5.660  0.00  0.00    -0.004 C 
ATOM      6  C   UNL     1       2.766  -8.538   4.379  0.00  0.00    -0.010 C 
ATOM      7  C   UNL     1       2.752 -10.061   4.535  0.00  0.00    -0.082 C 
ATOM      8  N   UNL     1       4.113 -10.539   4.809  0.00  0.00    +0.379 N 
ATOM      9  C   UNL     1       4.586  -9.998   6.089  0.00  0.00    -0.082 C 
ATOM     10  C   UNL     1       4.677  -8.473   5.999  0.00  0.00    -0.010 C 
ATOM     11  C   UNL     1       0.164  -6.835   7.112  0.00  0.00    +0.247 C 
ATOM     12  O   UNL     1      -0.404  -5.766   6.994  0.00  0.00    -0.270 OA
ATOM     13  H   UNL     1       4.112 -11.547   4.851  0.00  0.00    -0.086 HD
ATOM     14  H   UNL     1       4.729 -10.236   4.069  0.00  0.00    -0.086 HD
ENDROOT
BRANCH  11  15
ATOM     15  C   UNL     1      -0.596  -8.034   7.516  0.00  0.00    +0.038 A 
ATOM     16  C   UNL     1       0.069  -9.130   8.073  0.00  0.00    +0.016 A 
ATOM     17  C   UNL     1      -0.643 -10.247   8.449  0.00  0.00    +0.047 A 
ATOM     18  C   UNL     1      -2.022 -10.285   8.276  0.00  0.00    +0.132 A 
ATOM     19  C   UNL     1      -2.687  -9.197   7.723  0.00  0.00    +0.097 A 
ATOM     20  C   UNL     1      -1.982  -8.074   7.349  0.00  0.00    +0.029 A 
BRANCH  19  21
ATOM     21  C   UNL     1      -4.181  -9.243   7.537  0.00  0.00    +0.421 C 
ATOM     22  F   UNL     1      -4.618  -8.042   6.968  0.00  0.00    -0.166 F 
ATOM     23  F   UNL     1      -4.514 -10.308   6.693  0.00  0.00    -0.166 F 
ATOM     24  F   UNL     1      -4.800  -9.423   8.779  0.00  0.00    -0.166 F 
ENDBRANCH  19  21
BRANCH  18  25
ATOM     25  O   UNL     1      -2.720 -11.387   8.648  0.00  0.00    -0.495 OA
ATOM     26  C   UNL     1      -1.975 -12.469   9.209  0.00  0.00    +0.277 C 
ENDBRANCH  18  25
ENDBRANCH  11  15
BRANCH   1  28
ATOM     27  N   UNL     1       3.764  -5.906   3.110  0.00  0.00    -0.314 N 
ATOM     28  C   UNL     1       2.898  -5.961   4.141  0.00  0.00    +0.218 C 
ATOM     29  O   UNL     1       1.732  -5.676   3.969  0.00  0.00    -0.275 OA
ATOM     30  H   UNL     1       4.697  -6.134   3.247  0.00  0.00    +0.149 HD
BRANCH  27  31
ATOM     31  C   UNL     1       3.297  -5.502   1.781  0.00  0.00    +0.115 C 
BRANCH  31  32
ATOM     32  C   UNL     1       4.470  -5.523   0.800  0.00  0.00    +0.139 C 
BRANCH  32  33
ATOM     33  C   UNL     1       3.990  -5.107  -0.567  0.00  0.00    +0.309 C 
ATOM     34  O   UNL     1       2.828  -4.823  -0.738  0.00  0.00    -0.251 OA
BRANCH  33  35
ATOM     35  O   UNL     1       4.852  -5.052  -1.594  0.00  0.00    -0.465 OA
BRANCH  35  37
ATOM     36  C   UNL     1       5.451  -4.647  -3.900  0.00  0.00    +0.048 C 
ATOM     37  C   UNL     1       4.328  -4.650  -2.861  0.00  0.00    +0.229 C 
ENDBRANCH  35  37
ENDBRANCH  33  35
ENDBRANCH  32  33
ENDBRANCH  31  32
ENDBRANCH  27  31
ENDBRANCH   1  28
TORSDOF 9
