REMARK  Name = ZINC36570583
REMARK  15 active torsions:
REMARK  status: ('A' for Active; 'I' for Inactive)
REMARK    1  A    between atoms: C_1  and  C_2
REMARK    2  A    between atoms: C_2  and  C_3
REMARK    3  A    between atoms: C_3  and  N_4
REMARK    4  A    between atoms: N_4  and  C_5
REMARK    5  A    between atoms: C_5  and  C_7
REMARK    6  A    between atoms: C_5  and  C_16
REMARK    7  A    between atoms: C_10  and  N_13
REMARK    8  A    between atoms: N_13  and  C_14
REMARK    9  A    between atoms: N_13  and  C_15
REMARK   10  A    between atoms: N_18  and  C_19
REMARK   11  A    between atoms: C_19  and  S_20
REMARK   12  A    between atoms: S_20  and  C_23
REMARK   13  A    between atoms: C_26  and  C_29
REMARK   14  A    between atoms: C_30  and  C_32
REMARK   15  A    between atoms: C_33  and  C_34
REMARK                            x       y       z     vdW  Elec       q    Type
REMARK                         _______ _______ _______ _____ _____    ______ ____
ROOT
ATOM      1  C   UNL     1       1.695  -2.764   1.080  0.00  0.00    +0.193 C 
ENDROOT
BRANCH   1   2
ATOM      2  C   UNL     1       2.979  -2.488   1.819  0.00  0.00    -0.018 A 
ATOM      3  C   UNL     1       3.383  -1.184   2.037  0.00  0.00    +0.008 A 
ATOM      4  C   UNL     1       4.560  -0.928   2.714  0.00  0.00    +0.023 A 
ATOM      5  C   UNL     1       5.337  -1.982   3.175  0.00  0.00    +0.029 A 
ATOM      6  C   UNL     1       4.929  -3.291   2.954  0.00  0.00    +0.023 A 
ATOM      7  C   UNL     1       3.748  -3.540   2.281  0.00  0.00    +0.008 A 
BRANCH   5   8
ATOM      8  N   UNL     1       6.528  -1.727   3.860  0.00  0.00    -0.336 N 
ATOM      9  C   UNL     1       6.864  -0.358   4.258  0.00  0.00    +0.129 C 
ATOM     10  C   UNL     1       7.440  -2.828   4.179  0.00  0.00    +0.129 C 
ENDBRANCH   5   8
ENDBRANCH   1   2
BRANCH   1  11
ATOM     11  C   UNL     1       1.891  -2.486  -0.389  0.00  0.00    +0.239 C 
ATOM     12  O   UNL     1       1.238  -1.623  -0.935  0.00  0.00    -0.273 OA
ATOM     13  N   UNL     1       2.792  -3.197  -1.094  0.00  0.00    -0.294 N 
ATOM     14  H   UNL     1       3.315  -3.888  -0.657  0.00  0.00    +0.150 HD
BRANCH  13  15
ATOM     15  C   UNL     1       2.983  -2.928  -2.522  0.00  0.00    +0.278 C 
BRANCH  15  16
ATOM     16  S   UNL     1       4.366  -1.775  -2.740  0.00  0.00    +0.013 S 
ATOM     17  O   UNL     1       4.604  -1.552  -4.123  0.00  0.00    -0.168 OA
ATOM     18  O   UNL     1       4.239  -0.681  -1.842  0.00  0.00    -0.168 OA
BRANCH  16  19
ATOM     19  C   UNL     1       5.784  -2.657  -2.176  0.00  0.00    +0.090 A 
ATOM     20  C   UNL     1       6.159  -2.585  -0.848  0.00  0.00    +0.027 A 
ATOM     21  C   UNL     1       7.271  -3.276  -0.405  0.00  0.00    +0.005 A 
ATOM     22  C   UNL     1       8.008  -4.041  -1.291  0.00  0.00    -0.050 A 
ATOM     23  C   UNL     1       7.632  -4.113  -2.619  0.00  0.00    +0.005 A 
ATOM     24  C   UNL     1       6.517  -3.425  -3.061  0.00  0.00    +0.027 A 
ATOM     25  C   UNL     1       9.220  -4.794  -0.809  0.00  0.00    +0.044 C 
ENDBRANCH  16  19
ENDBRANCH  15  16
ENDBRANCH  13  15
ENDBRANCH   1  11
BRANCH   1  26
ATOM     26  N   UNL     1       0.635  -1.898   1.603  0.00  0.00    -0.275 N 
ATOM     27  C   UNL     1      -0.021  -2.242   2.729  0.00  0.00    +0.292 C 
ATOM     28  O   UNL     1       0.266  -3.272   3.310  0.00  0.00    -0.260 OA
BRANCH  27  29
ATOM     29  C   UNL     1      -1.057  -1.396   3.240  0.00  0.00    -0.003 C 
ATOM     30  C   UNL     1      -1.907  -0.703   3.659  0.00  0.00    -0.057 C 
BRANCH  30  31
ATOM     31  C   UNL     1      -2.943   0.143   4.171  0.00  0.00    +0.025 A 
ATOM     32  C   UNL     1      -3.280   1.324   3.502  0.00  0.00    +0.017 A 
ATOM     33  C   UNL     1      -4.279   2.133   4.001  0.00  0.00    +0.001 A 
ATOM     34  C   UNL     1      -4.947   1.779   5.160  0.00  0.00    +0.000 A 
ATOM     35  C   UNL     1      -4.619   0.612   5.828  0.00  0.00    +0.001 A 
ATOM     36  C   UNL     1      -3.626  -0.210   5.339  0.00  0.00    +0.017 A 
ENDBRANCH  30  31
ENDBRANCH  27  29
BRANCH  26  37
ATOM     37  C   UNL     1       0.289  -0.659   0.903  0.00  0.00    +0.109 C 
BRANCH  37  39
ATOM     38  C   UNL     1      -1.183   0.343  -0.850  0.00  0.00    +0.005 C 
ATOM     39  C   UNL     1      -0.913  -0.908  -0.010  0.00  0.00    +0.016 C 
ENDBRANCH  37  39
ENDBRANCH  26  37
ENDBRANCH   1  26
TORSDOF 11
