REMARK  Name = ZINC28535684
REMARK  5 active torsions:
REMARK  status: ('A' for Active; 'I' for Inactive)
REMARK    1  A    between atoms: C_4  and  C_7
REMARK    2  A    between atoms: C_7  and  S_8
REMARK    3  A    between atoms: S_8  and  C_9
REMARK    4  A    between atoms: N_15  and  N_16
REMARK    5  A    between atoms: N_17  and  C_18
REMARK                            x       y       z     vdW  Elec       q    Type
REMARK                         _______ _______ _______ _____ _____    ______ ____
ROOT
ATOM      1  C   UNL     1      -1.820  -0.317  -0.789  0.00  0.00    +0.210 A 
ATOM      2  N   UNL     1      -2.645   0.680  -0.532  0.00  0.00    -0.121 NA
ATOM      3  N   UNL     1      -3.888   0.490  -0.272  0.00  0.00    -0.126 NA
ATOM      4  C   UNL     1      -4.404  -0.720  -0.237  0.00  0.00    +0.212 A 
ATOM      5  C   UNL     1      -3.569  -1.839  -0.499  0.00  0.00    +0.312 A 
ATOM      6  O   UNL     1      -4.014  -2.974  -0.475  0.00  0.00    -0.262 OA
ATOM      7  N   UNL     1      -2.265  -1.607  -0.775  0.00  0.00    -0.205 N 
ATOM      8  N   UNL     1      -5.757  -0.902   0.054  0.00  0.00    -0.292 N 
ATOM      9  H   UNL     1      -6.159  -1.917   0.189  0.00  0.00    +0.154 HD
ENDROOT
BRANCH   8  10
ATOM     10  C   UNL     1      -6.601   0.205   0.174  0.00  0.00    +0.052 A 
ATOM     11  C   UNL     1      -6.252   1.413  -0.415  0.00  0.00    +0.044 A 
ATOM     12  C   UNL     1      -7.089   2.506  -0.294  0.00  0.00    +0.043 A 
ATOM     13  C   UNL     1      -8.274   2.398   0.412  0.00  0.00    +0.021 A 
ATOM     14  C   UNL     1      -8.625   1.196   1.000  0.00  0.00    +0.023 A 
ATOM     15  C   UNL     1      -7.795   0.097   0.878  0.00  0.00    +0.062 A 
ATOM     16 CL   UNL     1      -8.240  -1.413   1.609  0.00  0.00    -0.082 Cl
ATOM     17 CL   UNL     1      -6.654   4.017  -1.030  0.00  0.00    -0.083 Cl
ENDBRANCH   8  10
BRANCH   7  18
ATOM     18  N   UNL     1      -1.412  -2.642  -1.035  0.00  0.00    -0.293 N 
ATOM     19  H   UNL     1      -1.783  -3.678  -1.021  0.00  0.00    +0.163 HD
ATOM     20  H   UNL     1      -0.354  -2.440  -1.258  0.00  0.00    +0.163 HD
ENDBRANCH   7  18
BRANCH   1  21
ATOM     21  S   UNL     1      -0.128   0.020  -1.145  0.00  0.00    -0.080 S 
BRANCH  21  22
ATOM     22  C   UNL     1      -0.134   1.826  -1.023  0.00  0.00    +0.112 C 
BRANCH  22  26
ATOM     23  C   UNL     1       3.792   3.320  -1.801  0.00  0.00    +0.000 A 
ATOM     24  C   UNL     1       2.896   3.156  -2.841  0.00  0.00    +0.000 A 
ATOM     25  C   UNL     1       1.625   2.672  -2.589  0.00  0.00    +0.004 A 
ATOM     26  C   UNL     1       1.251   2.353  -1.297  0.00  0.00    -0.037 A 
ATOM     27  C   UNL     1       2.145   2.522  -0.257  0.00  0.00    +0.004 A 
ATOM     28  C   UNL     1       3.417   3.001  -0.509  0.00  0.00    +0.000 A 
ENDBRANCH  22  26
ENDBRANCH  21  22
ENDBRANCH   1  21
TORSDOF 5
