REMARK  Name = ZINC35992267
REMARK  11 active torsions:
REMARK  status: ('A' for Active; 'I' for Inactive)
REMARK    1  A    between atoms: C_1  and  C_2
REMARK    2  A    between atoms: C_2  and  O_3
REMARK    3  A    between atoms: O_3  and  C_4
REMARK    4  A    between atoms: C_4  and  C_6
REMARK    5  A    between atoms: C_7  and  C_20
REMARK    6  A    between atoms: N_8  and  C_19
REMARK    7  A    between atoms: C_12  and  C_14
REMARK    8  A    between atoms: C_20  and  N_21
REMARK    9  A    between atoms: N_29  and  C_30
REMARK   10  A    between atoms: C_30  and  C_31
REMARK   11  A    between atoms: C_30  and  C_32
REMARK                            x       y       z     vdW  Elec       q    Type
REMARK                         _______ _______ _______ _____ _____    ______ ____
ROOT
ATOM      1  C   UNL     1       1.340  -2.334  -2.520  0.00  0.00    +0.080 C 
ATOM      2  C   UNL     1       1.625  -3.651  -2.612  0.00  0.00    +0.041 C 
ATOM      3  N   UNL     1       2.337  -4.146  -3.667  0.00  0.00    -0.260 N 
ATOM      4  C   UNL     1       2.800  -3.390  -4.671  0.00  0.00    +0.307 C 
ATOM      5  O   UNL     1       3.425  -3.921  -5.568  0.00  0.00    -0.252 OA
ATOM      6  N   UNL     1       2.596  -2.058  -4.718  0.00  0.00    -0.288 N 
ATOM      7  C   UNL     1       1.832  -1.427  -3.629  0.00  0.00    +0.144 C 
ATOM      8  C   UNL     1       2.611  -5.585  -3.703  0.00  0.00    +0.139 C 
ATOM      9  H   UNL     1       2.940  -1.529  -5.455  0.00  0.00    +0.151 HD
ENDROOT
BRANCH   7  10
ATOM     10  C   UNL     1       2.706  -0.367  -3.009  0.00  0.00    -0.015 A 
ATOM     11  C   UNL     1       2.205   0.896  -2.756  0.00  0.00    +0.013 A 
ATOM     12  C   UNL     1       3.017   1.826  -2.198  0.00  0.00    +0.045 A 
ATOM     13  S   UNL     1       4.544   0.919  -2.013  0.00  0.00    -0.105 S 
ATOM     14  C   UNL     1       3.994  -0.640  -2.687  0.00  0.00    +0.051 A 
ENDBRANCH   7  10
BRANCH   1  15
ATOM     15  C   UNL     1       0.603  -1.821  -1.428  0.00  0.00    +0.339 C 
ATOM     16  O   UNL     1      -0.563  -1.505  -1.576  0.00  0.00    -0.245 OA
BRANCH  15  17
ATOM     17  O   UNL     1       1.192  -1.681  -0.222  0.00  0.00    -0.462 OA
BRANCH  17  19
ATOM     18  C   UNL     1       1.220  -1.070   2.116  0.00  0.00    +0.048 C 
ATOM     19  C   UNL     1       0.387  -1.156   0.836  0.00  0.00    +0.229 C 
ENDBRANCH  17  19
ENDBRANCH  15  17
ENDBRANCH   1  15
BRANCH   2  20
ATOM     20  C   UNL     1       1.151  -4.590  -1.533  0.00  0.00    +0.136 C 
BRANCH  20  21
ATOM     21  N   UNL     1       0.181  -5.537  -2.099  0.00  0.00    -0.294 NA
ATOM     22  C   UNL     1      -1.040  -4.844  -2.532  0.00  0.00    +0.104 C 
ATOM     23  C   UNL     1      -1.946  -5.830  -3.278  0.00  0.00    +0.124 C 
ATOM     24  N   UNL     1      -2.167  -7.003  -2.418  0.00  0.00    -0.283 N 
ATOM     25  C   UNL     1      -0.994  -7.669  -1.834  0.00  0.00    +0.124 C 
ATOM     26  C   UNL     1      -0.126  -6.611  -1.145  0.00  0.00    +0.104 C 
ATOM     27  C   UNL     1      -3.413  -7.455  -2.172  0.00  0.00    +0.302 C 
ATOM     28  O   UNL     1      -4.365  -6.949  -2.735  0.00  0.00    -0.253 OA
ATOM     29  N   UNL     1      -3.604  -8.467  -1.303  0.00  0.00    -0.297 N 
ATOM     30  H   UNL     1      -2.841  -8.918  -0.910  0.00  0.00    +0.150 HD
BRANCH  29  31
ATOM     31  C   UNL     1      -4.963  -8.884  -0.951  0.00  0.00    +0.068 C 
ATOM     32  C   UNL     1      -5.477  -9.879  -1.995  0.00  0.00    +0.027 C 
ATOM     33  C   UNL     1      -4.952  -9.551   0.426  0.00  0.00    +0.027 C 
ENDBRANCH  29  31
ENDBRANCH  20  21
ENDBRANCH   2  20
TORSDOF 7
