REMARK  Name = ZINC11865358
REMARK  6 active torsions:
REMARK  status: ('A' for Active; 'I' for Inactive)
REMARK    1  A    between atoms: C_1  and  O_2
REMARK    2  A    between atoms: O_2  and  C_3
REMARK    3  A    between atoms: C_8  and  C_9
REMARK    4  A    between atoms: C_18  and  O_36
REMARK    5  A    between atoms: C_19  and  C_20
REMARK    6  A    between atoms: C_20  and  N_61
REMARK                            x       y       z     vdW  Elec       q    Type
REMARK                         _______ _______ _______ _____ _____    ______ ____
ROOT
ATOM      1  C   UNL     1      -4.627  -1.874   4.085  0.00  0.00    +0.068 A 
ATOM      2  C   UNL     1      -4.525  -0.548   3.807  0.00  0.00    +0.208 A 
ATOM      3  O   UNL     1      -4.455  -0.079   2.559  0.00  0.00    -0.462 OA
ATOM      4  C   UNL     1      -4.480  -0.871   1.468  0.00  0.00    +0.143 A 
ATOM      5  C   UNL     1      -4.583  -2.266   1.607  0.00  0.00    +0.065 A 
ATOM      6  C   UNL     1      -4.663  -2.831   2.966  0.00  0.00    +0.200 A 
ATOM      7  O   UNL     1      -4.754  -4.032   3.155  0.00  0.00    -0.286 OA
ATOM      8  C   UNL     1      -4.608  -3.088   0.479  0.00  0.00    +0.019 A 
ATOM      9  C   UNL     1      -4.531  -2.532  -0.766  0.00  0.00    +0.046 A 
ATOM     10  C   UNL     1      -4.434  -1.150  -0.914  0.00  0.00    +0.122 A 
ATOM     11  C   UNL     1      -4.403  -0.322   0.195  0.00  0.00    +0.020 A 
ENDROOT
BRANCH   1  17
ATOM     12  C   UNL     1      -3.677  -3.138   6.018  0.00  0.00    +0.128 A 
ATOM     13  C   UNL     1      -3.753  -3.573   7.331  0.00  0.00    +0.046 A 
ATOM     14  C   UNL     1      -4.844  -3.236   8.111  0.00  0.00    +0.004 A 
ATOM     15  C   UNL     1      -5.862  -2.458   7.588  0.00  0.00    +0.001 A 
ATOM     16  C   UNL     1      -5.797  -2.014   6.283  0.00  0.00    +0.012 A 
ATOM     17  C   UNL     1      -4.702  -2.348   5.489  0.00  0.00    +0.030 A 
BRANCH  12  19
ATOM     18  C   UNL     1      -1.600  -4.282   5.858  0.00  0.00    +0.277 C 
ATOM     19  O   UNL     1      -2.608  -3.473   5.250  0.00  0.00    -0.494 OA
ENDBRANCH  12  19
ENDBRANCH   1  17
BRANCH  10  20
ATOM     20  O   UNL     1      -4.364  -0.611  -2.158  0.00  0.00    -0.506 OA
ATOM     21  H   UNL     1      -3.463  -0.517  -2.496  0.00  0.00    +0.292 HD
ENDBRANCH  10  20
BRANCH  11  22
ATOM     22  C   UNL     1      -4.292   1.171   0.021  0.00  0.00    -0.036 C 
BRANCH  22  36
ATOM     23  C   UNL     1      -2.203   1.140   1.240  0.00  0.00    -0.073 C 
ATOM     24  C   UNL     1      -0.748   1.589   1.253  0.00  0.00    -0.007 C 
ATOM     25  C   UNL     1      -0.013   1.086   0.008  0.00  0.00    +0.011 C 
ATOM     26  C   UNL     1      -0.773   1.603  -1.219  0.00  0.00    +0.020 C 
ATOM     27  C   UNL     1      -2.194   1.016  -1.180  0.00  0.00    -0.069 C 
ATOM     28  C   UNL     1      -0.901   3.107  -1.127  0.00  0.00    +0.023 A 
ATOM     29  C   UNL     1      -1.021   3.795  -2.293  0.00  0.00    +0.022 A 
ATOM     30  C   UNL     1      -1.206   5.182  -2.285  0.00  0.00    +0.007 A 
ATOM     31  C   UNL     1      -1.283   5.829  -1.086  0.00  0.00    +0.070 A 
ATOM     32  C   UNL     1      -1.152   5.090   0.099  0.00  0.00    +0.251 A 
ATOM     33  O   UNL     1      -1.265   5.651   1.177  0.00  0.00    -0.268 OA
ATOM     34  N   UNL     1      -0.901   3.757   0.061  0.00  0.00    -0.312 N 
ATOM     35  C   UNL     1      -0.621   3.100   1.338  0.00  0.00    +0.126 C 
ATOM     36  N   UNL     1      -2.875   1.587   0.004  0.00  0.00    +0.383 N 
ATOM     37  H   UNL     1      -2.829   2.612  -0.048  0.00  0.00    -0.081 HD
ENDBRANCH  22  36
ENDBRANCH  11  22
TORSDOF 5
