REMARK  Name = ZINC09277294
REMARK  10 active torsions:
REMARK  status: ('A' for Active; 'I' for Inactive)
REMARK    1  A    between atoms: C_7  and  S_24
REMARK    2  A    between atoms: N_9  and  C_10
REMARK    3  A    between atoms: C_10  and  C_11
REMARK    4  A    between atoms: C_11  and  N_12
REMARK    5  A    between atoms: C_13  and  C_15
REMARK    6  A    between atoms: C_18  and  N_21
REMARK    7  A    between atoms: S_24  and  C_25
REMARK    8  A    between atoms: C_25  and  C_26
REMARK    9  A    between atoms: N_28  and  C_29
REMARK   10  A    between atoms: C_32  and  N_35
REMARK                            x       y       z     vdW  Elec       q    Type
REMARK                         _______ _______ _______ _____ _____    ______ ____
ROOT
ATOM      1  C   UNL     1       7.489   0.107  -0.058  0.00  0.00    +0.001 A 
ATOM      2  C   UNL     1       8.258   1.263  -0.049  0.00  0.00    +0.002 A 
ATOM      3  C   UNL     1       7.660   2.504  -0.030  0.00  0.00    +0.026 A 
ATOM      4  C   UNL     1       6.272   2.603  -0.019  0.00  0.00    +0.050 A 
ATOM      5  C   UNL     1       5.498   1.428  -0.024  0.00  0.00    +0.013 A 
ATOM      6  C   UNL     1       6.125   0.181  -0.049  0.00  0.00    +0.011 A 
ATOM      7  C   UNL     1       4.096   1.863  -0.014  0.00  0.00    +0.034 A 
ATOM      8  C   UNL     1       4.102   3.209   0.003  0.00  0.00    +0.101 A 
ATOM      9  N   UNL     1       5.400   3.667   0.000  0.00  0.00    -0.344 N 
ENDROOT
BRANCH   9  10
ATOM     10  C   UNL     1       5.794   5.078   0.016  0.00  0.00    +0.140 C 
BRANCH  10  11
ATOM     11  C   UNL     1       6.043   5.554  -1.417  0.00  0.00    +0.126 C 
BRANCH  11  12
ATOM     12  N   UNL     1       6.438   6.965  -1.401  0.00  0.00    -0.310 N 
ATOM     13  C   UNL     1       6.710   7.602  -2.557  0.00  0.00    +0.244 C 
ATOM     14  O   UNL     1       6.628   7.005  -3.613  0.00  0.00    -0.270 OA
ATOM     15  H   UNL     1       6.503   7.441  -0.558  0.00  0.00    +0.149 HD
BRANCH  13  16
ATOM     16  C   UNL     1       7.108   9.026  -2.541  0.00  0.00    +0.037 A 
ATOM     17  C   UNL     1       7.197   9.715  -1.331  0.00  0.00    +0.015 A 
ATOM     18  C   UNL     1       7.575  11.042  -1.323  0.00  0.00    +0.033 A 
ATOM     19  C   UNL     1       7.853  11.693  -2.511  0.00  0.00    +0.126 A 
ATOM     20  C   UNL     1       7.761  11.017  -3.715  0.00  0.00    +0.033 A 
ATOM     21  C   UNL     1       7.390   9.688  -3.737  0.00  0.00    +0.015 A 
BRANCH  19  22
ATOM     22  N   UNL     1       8.251  13.118  -2.496  0.00  0.00    +0.056 N 
ATOM     23  O   UNL     1       8.496  13.694  -3.541  0.00  0.00    -0.126 OA
ATOM     24  O   UNL     1       8.333  13.716  -1.438  0.00  0.00    -0.126 OA
ENDBRANCH  19  22
ENDBRANCH  13  16
ENDBRANCH  11  12
ENDBRANCH  10  11
ENDBRANCH   9  10
BRANCH   7  25
ATOM     25  S   UNL     1       2.675   0.821  -0.017  0.00  0.00    -0.114 S 
BRANCH  25  26
ATOM     26  C   UNL     1       1.280   1.980   0.007  0.00  0.00    +0.170 C 
BRANCH  26  27
ATOM     27  C   UNL     1      -0.014   1.209   0.007  0.00  0.00    +0.227 C 
ATOM     28  O   UNL     1       0.002  -0.004  -0.008  0.00  0.00    -0.275 OA
ATOM     29  N   UNL     1      -1.191   1.867   0.018  0.00  0.00    -0.285 N 
ATOM     30  H   UNL     1      -1.205   2.833   0.098  0.00  0.00    +0.155 HD
BRANCH  29  31
ATOM     31  C   UNL     1      -2.391   1.155  -0.086  0.00  0.00    +0.034 A 
ATOM     32  C   UNL     1      -3.468   1.704  -0.769  0.00  0.00    +0.025 A 
ATOM     33  C   UNL     1      -4.650   0.997  -0.874  0.00  0.00    +0.034 A 
ATOM     34  C   UNL     1      -4.765  -0.251  -0.290  0.00  0.00    +0.126 A 
ATOM     35  C   UNL     1      -3.696  -0.798   0.395  0.00  0.00    +0.034 A 
ATOM     36  C   UNL     1      -2.510  -0.099   0.499  0.00  0.00    +0.025 A 
BRANCH  34  37
ATOM     37  N   UNL     1      -6.035  -1.003  -0.399  0.00  0.00    +0.056 N 
ATOM     38  O   UNL     1      -6.138  -2.103   0.114  0.00  0.00    -0.126 OA
ATOM     39  O   UNL     1      -6.978  -0.523  -1.003  0.00  0.00    -0.126 OA
ENDBRANCH  34  37
ENDBRANCH  29  31
ENDBRANCH  26  27
ENDBRANCH  25  26
ENDBRANCH   7  25
TORSDOF 10
