REMARK  Name = ZINC63350203
REMARK  11 active torsions:
REMARK  status: ('A' for Active; 'I' for Inactive)
REMARK    1  A    between atoms: C_1  and  C_2
REMARK    2  A    between atoms: C_2  and  C_3
REMARK    3  A    between atoms: C_2  and  O_4
REMARK    4  A    between atoms: O_4  and  C_5
REMARK    5  A    between atoms: C_8  and  C_13
REMARK    6  A    between atoms: C_10  and  O_11
REMARK    7  A    between atoms: O_11  and  C_12
REMARK    8  A    between atoms: C_26  and  C_32
REMARK    9  A    between atoms: C_29  and  C_31
REMARK   10  A    between atoms: C_32  and  O_34
REMARK   11  A    between atoms: O_34  and  C_35
REMARK                            x       y       z     vdW  Elec       q    Type
REMARK                         _______ _______ _______ _____ _____    ______ ____
ROOT
ATOM      1  C   UNL     1      -3.903  -0.530  -5.713  0.00  0.00    +0.134 C 
ATOM      2  C   UNL     1      -3.793  -1.843  -6.495  0.00  0.00    +0.131 C 
ATOM      3  C   UNL     1      -2.306  -2.127  -6.660  0.00  0.00    -0.034 C 
ATOM      4  C   UNL     1      -2.096  -3.336  -6.151  0.00  0.00    -0.001 A 
ATOM      5  C   UNL     1      -0.888  -4.174  -6.083  0.00  0.00    +0.010 A 
ATOM      6  C   UNL     1      -1.028  -5.378  -5.469  0.00  0.00    +0.001 A 
ATOM      7  C   UNL     1      -2.234  -5.827  -4.921  0.00  0.00    +0.002 A 
ATOM      8  C   UNL     1      -3.394  -5.124  -4.942  0.00  0.00    +0.026 A 
ATOM      9  C   UNL     1      -3.374  -3.843  -5.566  0.00  0.00    +0.043 A 
ATOM     10  N   UNL     1      -4.351  -2.971  -5.747  0.00  0.00    -0.375 N 
ATOM     11  C   UNL     1      -1.346  -1.114  -7.234  0.00  0.00    +0.067 C 
ATOM     12  C   UNL     1      -1.575   0.199  -6.464  0.00  0.00    +0.189 C 
ATOM     13  N   UNL     1      -3.016   0.454  -6.353  0.00  0.00    -0.279 N 
ATOM     14  C   UNL     1      -3.533   1.598  -6.843  0.00  0.00    +0.214 C 
ATOM     15  O   UNL     1      -4.710   1.847  -6.689  0.00  0.00    -0.276 OA
ATOM     16  C   UNL     1      -2.648   2.568  -7.583  0.00  0.00    +0.109 C 
ATOM     17  H   UNL     1      -5.268  -3.051  -5.441  0.00  0.00    +0.160 HD
ENDROOT
BRANCH   1  21
ATOM     18  C   UNL     1      -2.682  -1.157  -1.662  0.00  0.00    +0.162 A 
ATOM     19  C   UNL     1      -2.003  -1.779  -2.698  0.00  0.00    +0.050 A 
ATOM     20  C   UNL     1      -2.401  -1.575  -4.006  0.00  0.00    +0.009 A 
ATOM     21  C   UNL     1      -3.475  -0.750  -4.285  0.00  0.00    -0.021 A 
ATOM     22  C   UNL     1      -4.156  -0.126  -3.256  0.00  0.00    +0.055 A 
ATOM     23  C   UNL     1      -3.767  -0.332  -1.942  0.00  0.00    +0.162 A 
BRANCH  23  24
ATOM     24  O   UNL     1      -4.439   0.277  -0.929  0.00  0.00    -0.491 OA
ATOM     25  C   UNL     1      -5.543   1.110  -1.291  0.00  0.00    +0.277 C 
ENDBRANCH  23  24
BRANCH  18  26
ATOM     26  O   UNL     1      -2.292  -1.358  -0.375  0.00  0.00    -0.486 OA
BRANCH  26  28
ATOM     27  C   UNL     1       0.113  -1.202  -0.200  0.00  0.00    +0.051 C 
ATOM     28  C   UNL     1      -1.106  -2.127  -0.168  0.00  0.00    +0.167 C 
ATOM     29  C   UNL     1      -1.181  -2.825   1.191  0.00  0.00    +0.051 C 
ENDBRANCH  26  28
ENDBRANCH  18  26
ENDBRANCH   1  21
BRANCH  12  30
ATOM     30  C   UNL     1      -0.978   0.084  -5.085  0.00  0.00    +0.328 C 
ATOM     31  O   UNL     1      -1.537   0.588  -4.140  0.00  0.00    -0.249 OA
BRANCH  30  32
ATOM     32  O   UNL     1       0.176  -0.578  -4.907  0.00  0.00    -0.467 OA
ATOM     33  C   UNL     1       0.756  -0.532  -3.602  0.00  0.00    +0.280 C 
ENDBRANCH  30  32
ENDBRANCH  12  30
TORSDOF 6
