REMARK  Name = ZINC09873964
REMARK  12 active torsions:
REMARK  status: ('A' for Active; 'I' for Inactive)
REMARK    1  A    between atoms: C_1  and  C_2
REMARK    2  A    between atoms: C_2  and  C_3
REMARK    3  A    between atoms: C_3  and  C_5
REMARK    4  A    between atoms: C_3  and  C_6
REMARK    5  A    between atoms: C_11  and  O_12
REMARK    6  A    between atoms: O_12  and  C_13
REMARK    7  A    between atoms: C_13  and  C_15
REMARK    8  A    between atoms: C_13  and  C_16
REMARK    9  A    between atoms: N_18  and  N_19
REMARK   10  A    between atoms: C_20  and  C_22
REMARK   11  A    between atoms: C_22  and  O_23
REMARK   12  A    between atoms: O_23  and  C_24
REMARK                            x       y       z     vdW  Elec       q    Type
REMARK                         _______ _______ _______ _____ _____    ______ ____
ROOT
ATOM      1  C   UNL     1       5.418  -4.069   0.169  0.00  0.00    +0.270 C 
ATOM      2  O   UNL     1       4.497  -4.839   0.342  0.00  0.00    -0.270 OA
ATOM      3  N   UNL     1       5.201  -2.739   0.217  0.00  0.00    -0.231 N 
ATOM      4  H   UNL     1       5.937  -2.123   0.079  0.00  0.00    +0.173 HD
ENDROOT
BRANCH   3   5
ATOM      5  N   UNL     1       3.913  -2.248   0.466  0.00  0.00    -0.231 N 
ATOM      6  C   UNL     1       3.697  -0.918   0.514  0.00  0.00    +0.267 C 
ATOM      7  O   UNL     1       4.617  -0.147   0.342  0.00  0.00    -0.271 OA
ATOM      8  H   UNL     1       3.177  -2.864   0.604  0.00  0.00    +0.173 HD
BRANCH   6   9
ATOM      9  C   UNL     1       2.312  -0.389   0.782  0.00  0.00    +0.326 C 
BRANCH   9  10
ATOM     10  O   UNL     1       2.339   1.040   0.784  0.00  0.00    -0.482 OA
BRANCH  10  11
ATOM     11  C   UNL     1       1.162   1.679   1.012  0.00  0.00    +0.135 A 
ATOM     12  C   UNL     1       0.004   0.947   1.230  0.00  0.00    +0.048 A 
ATOM     13  C   UNL     1      -1.192   1.599   1.456  0.00  0.00    +0.023 A 
ATOM     14  C   UNL     1      -1.236   2.982   1.477  0.00  0.00    +0.042 A 
ATOM     15  C   UNL     1      -0.083   3.715   1.260  0.00  0.00    +0.039 A 
ATOM     16  C   UNL     1       1.116   3.066   1.027  0.00  0.00    +0.061 A 
ATOM     17 BR   UNL     1       2.692   4.068   0.730  0.00  0.00    -0.046 Br
ATOM     18 CL   UNL     1      -2.740   3.798   1.768  0.00  0.00    -0.084 Cl
ENDBRANCH  10  11
ENDBRANCH   9  10
ENDBRANCH   6   9
ENDBRANCH   3   5
BRANCH   1  19
ATOM     19  C   UNL     1       6.803  -4.598  -0.099  0.00  0.00    +0.257 C 
ATOM     20  C   UNL     1       7.728  -4.212   1.057  0.00  0.00    +0.062 C 
BRANCH  19  21
ATOM     21  O   UNL     1       6.755  -6.021  -0.216  0.00  0.00    -0.480 OA
BRANCH  21  27
ATOM     22  C   UNL     1       7.689  -7.976  -1.198  0.00  0.00    -0.003 A 
ATOM     23  C   UNL     1       8.691  -8.576  -1.937  0.00  0.00    +0.007 A 
ATOM     24  C   UNL     1       9.741  -7.820  -2.422  0.00  0.00    +0.001 A 
ATOM     25  C   UNL     1       9.792  -6.461  -2.171  0.00  0.00    +0.004 A 
ATOM     26  C   UNL     1       8.791  -5.856  -1.437  0.00  0.00    +0.046 A 
ATOM     27  C   UNL     1       7.739  -6.614  -0.943  0.00  0.00    +0.125 A 
BRANCH  22  28
ATOM     28  C   UNL     1       6.545  -8.802  -0.668  0.00  0.00    +0.019 C 
ATOM     29  C   UNL     1       5.802  -9.452  -1.836  0.00  0.00    +0.012 C 
BRANCH  28  31
ATOM     30  C   UNL     1       5.921 -10.648   0.895  0.00  0.00    +0.004 C 
ATOM     31  C   UNL     1       7.088  -9.890   0.261  0.00  0.00    +0.004 C 
ENDBRANCH  28  31
ENDBRANCH  22  28
ENDBRANCH  21  27
ENDBRANCH  19  21
ENDBRANCH   1  19
TORSDOF 9
