REMARK  Name = ZINC39916402
REMARK  10 active torsions:
REMARK  status: ('A' for Active; 'I' for Inactive)
REMARK    1  A    between atoms: C_1  and  C_2
REMARK    2  A    between atoms: C_3  and  C_33
REMARK    3  A    between atoms: C_4  and  N_8
REMARK    4  A    between atoms: C_11  and  C_18
REMARK    5  A    between atoms: C_13  and  C_16
REMARK    6  A    between atoms: C_14  and  N_15
REMARK    7  A    between atoms: C_21  and  O_24
REMARK    8  A    between atoms: O_24  and  C_25
REMARK    9  A    between atoms: C_29  and  C_31
REMARK   10  A    between atoms: C_29  and  C_32
REMARK                            x       y       z     vdW  Elec       q    Type
REMARK                         _______ _______ _______ _____ _____    ______ ____
ROOT
ATOM      1  N   UNL     1      -0.954  -2.918  -1.213  0.00  0.00    -0.263 N 
ATOM      2  C   UNL     1      -1.855  -3.944  -1.113  0.00  0.00    +0.022 C 
ATOM      3  C   UNL     1      -1.961  -4.865  -2.094  0.00  0.00    +0.025 C 
ATOM      4  C   UNL     1      -1.091  -4.790  -3.324  0.00  0.00    +0.097 C 
ATOM      5  C   UNL     1      -0.489  -3.425  -3.479  0.00  0.00    +0.077 C 
ATOM      6  C   UNL     1      -0.444  -2.553  -2.436  0.00  0.00    +0.104 C 
ATOM      7  C   UNL     1      -2.881  -5.923  -1.998  0.00  0.00    +0.162 C 
ATOM      8  O   UNL     1      -2.963  -6.726  -2.907  0.00  0.00    -0.292 OA
ATOM      9  C   UNL     1      -3.766  -6.081  -0.792  0.00  0.00    +0.086 C 
ATOM     10  C   UNL     1      -3.060  -5.476   0.426  0.00  0.00    -0.023 C 
ATOM     11  C   UNL     1      -2.726  -4.015   0.117  0.00  0.00    +0.058 C 
ATOM     12  C   UNL     1      -3.985  -5.546   1.643  0.00  0.00    +0.011 C 
ATOM     13  C   UNL     1      -1.771  -6.249   0.710  0.00  0.00    +0.011 C 
ENDROOT
BRANCH   1  17
ATOM     14  C   UNL     1      -0.316   1.531   0.097  0.00  0.00    +0.068 C 
ATOM     15  C   UNL     1      -0.176   0.031   0.043  0.00  0.00    +0.068 C 
ATOM     16  C   UNL     1      -1.210  -0.841   0.072  0.00  0.00    +0.027 C 
ATOM     17  C   UNL     1      -0.534  -2.200  -0.007  0.00  0.00    +0.253 C 
ATOM     18  N   UNL     1       0.895  -1.851  -0.074  0.00  0.00    -0.159 NA
ATOM     19  N   UNL     1       0.990  -0.623  -0.047  0.00  0.00    -0.157 NA
BRANCH  16  20
ATOM     20  C   UNL     1      -2.649  -0.544   0.160  0.00  0.00    -0.016 A 
ATOM     21  C   UNL     1      -3.379  -0.932   1.288  0.00  0.00    +0.010 A 
ATOM     22  C   UNL     1      -4.726  -0.650   1.363  0.00  0.00    +0.020 A 
ATOM     23  C   UNL     1      -5.357   0.015   0.325  0.00  0.00    +0.041 A 
ATOM     24  C   UNL     1      -4.641   0.401  -0.797  0.00  0.00    +0.020 A 
ATOM     25  C   UNL     1      -3.292   0.131  -0.883  0.00  0.00    +0.010 A 
ATOM     26 CL   UNL     1      -7.054   0.365   0.428  0.00  0.00    -0.084 Cl
ENDBRANCH  16  20
ENDBRANCH   1  17
BRANCH   4  27
ATOM     27  C   UNL     1       0.015  -5.807  -3.209  0.00  0.00    -0.034 A 
ATOM     28  C   UNL     1       0.905  -5.742  -2.153  0.00  0.00    +0.008 A 
ATOM     29  C   UNL     1       1.921  -6.672  -2.046  0.00  0.00    +0.046 A 
ATOM     30  C   UNL     1       2.046  -7.673  -2.998  0.00  0.00    +0.120 A 
ATOM     31  C   UNL     1       1.152  -7.737  -4.056  0.00  0.00    +0.046 A 
ATOM     32  C   UNL     1       0.135  -6.807  -4.157  0.00  0.00    +0.008 A 
BRANCH  30  33
ATOM     33  O   UNL     1       3.045  -8.590  -2.895  0.00  0.00    -0.495 OA
ATOM     34  C   UNL     1       3.113  -9.591  -3.912  0.00  0.00    +0.277 C 
ENDBRANCH  30  33
ENDBRANCH   4  27
BRANCH   6  35
ATOM     35  N   UNL     1       0.115  -1.309  -2.603  0.00  0.00    -0.345 N 
ATOM     36  H   UNL     1       0.149  -0.689  -1.857  0.00  0.00    +0.144 HD
ATOM     37  H   UNL     1       0.475  -1.050  -3.465  0.00  0.00    +0.144 HD
ENDBRANCH   6  35
BRANCH   5  38
ATOM     38  C   UNL     1       0.043  -3.030  -4.749  0.00  0.00    +0.099 C 
ATOM     39  N   UNL     1       0.465  -2.717  -5.756  0.00  0.00    -0.191 NA
ENDBRANCH   5  38
TORSDOF 6
