REMARK  Name = ZINC49492040
REMARK  6 active torsions:
REMARK  status: ('A' for Active; 'I' for Inactive)
REMARK    1  A    between atoms: C_1  and  C_2
REMARK    2  A    between atoms: C_10  and  C_12
REMARK    3  A    between atoms: C_12  and  N_13
REMARK    4  A    between atoms: N_13  and  C_14
REMARK    5  A    between atoms: N_13  and  C_15
REMARK    6  A    between atoms: C_15  and  C_16
REMARK                            x       y       z     vdW  Elec       q    Type
REMARK                         _______ _______ _______ _____ _____    ______ ____
ROOT
ATOM      1  C   UNL     1       0.850   2.425   1.773  0.00  0.00    +0.064 C 
ATOM      2  C   UNL     1       1.018   0.953   1.494  0.00  0.00    +0.033 A 
ATOM      3  C   UNL     1       1.431   0.556   0.291  0.00  0.00    +0.070 A 
ATOM      4  S   UNL     1       1.462  -1.219   0.482  0.00  0.00    -0.059 S 
ATOM      5  C   UNL     1       0.914  -1.280   2.174  0.00  0.00    +0.158 A 
ATOM      6  N   UNL     1       0.748   0.042   2.487  0.00  0.00    -0.261 N 
ATOM      7  C   UNL     1       0.325   0.319   3.757  0.00  0.00    +0.259 A 
ATOM      8  O   UNL     1       0.151   1.476   4.105  0.00  0.00    -0.267 OA
ATOM      9  C   UNL     1       0.093  -0.723   4.656  0.00  0.00    +0.093 A 
ATOM     10  C   UNL     1       0.290  -2.028   4.257  0.00  0.00    +0.037 A 
ATOM     11  N   UNL     1       0.693  -2.263   3.011  0.00  0.00    -0.337 N 
ATOM     12  H   UNL     1       0.836  -3.178   2.720  0.00  0.00    +0.168 HD
ENDROOT
BRANCH  10  13
ATOM     13  C   UNL     1       0.045  -3.167   5.212  0.00  0.00    +0.137 C 
BRANCH  13  14
ATOM     14  N   UNL     1      -1.074  -3.983   4.723  0.00  0.00    -0.299 NA
ATOM     15  C   UNL     1      -2.332  -3.224   4.754  0.00  0.00    +0.105 C 
BRANCH  14  16
ATOM     16  C   UNL     1      -1.192  -5.229   5.492  0.00  0.00    +0.088 C 
BRANCH  16  17
ATOM     17  C   UNL     1      -0.097  -6.204   5.055  0.00  0.00    +0.003 C 
ATOM     18  C   UNL     1      -0.353  -6.672   3.608  0.00  0.00    +0.005 C 
ATOM     19  C   UNL     1       0.076  -8.161   3.608  0.00  0.00    +0.000 C 
ATOM     20  C   UNL     1      -0.405  -8.655   4.995  0.00  0.00    +0.000 C 
ATOM     21  C   UNL     1      -0.130  -7.464   5.937  0.00  0.00    +0.005 C 
ENDBRANCH  16  17
ENDBRANCH  14  16
ENDBRANCH  13  14
ENDBRANCH  10  13
TORSDOF 4
