REMARK  Name = ZINC09186835
REMARK  12 active torsions:
REMARK  status: ('A' for Active; 'I' for Inactive)
REMARK    1  A    between atoms: C_1  and  C_2
REMARK    2  A    between atoms: C_2  and  C_3
REMARK    3  A    between atoms: N_11  and  C_12
REMARK    4  A    between atoms: C_12  and  C_14
REMARK    5  A    between atoms: C_19  and  N_20
REMARK    6  A    between atoms: N_20  and  S_21
REMARK    7  A    between atoms: S_21  and  C_24
REMARK    8  A    between atoms: C_27  and  C_30
REMARK    9  A    between atoms: N_31  and  C_32
REMARK   10  A    between atoms: C_32  and  C_33
REMARK   11  A    between atoms: C_33  and  O_35
REMARK   12  A    between atoms: O_35  and  C_36
REMARK                            x       y       z     vdW  Elec       q    Type
REMARK                         _______ _______ _______ _____ _____    ______ ____
ROOT
ATOM      1  C   UNL     1      -7.111  -3.797   1.820  0.00  0.00    +0.271 C 
ATOM      2  O   UNL     1      -6.215  -4.277   2.493  0.00  0.00    -0.268 OA
ENDROOT
BRANCH   1  11
ATOM      3  C   UNL     1      -2.728   1.310   3.874  0.00  0.00    -0.046 A 
ATOM      4  C   UNL     1      -3.577   2.155   3.178  0.00  0.00    +0.006 A 
ATOM      5  C   UNL     1      -4.682   1.671   2.519  0.00  0.00    +0.027 A 
ATOM      6  C   UNL     1      -4.990   0.302   2.544  0.00  0.00    +0.058 A 
ATOM      7  C   UNL     1      -4.116  -0.529   3.261  0.00  0.00    +0.039 A 
ATOM      8  C   UNL     1      -3.008  -0.045   3.914  0.00  0.00    +0.020 A 
ATOM      9  S   UNL     1      -4.829  -2.142   3.057  0.00  0.00    -0.052 S 
ATOM     10  C   UNL     1      -6.191  -1.696   2.080  0.00  0.00    +0.167 A 
ATOM     11  N   UNL     1      -7.139  -2.481   1.583  0.00  0.00    -0.152 NA
ATOM     12  N   UNL     1      -6.054  -0.349   1.947  0.00  0.00    -0.310 N 
BRANCH   3  14
ATOM     13  C   UNL     1      -0.320   1.848   3.634  0.00  0.00    +0.009 C 
ATOM     14  C   UNL     1      -1.519   1.860   4.585  0.00  0.00    +0.032 C 
ENDBRANCH   3  14
BRANCH  12  15
ATOM     15  C   UNL     1      -7.035   0.413   1.171  0.00  0.00    +0.244 C 
BRANCH  15  16
ATOM     16  C   UNL     1      -7.425  -0.372  -0.055  0.00  0.00    +0.327 C 
ATOM     17  O   UNL     1      -6.751  -1.309  -0.412  0.00  0.00    -0.249 OA
BRANCH  16  18
ATOM     18  O   UNL     1      -8.522  -0.032  -0.749  0.00  0.00    -0.467 OA
ATOM     19  C   UNL     1      -8.837  -0.832  -1.919  0.00  0.00    +0.280 C 
ENDBRANCH  16  18
ENDBRANCH  15  16
ENDBRANCH  12  15
ENDBRANCH   1  11
BRANCH   1  20
ATOM     20  C   UNL     1      -8.167  -4.671   1.266  0.00  0.00    +0.061 A 
ATOM     21  C   UNL     1      -9.195  -4.127   0.494  0.00  0.00    +0.015 A 
ATOM     22  C   UNL     1     -10.177  -4.946  -0.020  0.00  0.00    +0.001 A 
ATOM     23  C   UNL     1     -10.149  -6.309   0.225  0.00  0.00    +0.002 A 
ATOM     24  C   UNL     1      -9.139  -6.862   0.986  0.00  0.00    +0.025 A 
ATOM     25  C   UNL     1      -8.139  -6.052   1.507  0.00  0.00    +0.060 A 
BRANCH  25  26
ATOM     26  N   UNL     1      -7.117  -6.607   2.269  0.00  0.00    -0.216 N 
ATOM     27  H   UNL     1      -6.750  -6.115   3.021  0.00  0.00    +0.174 HD
BRANCH  26  28
ATOM     28  S   UNL     1      -6.524  -8.107   1.893  0.00  0.00    +0.072 S 
ATOM     29  O   UNL     1      -5.515  -8.397   2.850  0.00  0.00    -0.150 OA
ATOM     30  O   UNL     1      -7.651  -8.950   1.694  0.00  0.00    -0.150 OA
BRANCH  28  31
ATOM     31  C   UNL     1      -5.715  -7.971   0.333  0.00  0.00    +0.109 A 
ATOM     32  C   UNL     1      -6.423  -8.189  -0.834  0.00  0.00    +0.029 A 
ATOM     33  C   UNL     1      -5.789  -8.078  -2.058  0.00  0.00    +0.005 A 
ATOM     34  C   UNL     1      -4.445  -7.758  -2.114  0.00  0.00    -0.050 A 
ATOM     35  C   UNL     1      -3.736  -7.545  -0.946  0.00  0.00    +0.005 A 
ATOM     36  C   UNL     1      -4.371  -7.652   0.277  0.00  0.00    +0.029 A 
ATOM     37  C   UNL     1      -3.753  -7.643  -3.447  0.00  0.00    +0.044 C 
ENDBRANCH  28  31
ENDBRANCH  26  28
ENDBRANCH  25  26
ENDBRANCH   1  20
TORSDOF 9
