REMARK  Name = ZINC63552605
REMARK  11 active torsions:
REMARK  status: ('A' for Active; 'I' for Inactive)
REMARK    1  A    between atoms: C_1  and  C_2
REMARK    2  A    between atoms: C_2  and  C_3
REMARK    3  A    between atoms: C_3  and  C_5
REMARK    4  A    between atoms: C_3  and  N_6
REMARK    5  A    between atoms: C_11  and  C_21
REMARK    6  A    between atoms: C_21  and  C_22
REMARK    7  A    between atoms: C_22  and  C_23
REMARK    8  A    between atoms: C_23  and  C_24
REMARK    9  A    between atoms: N_26  and  C_27
REMARK   10  A    between atoms: C_27  and  C_28
REMARK   11  A    between atoms: C_28  and  C_29
REMARK                            x       y       z     vdW  Elec       q    Type
REMARK                         _______ _______ _______ _____ _____    ______ ____
ROOT
ATOM      1  N   UNL     1       2.125  -0.091  -1.209  0.00  0.00    -0.262 N 
ATOM      2  C   UNL     1       2.689   0.681  -2.310  0.00  0.00    +0.253 C 
ATOM      3  N   UNL     1       2.052   0.389  -3.604  0.00  0.00    -0.219 NA
ATOM      4  N   UNL     1       3.046  -0.375  -4.376  0.00  0.00    -0.234 NA
ATOM      5  C   UNL     1       4.353   0.170  -3.900  0.00  0.00    +0.158 C 
ATOM      6  N   UNL     1       4.116   0.331  -2.486  0.00  0.00    -0.280 N 
ATOM      7  C   UNL     1       4.950   0.143  -1.387  0.00  0.00    +0.053 A 
ATOM      8  C   UNL     1       6.309   0.272  -1.235  0.00  0.00    +0.031 A 
ATOM      9  C   UNL     1       6.872   0.018  -0.026  0.00  0.00    +0.048 A 
ATOM     10  S   UNL     1       5.577  -0.407   0.963  0.00  0.00    -0.090 S 
ATOM     11  C   UNL     1       4.273  -0.253  -0.210  0.00  0.00    +0.095 A 
ATOM     12  C   UNL     1       2.888  -0.434  -0.136  0.00  0.00    +0.258 C 
ATOM     13  O   UNL     1       2.375  -0.893   0.869  0.00  0.00    -0.269 OA
ATOM     14  H   UNL     1       1.205  -0.144  -3.478  0.00  0.00    +0.144 HD
ATOM     15  H   UNL     1       2.974  -1.362  -4.183  0.00  0.00    +0.143 HD
ENDROOT
BRANCH   1  16
ATOM     16  C   UNL     1       0.718  -0.497  -1.257  0.00  0.00    +0.076 C 
ATOM     17  C   UNL     1       0.625  -2.022  -1.172  0.00  0.00    +0.028 C 
BRANCH  16  19
ATOM     18  C   UNL     1      -0.046   1.649  -0.231  0.00  0.00    +0.006 C 
ATOM     19  C   UNL     1      -0.033   0.126  -0.079  0.00  0.00    +0.019 C 
ENDBRANCH  16  19
ENDBRANCH   1  16
BRANCH   5  20
ATOM     20  C   UNL     1       5.481  -0.832  -4.150  0.00  0.00    +0.040 C 
BRANCH  20  21
ATOM     21  C   UNL     1       5.691  -0.999  -5.656  0.00  0.00    +0.012 C 
BRANCH  21  22
ATOM     22  C   UNL     1       6.820  -2.001  -5.906  0.00  0.00    +0.096 C 
BRANCH  22  23
ATOM     23  C   UNL     1       7.027  -2.165  -7.390  0.00  0.00    +0.213 C 
ATOM     24  O   UNL     1       6.339  -1.542  -8.171  0.00  0.00    -0.276 OA
ATOM     25  N   UNL     1       7.976  -3.005  -7.849  0.00  0.00    -0.315 N 
ATOM     26  H   UNL     1       8.526  -3.503  -7.225  0.00  0.00    +0.149 HD
BRANCH  25  27
ATOM     27  C   UNL     1       8.177  -3.164  -9.292  0.00  0.00    +0.108 C 
BRANCH  27  28
ATOM     28  C   UNL     1       9.306  -4.166  -9.542  0.00  0.00    +0.052 C 
BRANCH  28  29
ATOM     29  C   UNL     1       9.512  -4.330 -11.025  0.00  0.00    -0.040 C 
ATOM     30  C   UNL     1      10.413  -3.681 -11.798  0.00  0.00    -0.001 A 
ATOM     31  C   UNL     1      11.429  -2.665 -11.500  0.00  0.00    +0.010 A 
ATOM     32  C   UNL     1      12.199  -2.192 -12.506  0.00  0.00    +0.001 A 
ATOM     33  C   UNL     1      12.050  -2.646 -13.824  0.00  0.00    +0.002 A 
ATOM     34  C   UNL     1      11.138  -3.577 -14.175  0.00  0.00    +0.026 A 
ATOM     35  C   UNL     1      10.276  -4.144 -13.197  0.00  0.00    +0.043 A 
ATOM     36  N   UNL     1       9.328  -5.045 -13.286  0.00  0.00    -0.380 N 
ATOM     37  C   UNL     1       8.759  -5.260 -11.951  0.00  0.00    +0.144 C 
ATOM     38  H   UNL     1       9.051  -5.497 -14.099  0.00  0.00    +0.160 HD
ENDBRANCH  28  29
ENDBRANCH  27  28
ENDBRANCH  25  27
ENDBRANCH  22  23
ENDBRANCH  21  22
ENDBRANCH  20  21
ENDBRANCH   5  20
TORSDOF 9
