REMARK  Name = ZINC45409066
REMARK  7 active torsions:
REMARK  status: ('A' for Active; 'I' for Inactive)
REMARK    1  A    between atoms: C_1  and  C_2
REMARK    2  A    between atoms: C_2  and  C_3
REMARK    3  A    between atoms: C_2  and  C_4
REMARK    4  A    between atoms: C_4  and  C_6
REMARK    5  A    between atoms: C_4  and  N_13
REMARK    6  A    between atoms: N_16  and  N_17
REMARK    7  A    between atoms: C_18  and  C_20
REMARK                            x       y       z     vdW  Elec       q    Type
REMARK                         _______ _______ _______ _____ _____    ______ ____
ROOT
ATOM      1  N   UNL     1      -2.119  -0.061   1.218  0.00  0.00    -0.291 N 
ATOM      2  C   UNL     1      -2.704   1.153   1.228  0.00  0.00    +0.316 C 
ATOM      3  O   UNL     1      -2.663   1.856   0.237  0.00  0.00    -0.251 OA
ATOM      4  N   UNL     1      -3.335   1.588   2.337  0.00  0.00    -0.218 N 
ATOM      5  H   UNL     1      -2.152  -0.622   2.009  0.00  0.00    +0.151 HD
ATOM      6  H   UNL     1      -3.756   2.461   2.345  0.00  0.00    +0.174 HD
ENDROOT
BRANCH   4   7
ATOM      7  N   UNL     1      -3.382   0.777   3.479  0.00  0.00    -0.228 N 
ATOM      8  C   UNL     1      -4.013   1.212   4.588  0.00  0.00    +0.279 C 
ATOM      9  O   UNL     1      -4.541   2.307   4.598  0.00  0.00    -0.267 OA
ATOM     10  H   UNL     1      -2.961  -0.097   3.472  0.00  0.00    +0.173 HD
BRANCH   8  11
ATOM     11  C   UNL     1      -4.064   0.354   5.797  0.00  0.00    +0.127 A 
ATOM     12  C   UNL     1      -4.729   0.820   6.940  0.00  0.00    +0.034 A 
ATOM     13  C   UNL     1      -4.783   0.041   8.059  0.00  0.00    +0.012 A 
ATOM     14  C   UNL     1      -4.159  -1.220   8.023  0.00  0.00    +0.000 A 
ATOM     15  C   UNL     1      -4.175  -2.075   9.138  0.00  0.00    +0.010 A 
ATOM     16  C   UNL     1      -3.561  -3.287   9.066  0.00  0.00    +0.001 A 
ATOM     17  C   UNL     1      -2.915  -3.695   7.900  0.00  0.00    +0.002 A 
ATOM     18  C   UNL     1      -2.878  -2.895   6.801  0.00  0.00    +0.028 A 
ATOM     19  C   UNL     1      -3.502  -1.633   6.835  0.00  0.00    +0.072 A 
ATOM     20  N   UNL     1      -3.486  -0.831   5.770  0.00  0.00    -0.242 NA
ENDBRANCH   8  11
ENDBRANCH   4   7
BRANCH   1  21
ATOM     21  C   UNL     1      -1.433  -0.534   0.013  0.00  0.00    +0.107 C 
BRANCH  21  22
ATOM     22  C   UNL     1      -1.413  -2.041   0.005  0.00  0.00    -0.027 A 
ATOM     23  C   UNL     1      -1.190  -2.735   1.179  0.00  0.00    +0.007 A 
ATOM     24  C   UNL     1      -1.171  -4.117   1.172  0.00  0.00    +0.020 A 
ATOM     25  C   UNL     1      -1.375  -4.805  -0.011  0.00  0.00    +0.041 A 
ATOM     26  C   UNL     1      -1.598  -4.110  -1.186  0.00  0.00    +0.020 A 
ATOM     27  C   UNL     1      -1.623  -2.728  -1.176  0.00  0.00    +0.007 A 
ATOM     28 CL   UNL     1      -1.351  -6.541  -0.020  0.00  0.00    -0.084 Cl
ENDBRANCH  21  22
BRANCH  21  30
ATOM     29  C   UNL     1      -0.019   1.526   0.010  0.00  0.00    +0.009 C 
ATOM     30  C   UNL     1       0.002  -0.004   0.002  0.00  0.00    +0.008 C 
ATOM     31  C   UNL     1       0.742  -0.511   1.242  0.00  0.00    +0.009 C 
ENDBRANCH  21  30
ENDBRANCH   1  21
TORSDOF 5
