REMARK  Name = ZINC36673973
REMARK  7 active torsions:
REMARK  status: ('A' for Active; 'I' for Inactive)
REMARK    1  A    between atoms: C_4  and  C_7
REMARK    2  A    between atoms: C_7  and  C_8
REMARK    3  A    between atoms: C_8  and  C_10
REMARK    4  A    between atoms: C_8  and  N_23
REMARK    5  A    between atoms: N_12  and  N_13
REMARK    6  A    between atoms: C_14  and  C_16
REMARK    7  A    between atoms: C_24  and  C_26
REMARK                            x       y       z     vdW  Elec       q    Type
REMARK                         _______ _______ _______ _____ _____    ______ ____
ROOT
ATOM      1  C   UNL     1       4.171  -0.963   1.399  0.00  0.00    +0.165 C 
ENDROOT
BRANCH   1   2
ATOM      2  C   UNL     1       5.543  -1.588   1.383  0.00  0.00    +0.250 C 
ATOM      3  O   UNL     1       5.715  -2.683   1.875  0.00  0.00    -0.272 OA
ATOM      4  N   UNL     1       6.577  -0.931   0.823  0.00  0.00    -0.233 N 
ATOM      5  H   UNL     1       6.438  -0.055   0.429  0.00  0.00    +0.173 HD
BRANCH   4   6
ATOM      6  N   UNL     1       7.851  -1.512   0.808  0.00  0.00    -0.230 N 
ATOM      7  C   UNL     1       8.885  -0.854   0.247  0.00  0.00    +0.260 C 
ATOM      8  O   UNL     1       8.712   0.243  -0.246  0.00  0.00    -0.269 OA
ATOM      9  H   UNL     1       7.990  -2.388   1.201  0.00  0.00    +0.173 HD
BRANCH   7  10
ATOM     10  C   UNL     1      10.231  -1.467   0.232  0.00  0.00    +0.040 A 
ATOM     11  C   UNL     1      10.432  -2.730   0.792  0.00  0.00    +0.013 A 
ATOM     12  C   UNL     1      11.689  -3.297   0.774  0.00  0.00    +0.002 A 
ATOM     13  C   UNL     1      12.750  -2.618   0.203  0.00  0.00    +0.020 A 
ATOM     14  C   UNL     1      12.558  -1.365  -0.355  0.00  0.00    +0.042 A 
ATOM     15  C   UNL     1      11.303  -0.789  -0.348  0.00  0.00    +0.033 A 
ATOM     16 CL   UNL     1      13.896  -0.521  -1.069  0.00  0.00    -0.084 Cl
ENDBRANCH   7  10
ENDBRANCH   4   6
ENDBRANCH   1   2
BRANCH   1  17
ATOM     17  N   UNL     1       3.229  -1.870   2.059  0.00  0.00    -0.300 N 
ATOM     18  C   UNL     1       2.116  -1.379   2.640  0.00  0.00    +0.245 C 
ATOM     19  O   UNL     1       1.895  -0.184   2.616  0.00  0.00    -0.270 OA
ATOM     20  H   UNL     1       3.406  -2.823   2.078  0.00  0.00    +0.150 HD
BRANCH  18  21
ATOM     21  C   UNL     1       1.166  -2.293   3.307  0.00  0.00    +0.037 A 
ATOM     22  C   UNL     1       1.420  -3.666   3.341  0.00  0.00    +0.014 A 
ATOM     23  C   UNL     1       0.530  -4.514   3.964  0.00  0.00    +0.021 A 
ATOM     24  C   UNL     1      -0.616  -4.007   4.555  0.00  0.00    +0.041 A 
ATOM     25  C   UNL     1      -0.874  -2.647   4.525  0.00  0.00    +0.021 A 
ATOM     26  C   UNL     1       0.012  -1.788   3.909  0.00  0.00    +0.014 A 
ATOM     27 CL   UNL     1      -1.733  -5.082   5.337  0.00  0.00    -0.084 Cl
ENDBRANCH  18  21
ENDBRANCH   1  17
BRANCH   1  28
ATOM     28  C   UNL     1       3.711  -0.707  -0.038  0.00  0.00    +0.067 C 
BRANCH  28  32
ATOM     29  C   UNL     1      -0.017   1.378   0.010  0.00  0.00    +0.000 A 
ATOM     30  C   UNL     1       1.171   2.086   0.002  0.00  0.00    +0.000 A 
ATOM     31  C   UNL     1       2.377   1.411  -0.013  0.00  0.00    +0.004 A 
ATOM     32  C   UNL     1       2.396   0.029  -0.020  0.00  0.00    -0.045 A 
ATOM     33  C   UNL     1       1.208  -0.679  -0.012  0.00  0.00    +0.004 A 
ATOM     34  C   UNL     1       0.002  -0.004   0.002  0.00  0.00    +0.000 A 
ENDBRANCH  28  32
ENDBRANCH   1  28
TORSDOF 7
