REMARK  Name = ZINC34921880
REMARK  13 active torsions:
REMARK  status: ('A' for Active; 'I' for Inactive)
REMARK    1  A    between atoms: C_1  and  C_2
REMARK    2  A    between atoms: C_2  and  C_3
REMARK    3  A    between atoms: C_3  and  N_4
REMARK    4  A    between atoms: N_4  and  C_5
REMARK    5  A    between atoms: N_4  and  S_26
REMARK    6  A    between atoms: C_5  and  C_6
REMARK    7  A    between atoms: C_8  and  N_15
REMARK    8  A    between atoms: C_11  and  N_12
REMARK    9  A    between atoms: N_12  and  C_13
REMARK   10  A    between atoms: N_12  and  C_14
REMARK   11  A    between atoms: N_15  and  S_16
REMARK   12  A    between atoms: S_16  and  C_19
REMARK   13  A    between atoms: S_26  and  C_29
REMARK                            x       y       z     vdW  Elec       q    Type
REMARK                         _______ _______ _______ _____ _____    ______ ____
ROOT
ATOM      1  C   UNL     1      -0.506  -3.027  -3.297  0.00  0.00    -0.009 A 
ATOM      2  C   UNL     1      -1.165  -2.167  -4.154  0.00  0.00    +0.031 A 
ATOM      3  C   UNL     1      -1.033  -2.321  -5.527  0.00  0.00    +0.048 A 
ATOM      4  C   UNL     1      -0.239  -3.339  -6.040  0.00  0.00    +0.026 A 
ATOM      5  C   UNL     1       0.419  -4.198  -5.183  0.00  0.00    +0.025 A 
ATOM      6  C   UNL     1       0.292  -4.041  -3.809  0.00  0.00    +0.034 A 
ENDROOT
BRANCH   6   7
ATOM      7  N   UNL     1       0.965  -4.909  -2.940  0.00  0.00    -0.336 N 
ATOM      8  C   UNL     1       2.275  -4.536  -2.402  0.00  0.00    +0.129 C 
ATOM      9  C   UNL     1       0.358  -6.190  -2.570  0.00  0.00    +0.129 C 
ENDBRANCH   6   7
BRANCH   3  10
ATOM     10  N   UNL     1      -1.701  -1.450  -6.396  0.00  0.00    -0.216 N 
ATOM     11  H   UNL     1      -2.635  -1.236  -6.245  0.00  0.00    +0.174 HD
BRANCH  10  12
ATOM     12  S   UNL     1      -0.897  -0.783  -7.681  0.00  0.00    +0.072 S 
ATOM     13  O   UNL     1      -0.295  -1.861  -8.386  0.00  0.00    -0.150 OA
ATOM     14  O   UNL     1      -1.800   0.122  -8.300  0.00  0.00    -0.150 OA
BRANCH  12  15
ATOM     15  C   UNL     1       0.419   0.187  -7.026  0.00  0.00    +0.109 A 
ATOM     16  C   UNL     1       0.183   1.487  -6.618  0.00  0.00    +0.031 A 
ATOM     17  C   UNL     1       1.214   2.249  -6.103  0.00  0.00    +0.040 A 
ATOM     18  C   UNL     1       2.485   1.710  -5.996  0.00  0.00    +0.124 A 
ATOM     19  C   UNL     1       2.721   0.408  -6.404  0.00  0.00    +0.040 A 
ATOM     20  C   UNL     1       1.687  -0.353  -6.914  0.00  0.00    +0.031 A 
ATOM     21  F   UNL     1       3.494   2.454  -5.493  0.00  0.00    -0.205 F 
ENDBRANCH  12  15
ENDBRANCH  10  12
ENDBRANCH   3  10
BRANCH   1  22
ATOM     22  C   UNL     1      -0.648  -2.860  -1.806  0.00  0.00    +0.146 C 
BRANCH  22  23
ATOM     23  N   UNL     1      -1.635  -1.816  -1.523  0.00  0.00    -0.172 NA
BRANCH  23  24
ATOM     24  S   UNL     1      -1.138  -0.263  -1.234  0.00  0.00    +0.061 S 
ATOM     25  O   UNL     1       0.073  -0.083  -1.955  0.00  0.00    -0.153 OA
ATOM     26  O   UNL     1      -2.273   0.570  -1.429  0.00  0.00    -0.153 OA
BRANCH  24  27
ATOM     27  C   UNL     1      -0.726  -0.158   0.476  0.00  0.00    +0.106 A 
ATOM     28  C   UNL     1      -1.693   0.191   1.400  0.00  0.00    +0.031 A 
ATOM     29  C   UNL     1      -1.371   0.273   2.741  0.00  0.00    +0.040 A 
ATOM     30  C   UNL     1      -0.078   0.005   3.160  0.00  0.00    +0.124 A 
ATOM     31  C   UNL     1       0.890  -0.344   2.234  0.00  0.00    +0.040 A 
ATOM     32  C   UNL     1       0.564  -0.431   0.893  0.00  0.00    +0.031 A 
ATOM     33  F   UNL     1       0.238   0.086   4.471  0.00  0.00    -0.205 F 
ENDBRANCH  24  27
ENDBRANCH  23  24
BRANCH  23  34
ATOM     34  C   UNL     1      -3.062  -2.145  -1.497  0.00  0.00    +0.109 C 
BRANCH  34  36
ATOM     35  C   UNL     1      -4.930  -3.015  -0.083  0.00  0.00    +0.005 C 
ATOM     36  C   UNL     1      -3.439  -2.671  -0.110  0.00  0.00    +0.014 C 
ENDBRANCH  34  36
ENDBRANCH  23  34
ENDBRANCH  22  23
ENDBRANCH   1  22
TORSDOF 10
