REMARK  Name = ZINC15004909
REMARK  11 active torsions:
REMARK  status: ('A' for Active; 'I' for Inactive)
REMARK    1  A    between atoms: C_1  and  C_2
REMARK    2  A    between atoms: C_5  and  C_7
REMARK    3  A    between atoms: C_7  and  N_8
REMARK    4  A    between atoms: C_15  and  N_19
REMARK    5  A    between atoms: C_24  and  C_25
REMARK    6  A    between atoms: C_24  and  N_66
REMARK    7  A    between atoms: C_28  and  O_34
REMARK    8  A    between atoms: C_29  and  C_33
REMARK    9  A    between atoms: C_30  and  O_31
REMARK   10  A    between atoms: O_31  and  C_32
REMARK   11  A    between atoms: O_34  and  C_35
REMARK                            x       y       z     vdW  Elec       q    Type
REMARK                         _______ _______ _______ _____ _____    ______ ____
ROOT
ATOM      1  N   UNL     1      -0.018   1.465   0.010  0.00  0.00    -0.333 N 
ATOM      2  C   UNL     1       1.348   2.008   0.000  0.00  0.00    +0.086 C 
ATOM      3  C   UNL     1       2.103   1.504   1.232  0.00  0.00    -0.059 C 
ATOM      4  C   UNL     1       0.757  -0.508   1.234  0.00  0.00    -0.059 C 
ATOM      5  C   UNL     1       0.002  -0.004   0.002  0.00  0.00    +0.086 C 
ATOM      6  N   UNL     1       2.135   0.026   1.200  0.00  0.00    +0.384 N 
ATOM      7  H   UNL     1       2.590  -0.279   0.332  0.00  0.00    -0.081 HD
ENDROOT
BRANCH   1  15
ATOM      8  N   UNL     1      -3.617   3.988   0.011  0.00  0.00    -0.228 N 
ATOM      9  C   UNL     1      -3.720   4.043  -1.330  0.00  0.00    +0.254 C 
ATOM     10  O   UNL     1      -4.580   4.633  -1.952  0.00  0.00    -0.270 OA
ATOM     11  C   UNL     1      -2.620   3.250  -1.917  0.00  0.00    +0.051 A 
ATOM     12  C   UNL     1      -2.233   2.942  -3.210  0.00  0.00    +0.014 A 
ATOM     13  C   UNL     1      -1.116   2.148  -3.429  0.00  0.00    +0.003 A 
ATOM     14  C   UNL     1      -0.384   1.660  -2.368  0.00  0.00    +0.024 A 
ATOM     15  C   UNL     1      -0.756   1.958  -1.056  0.00  0.00    +0.043 A 
ATOM     16  C   UNL     1      -1.880   2.751  -0.825  0.00  0.00    +0.070 A 
ATOM     17  C   UNL     1      -2.555   3.252   0.384  0.00  0.00    +0.256 C 
ATOM     18  O   UNL     1      -2.209   3.038   1.529  0.00  0.00    -0.269 OA
BRANCH   8  19
ATOM     19  C   UNL     1      -4.534   4.652   0.940  0.00  0.00    +0.179 C 
BRANCH  19  24
ATOM     20  C   UNL     1      -4.090   9.588   0.255  0.00  0.00    +0.066 C 
ATOM     21  C   UNL     1      -3.775   8.309   0.988  0.00  0.00    +0.046 A 
ATOM     22  C   UNL     1      -2.944   8.310   2.061  0.00  0.00    +0.070 A 
ATOM     23  S   UNL     1      -2.963   6.575   2.492  0.00  0.00    -0.079 S 
ATOM     24  C   UNL     1      -4.033   6.043   1.232  0.00  0.00    +0.096 A 
ATOM     25  N   UNL     1      -4.299   7.164   0.603  0.00  0.00    -0.248 NA
ENDBRANCH  19  24
ENDBRANCH   8  19
ENDBRANCH   1  15
BRANCH   6  26
ATOM     26  C   UNL     1       2.905  -0.488   2.352  0.00  0.00    -0.039 C 
BRANCH  26  27
ATOM     27  C   UNL     1       4.354  -0.112   2.176  0.00  0.00    -0.022 A 
ATOM     28  C   UNL     1       5.253  -1.040   1.685  0.00  0.00    +0.009 A 
ATOM     29  C   UNL     1       6.581  -0.697   1.518  0.00  0.00    +0.046 A 
ATOM     30  C   UNL     1       7.017   0.578   1.853  0.00  0.00    +0.126 A 
ATOM     31  C   UNL     1       6.118   1.509   2.350  0.00  0.00    +0.033 A 
ATOM     32  C   UNL     1       4.785   1.163   2.512  0.00  0.00    +0.128 A 
ATOM     33  C   UNL     1       6.589   2.893   2.715  0.00  0.00    +0.051 C 
BRANCH  32  34
ATOM     34  O   UNL     1       3.901   2.074   3.000  0.00  0.00    -0.495 OA
ATOM     35  C   UNL     1       3.727   2.112   4.418  0.00  0.00    +0.277 C 
ENDBRANCH  32  34
BRANCH  30  36
ATOM     36  O   UNL     1       8.324   0.913   1.692  0.00  0.00    -0.495 OA
ATOM     37  C   UNL     1       9.194  -0.095   1.175  0.00  0.00    +0.277 C 
ENDBRANCH  30  36
ENDBRANCH  26  27
ENDBRANCH   6  26
TORSDOF 7
