REMARK  Name = ZINC61513927
REMARK  5 active torsions:
REMARK  status: ('A' for Active; 'I' for Inactive)
REMARK    1  A    between atoms: C_1  and  C_2
REMARK    2  A    between atoms: C_5  and  O_8
REMARK    3  A    between atoms: O_8  and  C_9
REMARK    4  A    between atoms: C_11  and  O_16
REMARK    5  A    between atoms: O_16  and  C_17
REMARK                            x       y       z     vdW  Elec       q    Type
REMARK                         _______ _______ _______ _____ _____    ______ ____
ROOT
ATOM      1  C   UNL     1      -1.262  -2.894   3.519  0.00  0.00    +0.325 A 
ATOM      2  N   UNL     1      -1.865  -2.526   4.643  0.00  0.00    -0.141 NA
ATOM      3  C   UNL     1      -1.786  -3.298   5.720  0.00  0.00    +0.325 A 
ATOM      4  N   UNL     1      -1.102  -4.436   5.671  0.00  0.00    -0.164 NA
ATOM      5  C   UNL     1      -0.501  -4.801   4.550  0.00  0.00    +0.231 A 
ATOM      6  N   UNL     1      -0.584  -4.036   3.473  0.00  0.00    -0.164 NA
ATOM      7 CL   UNL     1       0.391  -6.289   4.489  0.00  0.00    -0.041 Cl
ENDROOT
BRANCH   3   8
ATOM      8  O   UNL     1      -2.400  -2.925   6.866  0.00  0.00    -0.466 OA
ATOM      9  C   UNL     1      -2.272  -3.804   7.986  0.00  0.00    +0.280 C 
ENDBRANCH   3   8
BRANCH   1  10
ATOM     10  O   UNL     1      -1.341  -2.110   2.420  0.00  0.00    -0.459 OA
BRANCH  10  15
ATOM     11  C   UNL     1      -0.019   1.526   0.010  0.00  0.00    +0.007 C 
ATOM     12  C   UNL     1       0.002  -0.004   0.002  0.00  0.00    -0.014 C 
ATOM     13  C   UNL     1      -1.433  -0.534   0.013  0.00  0.00    +0.007 C 
ATOM     14  C   UNL     1      -1.413  -2.063   0.004  0.00  0.00    +0.045 C 
ATOM     15  C   UNL     1      -0.673  -2.570   1.244  0.00  0.00    +0.177 C 
ATOM     16  C   UNL     1       0.763  -2.041   1.233  0.00  0.00    +0.045 C 
ATOM     17  C   UNL     1       0.742  -0.511   1.242  0.00  0.00    +0.007 C 
ENDBRANCH  10  15
ENDBRANCH   1  10
TORSDOF 3
