REMARK  Name = ZINC16569312
REMARK  11 active torsions:
REMARK  status: ('A' for Active; 'I' for Inactive)
REMARK    1  A    between atoms: C_1  and  C_2
REMARK    2  A    between atoms: C_2  and  C_3
REMARK    3  A    between atoms: C_3  and  C_4
REMARK    4  A    between atoms: C_4  and  C_5
REMARK    5  A    between atoms: C_8  and  C_11
REMARK    6  A    between atoms: N_13  and  C_14
REMARK    7  A    between atoms: N_13  and  C_39
REMARK    8  A    between atoms: C_14  and  C_15
REMARK    9  A    between atoms: C_29  and  C_31
REMARK   10  A    between atoms: C_34  and  O_37
REMARK   11  A    between atoms: O_37  and  C_38
REMARK                            x       y       z     vdW  Elec       q    Type
REMARK                         _______ _______ _______ _____ _____    ______ ____
ROOT
ATOM      1  C   UNL     1      -2.612   3.118  -0.954  0.00  0.00    +0.238 C 
ATOM      2  O   UNL     1      -1.843   3.952  -0.523  0.00  0.00    -0.273 OA
ATOM      3  N   UNL     1      -3.937   3.364  -0.963  0.00  0.00    -0.255 N 
ATOM      4  C   UNL     1      -4.417   4.623  -0.580  0.00  0.00    +0.061 A 
ATOM      5  C   UNL     1      -3.640   5.758  -0.768  0.00  0.00    +0.025 A 
ATOM      6  C   UNL     1      -4.122   6.995  -0.381  0.00  0.00    +0.002 A 
ATOM      7  C   UNL     1      -5.376   7.111   0.190  0.00  0.00    +0.002 A 
ATOM      8  C   UNL     1      -6.162   5.987   0.374  0.00  0.00    +0.028 A 
ATOM      9  C   UNL     1      -5.689   4.749  -0.015  0.00  0.00    +0.068 A 
ATOM     10  N   UNL     1      -6.452   3.582   0.142  0.00  0.00    -0.316 N 
ATOM     11  C   UNL     1      -7.579   3.366   0.860  0.00  0.00    +0.092 A 
ATOM     12  C   UNL     1      -7.935   2.070   0.706  0.00  0.00    +0.020 A 
ATOM     13  C   UNL     1      -6.985   1.466  -0.147  0.00  0.00    +0.025 A 
ATOM     14  C   UNL     1      -6.093   2.406  -0.480  0.00  0.00    +0.049 A 
ATOM     15  C   UNL     1      -4.877   2.306  -1.369  0.00  0.00    +0.159 C 
ENDROOT
BRANCH  15  16
ATOM     16  C   UNL     1      -5.279   2.505  -2.808  0.00  0.00    -0.021 A 
ATOM     17  C   UNL     1      -5.524   3.779  -3.286  0.00  0.00    +0.009 A 
ATOM     18  C   UNL     1      -5.887   3.964  -4.606  0.00  0.00    +0.046 A 
ATOM     19  C   UNL     1      -6.016   2.870  -5.449  0.00  0.00    +0.120 A 
ATOM     20  C   UNL     1      -5.775   1.592  -4.965  0.00  0.00    +0.046 A 
ATOM     21  C   UNL     1      -5.407   1.413  -3.646  0.00  0.00    +0.009 A 
BRANCH  19  22
ATOM     22  O   UNL     1      -6.379   3.049  -6.747  0.00  0.00    -0.495 OA
ATOM     23  C   UNL     1      -6.612   4.392  -7.176  0.00  0.00    +0.277 C 
ENDBRANCH  19  22
ENDBRANCH  15  16
BRANCH   1  24
ATOM     24  C   UNL     1      -2.085   1.808  -1.481  0.00  0.00    +0.204 C 
BRANCH  24  27
ATOM     25  C   UNL     1       0.218   1.745  -2.276  0.00  0.00    +0.247 C 
ATOM     26  O   UNL     1       1.405   1.573  -2.084  0.00  0.00    -0.270 OA
ATOM     27  N   UNL     1      -0.642   1.729  -1.238  0.00  0.00    -0.286 N 
BRANCH  25  31
ATOM     28  C   UNL     1      -1.224   2.397  -6.218  0.00  0.00    -0.047 A 
ATOM     29  C   UNL     1      -0.090   1.630  -6.017  0.00  0.00    +0.004 A 
ATOM     30  C   UNL     1       0.384   1.414  -4.739  0.00  0.00    +0.013 A 
ATOM     31  C   UNL     1      -0.284   1.972  -3.648  0.00  0.00    +0.037 A 
ATOM     32  C   UNL     1      -1.430   2.740  -3.857  0.00  0.00    +0.013 A 
ATOM     33  C   UNL     1      -1.890   2.953  -5.140  0.00  0.00    +0.004 A 
BRANCH  28  34
ATOM     34  C   UNL     1      -1.735   2.628  -7.617  0.00  0.00    +0.035 C 
BRANCH  34  35
ATOM     35  C   UNL     1      -2.727   1.523  -7.986  0.00  0.00    +0.004 C 
BRANCH  35  37
ATOM     36  C   UNL     1      -4.239   0.653  -9.775  0.00  0.00    +0.004 C 
ATOM     37  C   UNL     1      -3.247   1.757  -9.406  0.00  0.00    -0.003 C 
ENDBRANCH  35  37
ENDBRANCH  34  35
ENDBRANCH  28  34
ENDBRANCH  25  31
BRANCH  27  38
ATOM     38  C   UNL     1      -0.134   1.633   0.133  0.00  0.00    +0.077 C 
ATOM     39  C   UNL     1       1.347   1.943   0.361  0.00  0.00    +0.024 C 
ATOM     40  C   UNL     1       0.845   0.500   0.445  0.00  0.00    +0.024 C 
ENDBRANCH  27  38
ENDBRANCH  24  27
ENDBRANCH   1  24
TORSDOF 9
