REMARK  Name = ZINC13031077
REMARK  15 active torsions:
REMARK  status: ('A' for Active; 'I' for Inactive)
REMARK    1  A    between atoms: C_1  and  C_2
REMARK    2  A    between atoms: C_2  and  O_3
REMARK    3  A    between atoms: O_3  and  C_4
REMARK    4  A    between atoms: C_4  and  C_6
REMARK    5  A    between atoms: C_10  and  N_12
REMARK    6  A    between atoms: N_12  and  C_13
REMARK    7  A    between atoms: C_13  and  C_15
REMARK    8  A    between atoms: C_13  and  C_21
REMARK    9  A    between atoms: N_23  and  C_24
REMARK   10  A    between atoms: C_24  and  C_25
REMARK   11  A    between atoms: C_25  and  C_26
REMARK   12  A    between atoms: C_26  and  C_27
REMARK   13  A    between atoms: C_26  and  C_28
REMARK   14  A    between atoms: C_29  and  C_31
REMARK   15  A    between atoms: C_31  and  N_32
REMARK                            x       y       z     vdW  Elec       q    Type
REMARK                         _______ _______ _______ _____ _____    ______ ____
ROOT
ATOM      1  N   UNL     1      -2.476   3.724   1.818  0.00  0.00    -0.254 N 
ATOM      2  C   UNL     1      -1.223   3.342   1.500  0.00  0.00    +0.242 C 
ATOM      3  O   UNL     1      -0.577   2.672   2.278  0.00  0.00    -0.273 OA
ENDROOT
BRANCH   1   8
ATOM      4  C   UNL     1      -4.341   6.418   0.128  0.00  0.00    +0.061 A 
ATOM      5  C   UNL     1      -4.817   5.737  -0.995  0.00  0.00    +0.015 A 
ATOM      6  C   UNL     1      -4.513   4.402  -1.172  0.00  0.00    +0.003 A 
ATOM      7  C   UNL     1      -3.734   3.737  -0.244  0.00  0.00    +0.023 A 
ATOM      8  C   UNL     1      -3.260   4.404   0.879  0.00  0.00    +0.038 A 
ATOM      9  C   UNL     1      -3.559   5.744   1.067  0.00  0.00    +0.038 A 
BRANCH   4  10
ATOM     10  C   UNL     1      -4.663   7.847   0.320  0.00  0.00    +0.339 C 
ATOM     11  O   UNL     1      -4.248   8.437   1.297  0.00  0.00    -0.245 OA
BRANCH  10  12
ATOM     12  O   UNL     1      -5.419   8.495  -0.588  0.00  0.00    -0.461 OA
BRANCH  12  14
ATOM     13  C   UNL     1      -6.560  10.459  -1.465  0.00  0.00    +0.048 C 
ATOM     14  C   UNL     1      -5.696   9.897  -0.335  0.00  0.00    +0.229 C 
ENDBRANCH  12  14
ENDBRANCH  10  12
ENDBRANCH   4  10
ENDBRANCH   1   8
BRANCH   1  15
ATOM     15  C   UNL     1      -3.017   3.427   3.147  0.00  0.00    +0.197 C 
BRANCH  15  16
ATOM     16  C   UNL     1      -4.369   4.076   3.295  0.00  0.00    -0.015 A 
ATOM     17  C   UNL     1      -5.414   3.740   2.447  0.00  0.00    +0.025 A 
ATOM     18  C   UNL     1      -6.641   4.353   2.616  0.00  0.00    +0.111 A 
ATOM     19  N   UNL     1      -6.821   5.253   3.563  0.00  0.00    -0.263 NA
ATOM     20  C   UNL     1      -5.849   5.600   4.383  0.00  0.00    +0.111 A 
ATOM     21  C   UNL     1      -4.596   5.026   4.278  0.00  0.00    +0.025 A 
ENDBRANCH  15  16
BRANCH  15  22
ATOM     22  C   UNL     1      -3.155   1.935   3.311  0.00  0.00    +0.238 C 
ATOM     23  O   UNL     1      -2.833   1.193   2.407  0.00  0.00    -0.273 OA
ATOM     24  N   UNL     1      -3.636   1.426   4.462  0.00  0.00    -0.313 N 
ATOM     25  H   UNL     1      -3.894   2.019   5.185  0.00  0.00    +0.149 HD
BRANCH  24  26
ATOM     26  C   UNL     1      -3.770  -0.024   4.622  0.00  0.00    +0.104 C 
BRANCH  26  27
ATOM     27  C   UNL     1      -4.335  -0.334   6.010  0.00  0.00    +0.022 C 
BRANCH  27  28
ATOM     28  C   UNL     1      -4.475  -1.849   6.177  0.00  0.00    -0.016 C 
ATOM     29  C   UNL     1      -4.921  -2.165   7.606  0.00  0.00    +0.007 C 
ATOM     30  C   UNL     1      -5.517  -2.377   5.188  0.00  0.00    +0.007 C 
ENDBRANCH  27  28
ENDBRANCH  26  27
ENDBRANCH  24  26
ENDBRANCH  15  22
ENDBRANCH   1  15
BRANCH   2  31
ATOM     31  C   UNL     1      -0.625   3.747   0.177  0.00  0.00    +0.242 C 
BRANCH  31  32
ATOM     32  N   UNL     1       0.779   3.330   0.128  0.00  0.00    -0.235 N 
ATOM     33  C   UNL     1       1.870   4.063   0.528  0.00  0.00    +0.090 A 
ATOM     34  C   UNL     1       2.034   5.332   1.074  0.00  0.00    +0.029 A 
ATOM     35  C   UNL     1       3.288   5.786   1.372  0.00  0.00    +0.002 A 
ATOM     36  C   UNL     1       4.403   4.992   1.134  0.00  0.00    +0.002 A 
ATOM     37  C   UNL     1       4.269   3.744   0.599  0.00  0.00    +0.032 A 
ATOM     38  C   UNL     1       2.994   3.255   0.285  0.00  0.00    +0.113 A 
ATOM     39  N   UNL     1       2.556   2.092  -0.239  0.00  0.00    -0.129 NA
ATOM     40  N   UNL     1       1.274   2.104  -0.343  0.00  0.00    -0.064 NA
ENDBRANCH  31  32
ENDBRANCH   2  31
TORSDOF 12
