REMARK  Name = ZINC36584129
REMARK  15 active torsions:
REMARK  status: ('A' for Active; 'I' for Inactive)
REMARK    1  A    between atoms: C_1  and  C_2
REMARK    2  A    between atoms: C_5  and  S_8
REMARK    3  A    between atoms: S_8  and  C_11
REMARK    4  A    between atoms: C_11  and  N_12
REMARK    5  A    between atoms: C_13  and  C_15
REMARK    6  A    between atoms: C_15  and  C_17
REMARK    7  A    between atoms: C_15  and  N_26
REMARK    8  A    between atoms: C_17  and  C_19
REMARK    9  A    between atoms: C_17  and  C_20
REMARK   10  A    between atoms: N_26  and  C_36
REMARK   11  A    between atoms: C_27  and  C_29
REMARK   12  A    between atoms: C_34  and  O_35
REMARK   13  A    between atoms: C_36  and  C_37
REMARK   14  A    between atoms: C_36  and  C_38
REMARK   15  A    between atoms: C_36  and  C_39
REMARK                            x       y       z     vdW  Elec       q    Type
REMARK                         _______ _______ _______ _____ _____    ______ ____
ROOT
ATOM      1  C   UNL     1       2.671  -7.670   5.225  0.00  0.00    +0.170 C 
ENDROOT
BRANCH   1   3
ATOM      2  N   UNL     1       0.903  -8.387   3.650  0.00  0.00    -0.295 N 
ATOM      3  C   UNL     1       2.195  -8.452   4.028  0.00  0.00    +0.235 C 
ATOM      4  O   UNL     1       2.975  -9.141   3.405  0.00  0.00    -0.274 OA
ATOM      5  H   UNL     1       0.266  -7.887   4.185  0.00  0.00    +0.150 HD
BRANCH   2   6
ATOM      6  C   UNL     1       0.460  -9.069   2.432  0.00  0.00    +0.278 C 
BRANCH   6   7
ATOM      7  S   UNL     1      -0.209 -10.700   2.862  0.00  0.00    +0.013 S 
ATOM      8  O   UNL     1       0.663 -11.364   3.766  0.00  0.00    -0.168 OA
ATOM      9  O   UNL     1      -0.680 -11.359   1.694  0.00  0.00    -0.168 OA
BRANCH   7  14
ATOM     10  C   UNL     1      -5.176  -9.540   6.084  0.00  0.00    +0.044 C 
ATOM     11  C   UNL     1      -3.936  -9.829   5.279  0.00  0.00    -0.050 A 
ATOM     12  C   UNL     1      -3.990  -9.818   3.898  0.00  0.00    +0.005 A 
ATOM     13  C   UNL     1      -2.851 -10.084   3.160  0.00  0.00    +0.027 A 
ATOM     14  C   UNL     1      -1.659 -10.360   3.803  0.00  0.00    +0.090 A 
ATOM     15  C   UNL     1      -1.605 -10.371   5.184  0.00  0.00    +0.027 A 
ATOM     16  C   UNL     1      -2.742 -10.101   5.922  0.00  0.00    +0.005 A 
ENDBRANCH   7  14
ENDBRANCH   6   7
ENDBRANCH   2   6
ENDBRANCH   1   3
BRANCH   1  17
ATOM     17  N   UNL     1       4.134  -7.711   5.285  0.00  0.00    -0.280 N 
ATOM     18  C   UNL     1       4.765  -8.873   5.544  0.00  0.00    +0.251 C 
ATOM     19  O   UNL     1       4.279  -9.925   5.177  0.00  0.00    -0.270 OA
BRANCH  18  20
ATOM     20  C   UNL     1       6.047  -8.868   6.275  0.00  0.00    +0.078 A 
ATOM     21  C   UNL     1       7.023  -7.915   5.975  0.00  0.00    +0.017 A 
ATOM     22  C   UNL     1       8.218  -7.915   6.661  0.00  0.00    +0.001 A 
ATOM     23  C   UNL     1       8.457  -8.859   7.647  0.00  0.00    +0.004 A 
ATOM     24  C   UNL     1       7.502  -9.807   7.953  0.00  0.00    +0.046 A 
ATOM     25  C   UNL     1       6.291  -9.817   7.277  0.00  0.00    +0.129 A 
BRANCH  25  26
ATOM     26  O   UNL     1       5.349 -10.745   7.580  0.00  0.00    -0.506 OA
ATOM     27  H   UNL     1       5.421 -11.561   7.066  0.00  0.00    +0.292 HD
ENDBRANCH  25  26
ENDBRANCH  18  20
BRANCH  17  28
ATOM     28  C   UNL     1       4.910  -6.489   5.063  0.00  0.00    +0.030 C 
ATOM     29  C   UNL     1       3.958  -5.314   4.830  0.00  0.00    +0.031 C 
ATOM     30  C   UNL     1       5.778  -6.205   6.291  0.00  0.00    +0.031 C 
ATOM     31  C   UNL     1       5.806  -6.670   3.836  0.00  0.00    +0.031 C 
ENDBRANCH  17  28
ENDBRANCH   1  17
BRANCH   1  32
ATOM     32  C   UNL     1       2.090  -8.285   6.500  0.00  0.00    +0.045 C 
ATOM     33  C   UNL     1       0.565  -8.335   6.394  0.00  0.00    +0.015 C 
BRANCH  32  34
ATOM     34  C   UNL     1       2.484  -7.445   7.687  0.00  0.00    -0.042 A 
ATOM     35  C   UNL     1       1.982  -6.165   7.825  0.00  0.00    +0.004 A 
ATOM     36  C   UNL     1       2.343  -5.394   8.914  0.00  0.00    +0.000 A 
ATOM     37  C   UNL     1       3.206  -5.903   9.866  0.00  0.00    +0.000 A 
ATOM     38  C   UNL     1       3.707  -7.184   9.729  0.00  0.00    +0.000 A 
ATOM     39  C   UNL     1       3.343  -7.957   8.642  0.00  0.00    +0.004 A 
ENDBRANCH  32  34
ENDBRANCH   1  32
TORSDOF 10
