REMARK  Name = ZINC09359611
REMARK  8 active torsions:
REMARK  status: ('A' for Active; 'I' for Inactive)
REMARK    1  A    between atoms: C_1  and  C_2
REMARK    2  A    between atoms: C_2  and  C_3
REMARK    3  A    between atoms: C_3  and  O_4
REMARK    4  A    between atoms: O_4  and  C_5
REMARK    5  A    between atoms: C_8  and  C_11
REMARK    6  A    between atoms: C_18  and  N_32
REMARK    7  A    between atoms: C_19  and  C_30
REMARK    8  A    between atoms: C_20  and  C_22
REMARK                            x       y       z     vdW  Elec       q    Type
REMARK                         _______ _______ _______ _____ _____    ______ ____
ROOT
ATOM      1  C   UNL     1      -6.750  -4.892   0.212  0.00  0.00    +0.100 A 
ATOM      2  C   UNL     1      -6.878  -5.957  -0.684  0.00  0.00    +0.054 A 
ATOM      3  C   UNL     1      -8.153  -6.436  -0.592  0.00  0.00    +0.223 A 
ATOM      4  N   UNL     1      -8.803  -5.698   0.332  0.00  0.00    -0.246 N 
ATOM      5  H   UNL     1      -9.726  -5.812   0.607  0.00  0.00    +0.192 HD
ATOM      6  N   UNL     1      -7.907  -4.739   0.828  0.00  0.00    -0.171 NA
ATOM      7  O   UNL     1      -8.601  -7.475  -1.341  0.00  0.00    -0.423 OA
ATOM      8  C   UNL     1      -7.844  -7.864  -2.386  0.00  0.00    +0.200 C 
ATOM      9  C   UNL     1      -6.566  -7.468  -2.578  0.00  0.00    +0.098 C 
ATOM     10  C   UNL     1      -5.854  -6.543  -1.621  0.00  0.00    +0.103 C 
ENDROOT
BRANCH  10  11
ATOM     11  C   UNL     1      -4.828  -7.317  -0.834  0.00  0.00    -0.015 A 
ATOM     12  C   UNL     1      -5.232  -8.309   0.040  0.00  0.00    +0.006 A 
ATOM     13  C   UNL     1      -4.291  -9.019   0.763  0.00  0.00    +0.002 A 
ATOM     14  C   UNL     1      -2.946  -8.738   0.612  0.00  0.00    +0.021 A 
ATOM     15  C   UNL     1      -2.541  -7.746  -0.263  0.00  0.00    +0.060 A 
ATOM     16  C   UNL     1      -3.482  -7.038  -0.991  0.00  0.00    +0.063 A 
ATOM     17 CL   UNL     1      -2.975  -5.798  -2.095  0.00  0.00    -0.082 Cl
ATOM     18 CL   UNL     1      -0.852  -7.392  -0.452  0.00  0.00    -0.082 Cl
ENDBRANCH  10  11
BRANCH   1  22
ATOM     19  C   UNL     1      -3.243  -2.571   0.856  0.00  0.00    +0.121 A 
ATOM     20  C   UNL     1      -4.005  -2.990   1.938  0.00  0.00    +0.046 A 
ATOM     21  C   UNL     1      -5.143  -3.742   1.732  0.00  0.00    +0.013 A 
ATOM     22  C   UNL     1      -5.527  -4.082   0.437  0.00  0.00    +0.003 A 
ATOM     23  C   UNL     1      -4.760  -3.661  -0.648  0.00  0.00    +0.013 A 
ATOM     24  C   UNL     1      -3.627  -2.904  -0.436  0.00  0.00    +0.046 A 
BRANCH  19  25
ATOM     25  O   UNL     1      -2.123  -1.830   1.061  0.00  0.00    -0.492 OA
BRANCH  25  26
ATOM     26  C   UNL     1      -1.788  -1.524   2.416  0.00  0.00    +0.229 C 
BRANCH  26  28
ATOM     27  C   UNL     1      -0.146  -0.361   3.898  0.00  0.00    +0.007 C 
ATOM     28  C   UNL     1      -0.506  -0.689   2.447  0.00  0.00    +0.038 C 
ENDBRANCH  26  28
ENDBRANCH  25  26
ENDBRANCH  19  25
ENDBRANCH   1  22
BRANCH   8  29
ATOM     29  N   UNL     1      -8.403  -8.710  -3.311  0.00  0.00    -0.328 N 
ATOM     30  H   UNL     1      -9.319  -9.012  -3.200  0.00  0.00    +0.145 HD
ATOM     31  H   UNL     1      -7.884  -9.008  -4.074  0.00  0.00    +0.145 HD
ENDBRANCH   8  29
BRANCH   9  32
ATOM     32  C   UNL     1      -5.861  -7.945  -3.729  0.00  0.00    +0.101 C 
ATOM     33  N   UNL     1      -5.302  -8.323  -4.643  0.00  0.00    -0.191 NA
ENDBRANCH   9  32
TORSDOF 7
