REMARK  Name = ZINC19332356
REMARK  8 active torsions:
REMARK  status: ('A' for Active; 'I' for Inactive)
REMARK    1  A    between atoms: C_9  and  O_32
REMARK    2  A    between atoms: C_10  and  C_11
REMARK    3  A    between atoms: N_12  and  C_24
REMARK    4  A    between atoms: N_15  and  C_16
REMARK    5  A    between atoms: C_16  and  C_17
REMARK    6  A    between atoms: C_22  and  O_23
REMARK    7  A    between atoms: C_24  and  C_25
REMARK    8  A    between atoms: C_30  and  O_31
REMARK                            x       y       z     vdW  Elec       q    Type
REMARK                         _______ _______ _______ _____ _____    ______ ____
ROOT
ATOM      1  C   UNL     1       4.676   0.013  -0.493  0.00  0.00    +0.038 C 
ATOM      2  N   UNL     1       5.488  -1.184  -0.183  0.00  0.00    +0.396 N 
ATOM      3  C   UNL     1       6.404  -0.743   0.903  0.00  0.00    -0.060 C 
ATOM      4  C   UNL     1       5.497   0.203   1.729  0.00  0.00    +0.065 C 
ATOM      5  N   UNL     1       4.673   0.880   0.700  0.00  0.00    -0.309 NA
ATOM      6  H   UNL     1       4.898  -1.937   0.138  0.00  0.00    -0.078 HD
ENDROOT
BRANCH   1  16
ATOM      7  C   UNL     1       1.347   1.067  -4.235  0.00  0.00    +0.001 A 
ATOM      8  C   UNL     1       2.652   1.461  -3.943  0.00  0.00    +0.001 A 
ATOM      9  C   UNL     1       3.294   0.994  -2.837  0.00  0.00    +0.009 A 
ATOM     10  C   UNL     1       2.634   0.101  -1.975  0.00  0.00    -0.012 A 
ATOM     11  C   UNL     1       1.307  -0.300  -2.272  0.00  0.00    -0.017 A 
ATOM     12  C   UNL     1       0.677   0.203  -3.423  0.00  0.00    +0.008 A 
ATOM     13  C   UNL     1       0.646  -1.192  -1.411  0.00  0.00    +0.012 A 
ATOM     14  C   UNL     1       1.284  -1.661  -0.305  0.00  0.00    +0.046 A 
ATOM     15  C   UNL     1       2.593  -1.267  -0.010  0.00  0.00    +0.120 A 
ATOM     16  C   UNL     1       3.265  -0.401  -0.826  0.00  0.00    +0.002 A 
BRANCH  15  17
ATOM     17  O   UNL     1       3.204  -1.751   1.103  0.00  0.00    -0.506 OA
ATOM     18  H   UNL     1       3.619  -2.616   0.979  0.00  0.00    +0.292 HD
ENDBRANCH  15  17
ENDBRANCH   1  16
BRANCH   5  19
ATOM     19  C   UNL     1       3.305   1.105   1.185  0.00  0.00    +0.121 C 
BRANCH  19  20
ATOM     20  C   UNL     1       3.301   2.249   2.165  0.00  0.00    +0.008 A 
ATOM     21  C   UNL     1       3.206   1.999   3.521  0.00  0.00    +0.008 A 
ATOM     22  C   UNL     1       3.202   3.049   4.420  0.00  0.00    +0.001 A 
ATOM     23  C   UNL     1       3.293   4.352   3.966  0.00  0.00    +0.004 A 
ATOM     24  C   UNL     1       3.389   4.608   2.611  0.00  0.00    +0.046 A 
ATOM     25  C   UNL     1       3.398   3.555   1.707  0.00  0.00    +0.121 A 
BRANCH  25  26
ATOM     26  O   UNL     1       3.498   3.804   0.375  0.00  0.00    -0.506 OA
ATOM     27  H   UNL     1       2.653   3.997  -0.054  0.00  0.00    +0.292 HD
ENDBRANCH  25  26
ENDBRANCH  19  20
ENDBRANCH   5  19
BRANCH   2  28
ATOM     28  C   UNL     1       6.258  -1.600  -1.363  0.00  0.00    -0.037 C 
BRANCH  28  29
ATOM     29  C   UNL     1       6.962  -2.900  -1.071  0.00  0.00    -0.022 A 
ATOM     30  C   UNL     1       8.316  -2.907  -0.800  0.00  0.00    +0.005 A 
ATOM     31  C   UNL     1       8.963  -4.099  -0.532  0.00  0.00    +0.000 A 
ATOM     32  C   UNL     1       8.256  -5.287  -0.535  0.00  0.00    +0.004 A 
ATOM     33  C   UNL     1       6.902  -5.286  -0.805  0.00  0.00    +0.045 A 
ATOM     34  C   UNL     1       6.249  -4.090  -1.069  0.00  0.00    +0.118 A 
BRANCH  34  35
ATOM     35  O   UNL     1       4.915  -4.086  -1.329  0.00  0.00    -0.507 OA
ATOM     36  H   UNL     1       4.697  -4.187  -2.266  0.00  0.00    +0.292 HD
ENDBRANCH  34  35
ENDBRANCH  28  29
ENDBRANCH   2  28
TORSDOF 8
