REMARK  Name = ZINC19597362
REMARK  12 active torsions:
REMARK  status: ('A' for Active; 'I' for Inactive)
REMARK    1  A    between atoms: C_1  and  C_2
REMARK    2  A    between atoms: C_2  and  O_3
REMARK    3  A    between atoms: O_3  and  C_4
REMARK    4  A    between atoms: C_4  and  C_6
REMARK    5  A    between atoms: C_7  and  C_22
REMARK    6  A    between atoms: C_9  and  N_21
REMARK    7  A    between atoms: C_10  and  C_19
REMARK    8  A    between atoms: C_11  and  C_13
REMARK    9  A    between atoms: C_22  and  S_23
REMARK   10  A    between atoms: S_23  and  C_24
REMARK   11  A    between atoms: C_25  and  C_35
REMARK   12  A    between atoms: N_32  and  C_34
REMARK                            x       y       z     vdW  Elec       q    Type
REMARK                         _______ _______ _______ _____ _____    ______ ____
ROOT
ATOM      1  C   UNL     1       1.330  -2.341  -2.532  0.00  0.00    +0.088 C 
ATOM      2  C   UNL     1       1.609  -3.650  -2.580  0.00  0.00    +0.128 C 
ATOM      3  O   UNL     1       2.315  -4.189  -3.586  0.00  0.00    -0.444 OA
ATOM      4  C   UNL     1       2.444  -3.522  -4.747  0.00  0.00    +0.198 C 
ATOM      5  C   UNL     1       2.212  -2.189  -4.827  0.00  0.00    +0.098 C 
ATOM      6  C   UNL     1       1.795  -1.405  -3.615  0.00  0.00    +0.105 C 
ENDROOT
BRANCH   6   7
ATOM      7  C   UNL     1       2.969  -0.604  -3.114  0.00  0.00    -0.032 A 
ATOM      8  C   UNL     1       4.136  -1.233  -2.709  0.00  0.00    +0.024 A 
ATOM      9  C   UNL     1       5.192  -0.465  -2.256  0.00  0.00    +0.111 A 
ATOM     10  N   UNL     1       5.098   0.849  -2.205  0.00  0.00    -0.263 NA
ATOM     11  C   UNL     1       4.003   1.481  -2.582  0.00  0.00    +0.111 A 
ATOM     12  C   UNL     1       2.909   0.780  -3.052  0.00  0.00    +0.024 A 
ENDBRANCH   6   7
BRANCH   4  13
ATOM     13  N   UNL     1       2.820  -4.206  -5.877  0.00  0.00    -0.328 N 
ATOM     14  H   UNL     1       2.989  -5.160  -5.832  0.00  0.00    +0.145 HD
ATOM     15  H   UNL     1       2.916  -3.736  -6.719  0.00  0.00    +0.145 HD
ENDBRANCH   4  13
BRANCH   1  16
ATOM     16  C   UNL     1       0.580  -1.829  -1.445  0.00  0.00    +0.339 C 
ATOM     17  O   UNL     1      -0.609  -1.605  -1.578  0.00  0.00    -0.245 OA
BRANCH  16  18
ATOM     18  O   UNL     1       1.183  -1.588  -0.262  0.00  0.00    -0.462 OA
BRANCH  18  20
ATOM     19  C   UNL     1       1.218  -0.865   2.043  0.00  0.00    +0.048 C 
ATOM     20  C   UNL     1       0.365  -1.072   0.790  0.00  0.00    +0.229 C 
ENDBRANCH  18  20
ENDBRANCH  16  18
ENDBRANCH   1  16
BRANCH   5  21
ATOM     21  C   UNL     1       2.362  -1.519  -6.084  0.00  0.00    +0.101 C 
ATOM     22  N   UNL     1       2.481  -0.987  -7.081  0.00  0.00    -0.191 NA
ENDBRANCH   5  21
BRANCH   2  23
ATOM     23  C   UNL     1       1.115  -4.544  -1.472  0.00  0.00    +0.150 C 
BRANCH  23  24
ATOM     24  S   UNL     1      -0.304  -5.508  -2.060  0.00  0.00    -0.097 S 
BRANCH  24  25
ATOM     25  C   UNL     1      -0.758  -6.489  -0.668  0.00  0.00    +0.115 A 
ATOM     26  C   UNL     1      -1.841  -7.383  -0.764  0.00  0.00    +0.084 A 
ATOM     27  C   UNL     1      -2.178  -8.145   0.358  0.00  0.00    +0.028 A 
ATOM     28  C   UNL     1      -1.432  -7.990   1.518  0.00  0.00    -0.011 A 
ATOM     29  C   UNL     1      -0.380  -7.097   1.537  0.00  0.00    +0.048 A 
ATOM     30  N   UNL     1      -0.078  -6.387   0.460  0.00  0.00    -0.244 NA
ATOM     31  C   UNL     1       0.466  -6.907   2.772  0.00  0.00    +0.071 C 
ATOM     32  C   UNL     1      -0.261  -7.468   3.995  0.00  0.00    +0.090 C 
ATOM     33  N   UNL     1      -0.703  -8.838   3.689  0.00  0.00    -0.301 NA
ATOM     34  C   UNL     1      -1.806  -8.811   2.724  0.00  0.00    +0.121 C 
ATOM     35  C   UNL     1      -1.091  -9.551   4.913  0.00  0.00    +0.105 C 
BRANCH  26  36
ATOM     36  C   UNL     1      -2.580  -7.509  -1.984  0.00  0.00    +0.102 C 
ATOM     37  N   UNL     1      -3.167  -7.609  -2.951  0.00  0.00    -0.191 NA
ENDBRANCH  26  36
ENDBRANCH  24  25
ENDBRANCH  23  24
ENDBRANCH   2  23
TORSDOF 10
