REMARK  Name = ZINC39599304
REMARK  9 active torsions:
REMARK  status: ('A' for Active; 'I' for Inactive)
REMARK    1  A    between atoms: C_1  and  O_2
REMARK    2  A    between atoms: O_2  and  C_3
REMARK    3  A    between atoms: C_9  and  C_12
REMARK    4  A    between atoms: C_12  and  C_13
REMARK    5  A    between atoms: C_13  and  N_14
REMARK    6  A    between atoms: C_15  and  C_17
REMARK    7  A    between atoms: C_28  and  C_30
REMARK    8  A    between atoms: C_34  and  O_35
REMARK    9  A    between atoms: O_35  and  C_36
REMARK                            x       y       z     vdW  Elec       q    Type
REMARK                         _______ _______ _______ _____ _____    ______ ____
ROOT
ATOM      1  C   UNL     1      -2.420  -8.486  -0.841  0.00  0.00    +0.100 C 
ATOM      2  C   UNL     1      -1.646  -9.731  -1.330  0.00  0.00    +0.121 C 
ATOM      3  N   UNL     1      -2.635 -10.833  -1.273  0.00  0.00    -0.296 N 
ATOM      4  C   UNL     1      -3.900 -10.217  -1.740  0.00  0.00    +0.115 C 
ATOM      5  C   UNL     1      -3.899  -8.809  -1.112  0.00  0.00    -0.004 C 
ATOM      6  C   UNL     1      -4.489  -7.796  -2.088  0.00  0.00    -0.010 C 
ATOM      7  C   UNL     1      -5.975  -8.102  -2.298  0.00  0.00    -0.082 C 
ATOM      8  N   UNL     1      -6.676  -8.037  -1.010  0.00  0.00    +0.379 N 
ATOM      9  C   UNL     1      -6.165  -9.077  -0.108  0.00  0.00    -0.082 C 
ATOM     10  C   UNL     1      -4.687  -8.812   0.194  0.00  0.00    -0.010 C 
ATOM     11  C   UNL     1      -2.431 -12.107  -0.885  0.00  0.00    +0.251 C 
ATOM     12  O   UNL     1      -1.352 -12.440  -0.432  0.00  0.00    -0.270 OA
ATOM     13  H   UNL     1      -6.528  -7.130  -0.593  0.00  0.00    -0.086 HD
ATOM     14  H   UNL     1      -7.664  -8.179  -1.158  0.00  0.00    -0.086 HD
ENDROOT
BRANCH  11  15
ATOM     15  C   UNL     1      -3.512 -13.096  -1.008  0.00  0.00    +0.087 A 
ATOM     16  C   UNL     1      -4.411 -13.056  -2.053  0.00  0.00    +0.063 A 
ATOM     17  S   UNL     1      -5.433 -14.356  -1.770  0.00  0.00    -0.081 S 
ATOM     18  C   UNL     1      -4.717 -14.997  -0.272  0.00  0.00    +0.120 A 
ATOM     19  C   UNL     1      -3.680 -14.159  -0.044  0.00  0.00    +0.158 A 
ATOM     20 CL   UNL     1      -5.222 -16.368   0.665  0.00  0.00    -0.072 Cl
BRANCH  19  21
ATOM     21  O   UNL     1      -2.851 -14.305   1.026  0.00  0.00    -0.492 OA
ATOM     22  C   UNL     1      -3.219 -13.627   2.229  0.00  0.00    +0.277 C 
ENDBRANCH  19  21
ENDBRANCH  11  15
BRANCH   1  24
ATOM     23  N   UNL     1      -2.209  -6.037  -1.111  0.00  0.00    -0.315 N 
ATOM     24  C   UNL     1      -1.997  -7.267  -1.618  0.00  0.00    +0.218 C 
ATOM     25  O   UNL     1      -1.466  -7.392  -2.701  0.00  0.00    -0.275 OA
ATOM     26  H   UNL     1      -2.634  -5.936  -0.244  0.00  0.00    +0.149 HD
BRANCH  23  27
ATOM     27  C   UNL     1      -1.799  -4.851  -1.867  0.00  0.00    +0.109 C 
BRANCH  27  28
ATOM     28  C   UNL     1      -2.152  -3.592  -1.072  0.00  0.00    +0.056 C 
BRANCH  28  35
ATOM     29  C   UNL     1      -4.206  -1.068  -4.463  0.00  0.00    +0.121 A 
ATOM     30  C   UNL     1      -3.419  -0.002  -4.889  0.00  0.00    +0.047 A 
ATOM     31  C   UNL     1      -2.181   0.224  -4.329  0.00  0.00    +0.030 A 
ATOM     32  C   UNL     1      -1.708  -0.616  -3.327  0.00  0.00    +0.047 A 
ATOM     33  N   UNL     1      -0.542  -0.649  -2.591  0.00  0.00    -0.360 N 
ATOM     34  C   UNL     1      -0.574  -1.701  -1.717  0.00  0.00    +0.087 A 
ATOM     35  C   UNL     1      -1.729  -2.372  -1.850  0.00  0.00    -0.021 A 
ATOM     36  C   UNL     1      -2.501  -1.694  -2.894  0.00  0.00    +0.006 A 
ATOM     37  C   UNL     1      -3.756  -1.911  -3.466  0.00  0.00    +0.056 A 
ATOM     38  H   UNL     1       0.191  -0.020  -2.679  0.00  0.00    +0.165 HD
BRANCH  29  40
ATOM     39  C   UNL     1      -5.833  -0.364  -6.049  0.00  0.00    +0.277 C 
ATOM     40  O   UNL     1      -5.426  -1.277  -5.028  0.00  0.00    -0.495 OA
ENDBRANCH  29  40
ENDBRANCH  28  35
ENDBRANCH  27  28
ENDBRANCH  23  27
ENDBRANCH   1  24
TORSDOF 7
