REMARK  Name = ZINC20567207
REMARK  6 active torsions:
REMARK  status: ('A' for Active; 'I' for Inactive)
REMARK    1  A    between atoms: C_1  and  C_2
REMARK    2  A    between atoms: C_2  and  C_3
REMARK    3  A    between atoms: C_3  and  C_4
REMARK    4  A    between atoms: C_4  and  N_5
REMARK    5  A    between atoms: C_10  and  C_28
REMARK    6  A    between atoms: C_28  and  C_29
REMARK                            x       y       z     vdW  Elec       q    Type
REMARK                         _______ _______ _______ _____ _____    ______ ____
ROOT
ATOM      1  N   UNL     1       1.471  -2.526   2.420  0.00  0.00    -0.242 N 
ATOM      2  C   UNL     1       2.791  -2.744   2.436  0.00  0.00    +0.227 C 
ATOM      3  O   UNL     1       3.541  -2.572   1.499  0.00  0.00    -0.275 OA
ATOM      4  C   UNL     1       3.203  -3.238   3.804  0.00  0.00    +0.107 C 
ATOM      5  C   UNL     1       3.646  -4.713   3.699  0.00  0.00    +0.072 C 
ATOM      6  N   UNL     1       2.973  -5.395   4.835  0.00  0.00    -0.295 NA
ATOM      7  C   UNL     1       1.640  -4.767   4.895  0.00  0.00    +0.136 C 
ATOM      8  C   UNL     1       1.863  -3.265   4.593  0.00  0.00    +0.122 C 
ATOM      9  C   UNL     1       0.852  -2.782   3.578  0.00  0.00    +0.228 C 
ATOM     10  O   UNL     1      -0.336  -2.650   3.781  0.00  0.00    -0.275 OA
ATOM     11  C   UNL     1       0.691  -5.401   3.918  0.00  0.00    +0.006 A 
ATOM     12  C   UNL     1       0.700  -5.552   2.550  0.00  0.00    +0.046 A 
ATOM     13  C   UNL     1      -0.346  -6.204   1.917  0.00  0.00    +0.124 A 
ATOM     14  C   UNL     1      -1.400  -6.701   2.665  0.00  0.00    +0.040 A 
ATOM     15  C   UNL     1      -1.413  -6.550   4.036  0.00  0.00    +0.026 A 
ATOM     16  C   UNL     1      -0.364  -5.896   4.679  0.00  0.00    +0.039 A 
ATOM     17  N   UNL     1      -0.153  -5.622   6.033  0.00  0.00    -0.283 N 
ATOM     18  C   UNL     1       1.002  -4.961   6.243  0.00  0.00    +0.243 C 
ATOM     19  O   UNL     1       1.442  -4.594   7.312  0.00  0.00    -0.273 OA
ATOM     20  F   UNL     1      -0.339  -6.354   0.574  0.00  0.00    -0.205 F 
ATOM     21  H   UNL     1       2.898  -6.388   4.668  0.00  0.00    +0.124 HD
ATOM     22  H   UNL     1      -0.766  -5.878   6.740  0.00  0.00    +0.155 HD
ENDROOT
BRANCH   1  23
ATOM     23  C   UNL     1       0.763  -2.041   1.233  0.00  0.00    +0.116 C 
BRANCH  23  24
ATOM     24  C   UNL     1       0.742  -0.511   1.242  0.00  0.00    +0.019 C 
BRANCH  24  26
ATOM     25  C   UNL     1      -0.019   1.526   0.010  0.00  0.00    +0.004 C 
ATOM     26  C   UNL     1       0.002  -0.004   0.002  0.00  0.00    -0.002 C 
ENDBRANCH  24  26
ENDBRANCH  23  24
ENDBRANCH   1  23
BRANCH   5  27
ATOM     27  C   UNL     1       5.167  -4.823   3.833  0.00  0.00    +0.056 C 
BRANCH  27  28
ATOM     28  C   UNL     1       5.589  -6.251   3.605  0.00  0.00    -0.021 A 
ATOM     29  C   UNL     1       5.790  -7.185   4.548  0.00  0.00    +0.087 A 
ATOM     30  N   UNL     1       6.166  -8.364   3.965  0.00  0.00    -0.360 N 
ATOM     31  H   UNL     1       6.366  -9.183   4.444  0.00  0.00    +0.165 HD
ATOM     32  C   UNL     1       6.218  -8.214   2.597  0.00  0.00    +0.047 A 
ATOM     33  C   UNL     1       5.853  -6.886   2.311  0.00  0.00    +0.003 A 
ATOM     34  C   UNL     1       5.811  -6.444   0.988  0.00  0.00    +0.010 A 
ATOM     35  C   UNL     1       6.122  -7.307  -0.025  0.00  0.00    +0.001 A 
ATOM     36  C   UNL     1       6.479  -8.620   0.251  0.00  0.00    +0.002 A 
ATOM     37  C   UNL     1       6.536  -9.074   1.551  0.00  0.00    +0.026 A 
ENDBRANCH  27  28
ENDBRANCH   5  27
TORSDOF 5
