REMARK  Name = ZINC20986439
REMARK  9 active torsions:
REMARK  status: ('A' for Active; 'I' for Inactive)
REMARK    1  A    between atoms: C_1  and  C_2
REMARK    2  A    between atoms: C_4  and  C_28
REMARK    3  A    between atoms: C_6  and  S_8
REMARK    4  A    between atoms: S_8  and  C_9
REMARK    5  A    between atoms: C_9  and  C_10
REMARK    6  A    between atoms: N_12  and  N_13
REMARK    7  A    between atoms: C_14  and  C_15
REMARK    8  A    between atoms: C_16  and  C_27
REMARK    9  A    between atoms: N_18  and  C_21
REMARK                            x       y       z     vdW  Elec       q    Type
REMARK                         _______ _______ _______ _____ _____    ______ ____
ROOT
ATOM      1  N   UNL     1      -0.966   1.736  -3.578  0.00  0.00    -0.188 NA
ATOM      2  C   UNL     1      -0.530   1.435  -4.763  0.00  0.00    +0.143 C 
ENDROOT
BRANCH   2   3
ATOM      3  C   UNL     1      -1.243   1.924  -5.957  0.00  0.00    +0.054 A 
ATOM      4  C   UNL     1      -0.889   1.679  -7.303  0.00  0.00    +0.070 A 
ATOM      5  N   UNL     1      -1.762   2.277  -8.068  0.00  0.00    -0.170 NA
ATOM      6  N   UNL     1      -2.704   2.925  -7.262  0.00  0.00    -0.221 N 
ATOM      7  C   UNL     1      -2.384   2.700  -5.969  0.00  0.00    +0.142 A 
ATOM      8 CL   UNL     1      -3.246   3.284  -4.580  0.00  0.00    -0.061 Cl
ATOM      9  C   UNL     1       0.291   0.868  -7.773  0.00  0.00    +0.068 C 
BRANCH   6  10
ATOM     10  C   UNL     1      -3.797   3.675  -7.718  0.00  0.00    +0.067 A 
ATOM     11  C   UNL     1      -4.995   3.657  -7.016  0.00  0.00    +0.028 A 
ATOM     12  C   UNL     1      -6.068   4.401  -7.465  0.00  0.00    +0.002 A 
ATOM     13  C   UNL     1      -5.954   5.155  -8.619  0.00  0.00    +0.000 A 
ATOM     14  C   UNL     1      -4.764   5.171  -9.323  0.00  0.00    +0.002 A 
ATOM     15  C   UNL     1      -3.686   4.433  -8.876  0.00  0.00    +0.028 A 
ENDBRANCH   6  10
ENDBRANCH   2   3
BRANCH   1  18
ATOM     16  C   UNL     1      -0.742   1.585  -1.213  0.00  0.00    +0.242 C 
ATOM     17  O   UNL     1      -1.736   2.268  -1.088  0.00  0.00    -0.273 OA
ATOM     18  N   UNL     1      -0.288   1.272  -2.443  0.00  0.00    -0.206 N 
ATOM     19  H   UNL     1       0.614   0.653  -2.556  0.00  0.00    +0.177 HD
BRANCH  16  20
ATOM     20  C   UNL     1      -0.013   1.086   0.008  0.00  0.00    +0.174 C 
BRANCH  20  21
ATOM     21  S   UNL     1      -0.860   1.669   1.497  0.00  0.00    -0.077 S 
BRANCH  21  27
ATOM     22  C   UNL     1       3.211  -1.125   2.844  0.00  0.00    +0.066 C 
ATOM     23  C   UNL     1       2.020  -0.306   3.271  0.00  0.00    +0.043 A 
ATOM     24  C   UNL     1       1.746  -0.116   4.616  0.00  0.00    +0.046 A 
ATOM     25  C   UNL     1       0.640   0.643   4.967  0.00  0.00    +0.043 A 
ATOM     26  N   UNL     1      -0.116   1.161   4.013  0.00  0.00    -0.227 NA
ATOM     27  C   UNL     1       0.174   0.961   2.735  0.00  0.00    +0.189 A 
ATOM     28  N   UNL     1       1.220   0.235   2.367  0.00  0.00    -0.227 NA
ATOM     29  C   UNL     1       0.304   0.876   6.417  0.00  0.00    +0.066 C 
ENDBRANCH  21  27
ENDBRANCH  20  21
ENDBRANCH  16  20
ENDBRANCH   1  18
TORSDOF 6
