REMARK  Name = ZINC40322070
REMARK  7 active torsions:
REMARK  status: ('A' for Active; 'I' for Inactive)
REMARK    1  A    between atoms: C_5  and  C_7
REMARK    2  A    between atoms: C_7  and  C_9
REMARK    3  A    between atoms: C_7  and  N_28
REMARK    4  A    between atoms: C_9  and  N_10
REMARK    5  A    between atoms: C_11  and  C_13
REMARK    6  A    between atoms: C_16  and  S_18
REMARK    7  A    between atoms: S_18  and  C_21
REMARK                            x       y       z     vdW  Elec       q    Type
REMARK                         _______ _______ _______ _____ _____    ______ ____
ROOT
ATOM      1  N   UNL     1       0.438  -2.816  -2.247  0.00  0.00    -0.310 N 
ATOM      2  C   UNL     1       0.489  -3.445  -3.438  0.00  0.00    +0.279 C 
ATOM      3  O   UNL     1       1.492  -4.055  -3.761  0.00  0.00    -0.267 OA
ATOM      4  H   UNL     1      -0.361  -2.331  -1.989  0.00  0.00    +0.149 HD
ENDROOT
BRANCH   2   5
ATOM      5  C   UNL     1      -0.663  -3.395  -4.343  0.00  0.00    +0.192 A 
ATOM      6  C   UNL     1      -0.746  -3.990  -5.570  0.00  0.00    +0.056 A 
ATOM      7  C   UNL     1      -2.017  -3.684  -6.081  0.00  0.00    +0.070 A 
ATOM      8  C   UNL     1      -2.646  -2.927  -5.156  0.00  0.00    +0.246 A 
ATOM      9  O   UNL     1      -1.829  -2.759  -4.108  0.00  0.00    -0.433 OA
BRANCH   8  10
ATOM     10  S   UNL     1      -4.276  -2.272  -5.302  0.00  0.00    +0.058 S 
ATOM     11  O   UNL     1      -4.336  -1.139  -4.447  0.00  0.00    -0.161 OA
ATOM     12  O   UNL     1      -4.559  -2.194  -6.692  0.00  0.00    -0.161 OA
BRANCH  10  13
ATOM     13  C   UNL     1      -5.380  -3.469  -4.630  0.00  0.00    +0.097 A 
ATOM     14  C   UNL     1      -5.916  -4.449  -5.445  0.00  0.00    +0.029 A 
ATOM     15  C   UNL     1      -6.782  -5.389  -4.918  0.00  0.00    +0.022 A 
ATOM     16  C   UNL     1      -7.113  -5.348  -3.575  0.00  0.00    +0.041 A 
ATOM     17  C   UNL     1      -6.577  -4.367  -2.761  0.00  0.00    +0.022 A 
ATOM     18  C   UNL     1      -5.706  -3.432  -3.287  0.00  0.00    +0.029 A 
ATOM     19 CL   UNL     1      -8.202  -6.527  -2.913  0.00  0.00    -0.084 Cl
ENDBRANCH  10  13
ENDBRANCH   8  10
ENDBRANCH   2   5
BRANCH   1  20
ATOM     20  C   UNL     1       1.589  -2.866  -1.342  0.00  0.00    +0.094 C 
BRANCH  20  21
ATOM     21  C   UNL     1       1.227  -2.190  -0.018  0.00  0.00    -0.019 C 
BRANCH  21  26
ATOM     22  C   UNL     1      -0.524   1.108  -0.578  0.00  0.00    +0.000 A 
ATOM     23  C   UNL     1       0.547   1.975  -0.688  0.00  0.00    +0.001 A 
ATOM     24  C   UNL     1       1.839   1.495  -0.581  0.00  0.00    +0.020 A 
ATOM     25  C   UNL     1       2.059   0.146  -0.364  0.00  0.00    +0.043 A 
ATOM     26  C   UNL     1       0.987  -0.721  -0.254  0.00  0.00    -0.041 A 
ATOM     27  C   UNL     1      -0.304  -0.240  -0.361  0.00  0.00    +0.003 A 
ATOM     28 CL   UNL     1       3.682  -0.458  -0.231  0.00  0.00    -0.083 Cl
ENDBRANCH  21  26
BRANCH  21  29
ATOM     29  N   UNL     1       0.009  -2.803   0.528  0.00  0.00    +0.385 N 
ATOM     30  C   UNL     1      -0.269  -2.238   1.854  0.00  0.00    -0.078 C 
ATOM     31  C   UNL     1      -1.580  -2.813   2.393  0.00  0.00    -0.019 C 
ATOM     32  C   UNL     1      -1.457  -4.336   2.501  0.00  0.00    -0.004 C 
ATOM     33  C   UNL     1      -1.093  -4.908   1.128  0.00  0.00    -0.019 C 
ATOM     34  C   UNL     1       0.200  -4.255   0.636  0.00  0.00    -0.078 C 
ATOM     35  H   UNL     1      -0.767  -2.612  -0.087  0.00  0.00    -0.081 HD
ENDBRANCH  21  29
ENDBRANCH  20  21
ENDBRANCH   1  20
TORSDOF 7
