REMARK  Name = ZINC14131310
REMARK  8 active torsions:
REMARK  status: ('A' for Active; 'I' for Inactive)
REMARK    1  A    between atoms: C_1  and  C_2
REMARK    2  A    between atoms: C_2  and  C_3
REMARK    3  A    between atoms: C_2  and  C_4
REMARK    4  A    between atoms: C_4  and  C_5
REMARK    5  A    between atoms: C_5  and  N_6
REMARK    6  A    between atoms: C_19  and  S_20
REMARK    7  A    between atoms: S_20  and  C_21
REMARK    8  A    between atoms: C_21  and  C_22
REMARK                            x       y       z     vdW  Elec       q    Type
REMARK                         _______ _______ _______ _____ _____    ______ ____
ROOT
ATOM      1  N   UNL     1      -8.169   9.334   0.131  0.00  0.00    -0.277 N 
ATOM      2  C   UNL     1      -7.380  10.428   0.130  0.00  0.00    +0.263 A 
ATOM      3  O   UNL     1      -7.868  11.543   0.141  0.00  0.00    -0.267 OA
ATOM      4  C   UNL     1      -5.917  10.251   0.114  0.00  0.00    +0.064 A 
ATOM      5  C   UNL     1      -5.055  11.346   0.113  0.00  0.00    +0.015 A 
ATOM      6  C   UNL     1      -3.691  11.139   0.098  0.00  0.00    +0.001 A 
ATOM      7  C   UNL     1      -3.178   9.852   0.086  0.00  0.00    +0.002 A 
ATOM      8  C   UNL     1      -4.022   8.759   0.088  0.00  0.00    +0.027 A 
ATOM      9  C   UNL     1      -5.395   8.948   0.102  0.00  0.00    +0.064 A 
ATOM     10  N   UNL     1      -6.269   7.863   0.110  0.00  0.00    -0.256 N 
ATOM     11  C   UNL     1      -7.623   8.060   0.119  0.00  0.00    +0.240 A 
ATOM     12  N   UNL     1      -8.200   6.879   0.118  0.00  0.00    -0.109 NA
ATOM     13  N   UNL     1      -7.196   5.903   0.103  0.00  0.00    -0.120 NA
ATOM     14  C   UNL     1      -6.037   6.514   0.095  0.00  0.00    +0.198 A 
ENDROOT
BRANCH   1  15
ATOM     15  C   UNL     1      -9.625   9.495   0.147  0.00  0.00    +0.128 C 
BRANCH  15  16
ATOM     16  C   UNL     1     -10.117   9.542   1.595  0.00  0.00    +0.025 C 
BRANCH  16  18
ATOM     17  C   UNL     1     -12.294   8.470   1.002  0.00  0.00    +0.007 C 
ATOM     18  C   UNL     1     -11.638   9.710   1.611  0.00  0.00    -0.016 C 
ATOM     19  C   UNL     1     -12.116   9.883   3.054  0.00  0.00    +0.007 C 
ENDBRANCH  16  18
ENDBRANCH  15  16
ENDBRANCH   1  15
BRANCH  14  20
ATOM     20  S   UNL     1      -4.456   5.735   0.076  0.00  0.00    -0.078 S 
BRANCH  20  21
ATOM     21  C   UNL     1      -4.840   3.962   0.070  0.00  0.00    +0.151 C 
BRANCH  21  22
ATOM     22  C   UNL     1      -3.558   3.170   0.053  0.00  0.00    +0.121 A 
ATOM     23  N   UNL     1      -3.639   1.814   0.047  0.00  0.00    -0.310 N 
ATOM     24  H   UNL     1      -4.508   1.384   0.053  0.00  0.00    +0.170 HD
ATOM     25  C   UNL     1      -2.517   1.057   0.033  0.00  0.00    +0.259 A 
ATOM     26  O   UNL     1      -2.574  -0.159   0.027  0.00  0.00    -0.267 OA
ATOM     27  C   UNL     1      -1.226   1.761   0.017  0.00  0.00    +0.066 A 
ATOM     28  C   UNL     1      -0.013   1.076   0.008  0.00  0.00    +0.035 A 
ATOM     29  C   UNL     1       1.169   1.786   0.001  0.00  0.00    +0.042 A 
ATOM     30  C   UNL     1       1.157   3.176   0.008  0.00  0.00    +0.022 A 
ATOM     31  C   UNL     1      -0.031   3.871   0.023  0.00  0.00    +0.030 A 
ATOM     32  C   UNL     1      -1.240   3.174   0.031  0.00  0.00    +0.078 A 
ATOM     33  N   UNL     1      -2.434   3.819   0.046  0.00  0.00    -0.233 NA
ATOM     34 CL   UNL     1       2.683   0.938  -0.018  0.00  0.00    -0.084 Cl
ENDBRANCH  21  22
ENDBRANCH  20  21
ENDBRANCH  14  20
TORSDOF 6
