REMARK  Name = ZINC64888338
REMARK  9 active torsions:
REMARK  status: ('A' for Active; 'I' for Inactive)
REMARK    1  A    between atoms: C_1  and  C_2
REMARK    2  A    between atoms: C_5  and  N_8
REMARK    3  A    between atoms: N_11  and  C_34
REMARK    4  A    between atoms: C_14  and  C_16
REMARK    5  A    between atoms: C_18  and  C_21
REMARK    6  A    between atoms: C_21  and  C_22
REMARK    7  A    between atoms: C_22  and  C_23
REMARK    8  A    between atoms: N_25  and  C_26
REMARK    9  A    between atoms: N_25  and  C_27
REMARK                            x       y       z     vdW  Elec       q    Type
REMARK                         _______ _______ _______ _____ _____    ______ ____
ROOT
ATOM      1  C   UNL     1      -0.125  -6.911  -2.528  0.00  0.00    +0.228 A 
ATOM      2  N   UNL     1      -0.234  -6.359  -3.751  0.00  0.00    -0.190 NA
ATOM      3  C   UNL     1      -0.302  -7.292  -4.657  0.00  0.00    +0.228 A 
ATOM      4  O   UNL     1      -0.240  -8.483  -4.046  0.00  0.00    -0.338 OA
ATOM      5  N   UNL     1      -0.118  -8.216  -2.657  0.00  0.00    -0.054 NA
ENDROOT
BRANCH   1  12
ATOM      6  N   UNL     1       0.058  -4.170  -0.021  0.00  0.00    -0.181 N 
ATOM      7  C   UNL     1       0.169  -4.837   1.141  0.00  0.00    +0.353 A 
ATOM      8  O   UNL     1       0.252  -4.214   2.181  0.00  0.00    -0.244 OA
ATOM      9  N   UNL     1       0.190  -6.183   1.173  0.00  0.00    -0.261 N 
ATOM     10  C   UNL     1       0.098  -6.889   0.028  0.00  0.00    +0.286 A 
ATOM     11  O   UNL     1       0.116  -8.105   0.050  0.00  0.00    -0.265 OA
ATOM     12  C   UNL     1      -0.023  -6.168  -1.250  0.00  0.00    +0.196 A 
ATOM     13  N   UNL     1      -0.045  -4.854  -1.238  0.00  0.00    -0.153 NA
ATOM     14  C   UNL     1       0.311  -6.881   2.455  0.00  0.00    +0.157 C 
BRANCH   6  19
ATOM     15  C   UNL     1      -0.018   1.503   0.011  0.00  0.00    +0.044 C 
ATOM     16  C   UNL     1       0.003  -0.004   0.003  0.00  0.00    -0.050 A 
ATOM     17  C   UNL     1      -0.958  -0.703  -0.705  0.00  0.00    +0.005 A 
ATOM     18  C   UNL     1      -0.943  -2.084  -0.715  0.00  0.00    +0.028 A 
ATOM     19  C   UNL     1       0.040  -2.771  -0.013  0.00  0.00    +0.071 A 
ATOM     20  C   UNL     1       1.003  -2.066   0.697  0.00  0.00    +0.028 A 
ATOM     21  C   UNL     1       0.985  -0.685   0.698  0.00  0.00    +0.005 A 
ENDBRANCH   6  19
ENDBRANCH   1  12
BRANCH   3  22
ATOM     22  C   UNL     1      -0.431  -7.070  -6.142  0.00  0.00    +0.108 C 
BRANCH  22  23
ATOM     23  C   UNL     1       0.962  -6.981  -6.767  0.00  0.00    +0.106 C 
BRANCH  23  24
ATOM     24  C   UNL     1       0.833  -6.759  -8.252  0.00  0.00    +0.220 C 
ATOM     25  O   UNL     1      -0.265  -6.679  -8.760  0.00  0.00    -0.275 OA
ATOM     26  N   UNL     1       1.939  -6.648  -9.015  0.00  0.00    -0.273 N 
ATOM     27  C   UNL     1       3.265  -6.744  -8.402  0.00  0.00    +0.138 C 
BRANCH  26  28
ATOM     28  C   UNL     1       1.819  -6.442 -10.395  0.00  0.00    +0.054 A 
ATOM     29  C   UNL     1       1.769  -5.151 -10.903  0.00  0.00    +0.025 A 
ATOM     30  C   UNL     1       1.651  -4.950 -12.264  0.00  0.00    +0.002 A 
ATOM     31  C   UNL     1       1.583  -6.033 -13.122  0.00  0.00    +0.002 A 
ATOM     32  C   UNL     1       1.632  -7.320 -12.619  0.00  0.00    +0.022 A 
ATOM     33  C   UNL     1       1.756  -7.528 -11.258  0.00  0.00    +0.062 A 
ATOM     34 CL   UNL     1       1.825  -9.145 -10.629  0.00  0.00    -0.082 Cl
ENDBRANCH  26  28
ENDBRANCH  23  24
ENDBRANCH  22  23
ENDBRANCH   3  22
TORSDOF 6
