REMARK  Name = ZINC64697697
REMARK  7 active torsions:
REMARK  status: ('A' for Active; 'I' for Inactive)
REMARK    1  A    between atoms: C_1  and  C_2
REMARK    2  A    between atoms: C_2  and  C_4
REMARK    3  A    between atoms: C_2  and  N_14
REMARK    4  A    between atoms: C_15  and  C_17
REMARK    5  A    between atoms: C_17  and  N_18
REMARK    6  A    between atoms: C_21  and  C_26
REMARK    7  A    between atoms: C_26  and  C_27
REMARK                            x       y       z     vdW  Elec       q    Type
REMARK                         _______ _______ _______ _____ _____    ______ ____
ROOT
ATOM      1  N   UNL     1      -0.150  -1.201   4.706  0.00  0.00    -0.216 N 
ATOM      2  C   UNL     1      -0.377  -0.185   5.562  0.00  0.00    +0.244 C 
ATOM      3  O   UNL     1       0.131   0.916   5.543  0.00  0.00    -0.273 OA
ATOM      4  C   UNL     1      -1.399  -0.705   6.553  0.00  0.00    +0.165 C 
ATOM      5  N   UNL     1      -1.654  -2.082   6.098  0.00  0.00    -0.287 N 
ATOM      6  C   UNL     1      -0.883  -2.277   5.013  0.00  0.00    +0.310 C 
ATOM      7  O   UNL     1      -0.854  -3.316   4.383  0.00  0.00    -0.252 OA
ATOM      8  H   UNL     1      -2.261  -2.723   6.500  0.00  0.00    +0.151 HD
ENDROOT
BRANCH   1   9
ATOM      9  C   UNL     1       0.780  -1.133   3.576  0.00  0.00    +0.213 C 
BRANCH   9  11
ATOM     10  N   UNL     1       0.711  -0.489   1.189  0.00  0.00    -0.307 N 
ATOM     11  C   UNL     1       0.051  -0.633   2.355  0.00  0.00    +0.231 C 
ATOM     12  O   UNL     1      -1.129  -0.361   2.423  0.00  0.00    -0.274 OA
ATOM     13  H   UNL     1       1.654  -0.707   1.135  0.00  0.00    +0.149 HD
BRANCH  10  15
ATOM     14  C   UNL     1      -0.019   1.526   0.010  0.00  0.00    +0.033 C 
ATOM     15  C   UNL     1       0.002  -0.004   0.002  0.00  0.00    +0.100 C 
BRANCH  15  16
ATOM     16  C   UNL     1       0.707  -0.490  -1.238  0.00  0.00    -0.027 A 
ATOM     17  C   UNL     1       2.089  -0.512  -1.286  0.00  0.00    +0.006 A 
ATOM     18  C   UNL     1       2.727  -0.955  -2.426  0.00  0.00    +0.004 A 
ATOM     19  C   UNL     1       1.994  -1.382  -3.526  0.00  0.00    -0.044 A 
ATOM     20  C   UNL     1       0.618  -1.365  -3.475  0.00  0.00    -0.044 A 
ATOM     21  C   UNL     1      -0.023  -0.920  -2.326  0.00  0.00    +0.009 A 
ATOM     22  C   UNL     1      -0.241  -1.828  -4.623  0.00  0.00    +0.035 C 
ATOM     23  C   UNL     1       0.570  -1.873  -5.917  0.00  0.00    +0.005 C 
ATOM     24  C   UNL     1       1.853  -2.670  -5.656  0.00  0.00    +0.005 C 
ATOM     25  C   UNL     1       2.755  -1.846  -4.740  0.00  0.00    +0.035 C 
ENDBRANCH  15  16
ENDBRANCH  10  15
ENDBRANCH   9  11
ENDBRANCH   1   9
BRANCH   4  26
ATOM     26  C   UNL     1      -2.680   0.131   6.494  0.00  0.00    +0.065 C 
BRANCH  26  27
ATOM     27  C   UNL     1      -3.629  -0.328   7.570  0.00  0.00    -0.039 C 
ATOM     28  C   UNL     1      -3.776   0.203   8.805  0.00  0.00    -0.001 A 
ATOM     29  C   UNL     1      -3.121   1.323   9.490  0.00  0.00    +0.010 A 
ATOM     30  C   UNL     1      -3.489   1.624  10.757  0.00  0.00    +0.001 A 
ATOM     31  C   UNL     1      -4.478   0.893  11.430  0.00  0.00    +0.002 A 
ATOM     32  C   UNL     1      -5.125  -0.149  10.867  0.00  0.00    +0.026 A 
ATOM     33  C   UNL     1      -4.818  -0.552   9.538  0.00  0.00    +0.043 A 
ATOM     34  N   UNL     1      -5.296  -1.513   8.785  0.00  0.00    -0.380 N 
ATOM     35  C   UNL     1      -4.615  -1.472   7.486  0.00  0.00    +0.144 C 
ATOM     36  H   UNL     1      -5.987  -2.143   9.042  0.00  0.00    +0.160 HD
ENDBRANCH  26  27
ENDBRANCH   4  26
TORSDOF 6
