REMARK  Name = ZINC34900382
REMARK  6 active torsions:
REMARK  status: ('A' for Active; 'I' for Inactive)
REMARK    1  A    between atoms: C_4  and  S_7
REMARK    2  A    between atoms: S_7  and  N_10
REMARK    3  A    between atoms: C_14  and  C_17
REMARK    4  A    between atoms: N_19  and  C_20
REMARK    5  A    between atoms: C_26  and  N_28
REMARK    6  A    between atoms: C_29  and  C_31
REMARK                            x       y       z     vdW  Elec       q    Type
REMARK                         _______ _______ _______ _____ _____    ______ ____
ROOT
ATOM      1  C   UNL     1       4.796  -4.146   3.678  0.00  0.00    +0.218 C 
ATOM      2  O   UNL     1       3.621  -4.423   3.798  0.00  0.00    -0.275 OA
ATOM      3  N   UNL     1       5.731  -4.892   4.300  0.00  0.00    -0.310 N 
ATOM      4  H   UNL     1       6.670  -4.671   4.204  0.00  0.00    +0.149 HD
ENDROOT
BRANCH   1   9
ATOM      5  N   UNL     1       4.378  -1.079   1.536  0.00  0.00    -0.176 NA
ATOM      6  C   UNL     1       5.190  -0.084   2.249  0.00  0.00    +0.109 C 
ATOM      7  C   UNL     1       6.421  -0.782   2.835  0.00  0.00    +0.018 C 
ATOM      8  C   UNL     1       5.971  -1.962   3.699  0.00  0.00    +0.015 C 
ATOM      9  C   UNL     1       5.211  -2.969   2.834  0.00  0.00    +0.091 C 
ATOM     10  C   UNL     1       3.961  -2.293   2.249  0.00  0.00    +0.122 C 
BRANCH   5  11
ATOM     11  S   UNL     1       3.934  -0.832  -0.041  0.00  0.00    +0.061 S 
ATOM     12  O   UNL     1       3.674  -2.114  -0.595  0.00  0.00    -0.153 OA
ATOM     13  O   UNL     1       4.890   0.060  -0.597  0.00  0.00    -0.153 OA
BRANCH  11  17
ATOM     14  C   UNL     1      -0.017   1.378   0.010  0.00  0.00    +0.000 A 
ATOM     15  C   UNL     1       1.171   2.086   0.002  0.00  0.00    +0.002 A 
ATOM     16  C   UNL     1       2.377   1.411  -0.013  0.00  0.00    +0.028 A 
ATOM     17  C   UNL     1       2.396   0.029  -0.020  0.00  0.00    +0.105 A 
ATOM     18  C   UNL     1       1.208  -0.679  -0.012  0.00  0.00    +0.028 A 
ATOM     19  C   UNL     1       0.002  -0.004   0.002  0.00  0.00    +0.002 A 
ENDBRANCH  11  17
ENDBRANCH   5  11
ENDBRANCH   1   9
BRANCH   3  20
ATOM     20  C   UNL     1       5.327  -6.037   5.122  0.00  0.00    +0.093 C 
ATOM     21  C   UNL     1       4.983  -5.556   6.532  0.00  0.00    +0.024 C 
ATOM     22  C   UNL     1       4.562  -6.751   7.390  0.00  0.00    +0.002 C 
ATOM     23  C   UNL     1       5.712  -7.758   7.461  0.00  0.00    +0.002 C 
ATOM     24  C   UNL     1       6.056  -8.239   6.050  0.00  0.00    +0.024 C 
ATOM     25  C   UNL     1       6.477  -7.043   5.193  0.00  0.00    +0.093 C 
BRANCH  25  26
ATOM     26  N   UNL     1       6.807  -7.504   3.842  0.00  0.00    -0.307 N 
ATOM     27  C   UNL     1       8.043  -7.969   3.571  0.00  0.00    +0.244 C 
ATOM     28  O   UNL     1       8.884  -8.006   4.448  0.00  0.00    -0.270 OA
ATOM     29  H   UNL     1       6.136  -7.474   3.142  0.00  0.00    +0.149 HD
BRANCH  27  30
ATOM     30  C   UNL     1       8.376  -8.433   2.209  0.00  0.00    +0.037 A 
ATOM     31  C   UNL     1       7.413  -8.386   1.198  0.00  0.00    +0.016 A 
ATOM     32  C   UNL     1       7.729  -8.821  -0.071  0.00  0.00    +0.039 A 
ATOM     33  C   UNL     1       8.999  -9.304  -0.345  0.00  0.00    +0.123 A 
ATOM     34  C   UNL     1       9.959  -9.353   0.655  0.00  0.00    +0.039 A 
ATOM     35  C   UNL     1       9.656  -8.915   1.926  0.00  0.00    +0.016 A 
ATOM     36  F   UNL     1       9.304  -9.730  -1.591  0.00  0.00    -0.205 F 
ENDBRANCH  27  30
ENDBRANCH  25  26
ENDBRANCH   3  20
TORSDOF 6
