REMARK  Name = ZINC39448691
REMARK  6 active torsions:
REMARK  status: ('A' for Active; 'I' for Inactive)
REMARK    1  A    between atoms: C_4  and  C_7
REMARK    2  A    between atoms: C_7  and  C_10
REMARK    3  A    between atoms: N_8  and  O_9
REMARK    4  A    between atoms: N_11  and  O_12
REMARK    5  A    between atoms: N_13  and  C_14
REMARK    6  A    between atoms: C_22  and  C_23
REMARK                            x       y       z     vdW  Elec       q    Type
REMARK                         _______ _______ _______ _____ _____    ______ ____
ROOT
ATOM      1  C   UNL     1       5.082  -4.204  -0.195  0.00  0.00    +0.074 A 
ATOM      2  C   UNL     1       3.910  -4.892  -0.344  0.00  0.00    +0.028 A 
ATOM      3  C   UNL     1       3.928  -6.295  -0.369  0.00  0.00    +0.020 A 
ATOM      4  C   UNL     1       5.094  -6.965  -0.247  0.00  0.00    +0.093 A 
ATOM      5  N   UNL     1       6.273  -6.291  -0.097  0.00  0.00    -0.299 N 
ATOM      6  C   UNL     1       6.295  -4.922  -0.074  0.00  0.00    +0.138 A 
ATOM      7  N   UNL     1       7.553  -4.527   0.073  0.00  0.00    -0.344 N 
ATOM      8  C   UNL     1       8.347  -5.592   0.140  0.00  0.00    +0.111 A 
ATOM      9  C   UNL     1       7.574  -6.715   0.046  0.00  0.00    +0.071 A 
ATOM     10  H   UNL     1       7.848  -3.605   0.124  0.00  0.00    +0.167 HD
ENDROOT
BRANCH   9  11
ATOM     11  C   UNL     1       8.047  -8.114   0.073  0.00  0.00    +0.002 A 
ATOM     12  C   UNL     1       9.375  -8.412  -0.238  0.00  0.00    +0.011 A 
ATOM     13  C   UNL     1       9.811  -9.720  -0.210  0.00  0.00    +0.022 A 
ATOM     14  C   UNL     1       8.934 -10.739   0.125  0.00  0.00    +0.059 A 
ATOM     15  C   UNL     1       7.615 -10.450   0.435  0.00  0.00    +0.060 A 
ATOM     16  C   UNL     1       7.168  -9.144   0.416  0.00  0.00    +0.031 A 
ATOM     17 CL   UNL     1       6.523 -11.733   0.854  0.00  0.00    -0.082 Cl
ATOM     18 CL   UNL     1       9.491 -12.383   0.157  0.00  0.00    -0.082 Cl
ENDBRANCH   9  11
BRANCH   1  21
ATOM     19  C   UNL     1       5.598  -2.136   0.930  0.00  0.00    +0.191 C 
ATOM     20  N   UNL     1       6.143  -2.804   1.905  0.00  0.00    -0.069 NA
ATOM     21  N   UNL     1       5.083  -2.807  -0.167  0.00  0.00    -0.292 N 
ATOM     22  H   UNL     1       4.722  -2.307  -0.916  0.00  0.00    +0.154 HD
BRANCH  19  23
ATOM     23  C   UNL     1       5.529  -0.659   0.994  0.00  0.00    +0.153 C 
ATOM     24  N   UNL     1       4.894   0.003   0.070  0.00  0.00    -0.083 NA
BRANCH  23  28
ATOM     25  C   UNL     1       7.407   1.422   4.189  0.00  0.00    +0.000 A 
ATOM     26  C   UNL     1       8.139   1.077   3.067  0.00  0.00    +0.001 A 
ATOM     27  C   UNL     1       7.535   0.402   2.027  0.00  0.00    +0.010 A 
ATOM     28  C   UNL     1       6.184   0.066   2.108  0.00  0.00    +0.007 A 
ATOM     29  C   UNL     1       5.451   0.415   3.242  0.00  0.00    +0.010 A 
ATOM     30  C   UNL     1       6.066   1.091   4.276  0.00  0.00    +0.001 A 
ENDBRANCH  23  28
BRANCH  24  31
ATOM     31  O   UNL     1       4.918   1.419   0.071  0.00  0.00    -0.409 OA
ATOM     32  H   UNL     1       4.418   1.821  -0.653  0.00  0.00    +0.328 HD
ENDBRANCH  24  31
ENDBRANCH  19  23
BRANCH  20  33
ATOM     33  O   UNL     1       6.770  -2.116   2.972  0.00  0.00    -0.408 OA
ATOM     34  H   UNL     1       7.211  -2.695   3.608  0.00  0.00    +0.328 HD
ENDBRANCH  20  33
ENDBRANCH   1  21
TORSDOF 6
