REMARK  Name = ZINC38898504
REMARK  6 active torsions:
REMARK  status: ('A' for Active; 'I' for Inactive)
REMARK    1  A    between atoms: C_1  and  C_2
REMARK    2  A    between atoms: C_2  and  N_3
REMARK    3  A    between atoms: C_4  and  C_30
REMARK    4  A    between atoms: C_8  and  S_10
REMARK    5  A    between atoms: S_10  and  C_11
REMARK    6  A    between atoms: C_13  and  C_24
REMARK                            x       y       z     vdW  Elec       q    Type
REMARK                         _______ _______ _______ _____ _____    ______ ____
ROOT
ATOM      1  C   UNL     1      -0.246  -1.221  -3.008  0.00  0.00    +0.167 C 
ATOM      2  C   UNL     1       1.104  -1.222  -3.698  0.00  0.00    -0.010 C 
ATOM      3  C   UNL     1       1.269  -2.103  -4.770  0.00  0.00    +0.002 A 
ATOM      4  C   UNL     1       2.494  -2.168  -5.466  0.00  0.00    +0.011 A 
ATOM      5  C   UNL     1       2.633  -3.034  -6.505  0.00  0.00    +0.021 A 
ATOM      6  C   UNL     1       1.585  -3.865  -6.902  0.00  0.00    +0.043 A 
ATOM      7  C   UNL     1       0.370  -3.847  -6.262  0.00  0.00    +0.044 A 
ATOM      8  C   UNL     1       0.161  -2.974  -5.181  0.00  0.00    +0.042 A 
ATOM      9  N   UNL     1      -1.023  -2.957  -4.558  0.00  0.00    -0.284 N 
ATOM     10  C   UNL     1      -1.296  -2.170  -3.537  0.00  0.00    +0.235 C 
ATOM     11  O   UNL     1      -2.397  -2.208  -3.019  0.00  0.00    -0.274 OA
ATOM     12 CL   UNL     1       1.824  -4.949  -8.236  0.00  0.00    -0.083 Cl
ATOM     13  H   UNL     1      -1.717  -3.556  -4.875  0.00  0.00    +0.155 HD
ENDROOT
BRANCH   2  14
ATOM     14  C   UNL     1       2.153  -0.367  -3.275  0.00  0.00    -0.020 A 
ATOM     15  C   UNL     1       2.581   0.688  -4.098  0.00  0.00    +0.008 A 
ATOM     16  C   UNL     1       3.601   1.513  -3.679  0.00  0.00    +0.001 A 
ATOM     17  C   UNL     1       4.204   1.305  -2.449  0.00  0.00    +0.000 A 
ATOM     18  C   UNL     1       3.789   0.268  -1.629  0.00  0.00    +0.001 A 
ATOM     19  C   UNL     1       2.767  -0.565  -2.028  0.00  0.00    +0.008 A 
ENDBRANCH   2  14
BRANCH   1  20
ATOM     20  S   UNL     1      -0.918   0.462  -3.103  0.00  0.00    -0.099 S 
BRANCH  20  25
ATOM     21  N   UNL     1      -1.095   0.601  -0.397  0.00  0.00    -0.244 NA
ATOM     22  C   UNL     1      -1.133  -0.835  -0.022  0.00  0.00    +0.232 C 
ATOM     23  N   UNL     1      -2.376  -1.345  -0.618  0.00  0.00    -0.166 NA
ATOM     24  N   UNL     1      -2.812  -0.569  -1.474  0.00  0.00    -0.160 NA
ATOM     25  C   UNL     1      -1.945   0.609  -1.615  0.00  0.00    +0.259 C 
BRANCH  22  26
ATOM     26  C   UNL     1      -1.167  -0.986   1.477  0.00  0.00    +0.011 A 
ATOM     27  C   UNL     1      -1.795  -2.076   2.059  0.00  0.00    +0.010 A 
ATOM     28  C   UNL     1      -1.801  -2.173   3.442  0.00  0.00    +0.020 A 
ATOM     29  C   UNL     1      -1.185  -1.187   4.189  0.00  0.00    +0.111 A 
ATOM     30  N   UNL     1      -0.598  -0.163   3.601  0.00  0.00    -0.263 NA
ATOM     31  C   UNL     1      -0.567  -0.042   2.288  0.00  0.00    +0.117 A 
ENDBRANCH  22  26
BRANCH  21  33
ATOM     32  C   UNL     1       0.280   2.518  -1.054  0.00  0.00    +0.020 C 
ATOM     33  C   UNL     1       0.276   1.027  -0.709  0.00  0.00    +0.086 C 
ENDBRANCH  21  33
ENDBRANCH  20  25
ENDBRANCH   1  20
TORSDOF 5
