REMARK  Name = ZINC45238135
REMARK  2 active torsions:
REMARK  status: ('A' for Active; 'I' for Inactive)
REMARK    1  A    between atoms: C_1  and  N_2
REMARK    2  A    between atoms: N_2  and  C_3
REMARK                            x       y       z     vdW  Elec       q    Type
REMARK                         _______ _______ _______ _____ _____    ______ ____
ROOT
ATOM      1  C   UNL     1      -0.018   1.461   0.010  0.00  0.00    +0.131 C 
ATOM      2  N   UNL     1       0.002  -0.004   0.002  0.00  0.00    -0.316 N 
ATOM      3  C   UNL     1       0.024  -0.743   1.267  0.00  0.00    +0.131 C 
ATOM      4  C   UNL     1       0.000  -0.688  -1.197  0.00  0.00    +0.161 A 
ATOM      5  N   UNL     1      -0.012  -0.207  -2.419  0.00  0.00    -0.225 NA
ATOM      6  C   UNL     1      -0.012  -1.002  -3.512  0.00  0.00    +0.082 A 
ATOM      7  C   UNL     1      -0.025  -0.617  -4.872  0.00  0.00    +0.049 A 
ATOM      8  C   UNL     1      -0.024  -1.560  -5.868  0.00  0.00    +0.043 A 
ATOM      9  C   UNL     1      -0.010  -2.918  -5.580  0.00  0.00    +0.021 A 
ATOM     10  C   UNL     1       0.003  -3.329  -4.259  0.00  0.00    +0.019 A 
ATOM     11  C   UNL     1       0.002  -2.392  -3.257  0.00  0.00    +0.041 A 
ATOM     12  S   UNL     1       0.021  -2.452  -1.481  0.00  0.00    -0.052 S 
ATOM     13 CL   UNL     1      -0.040  -1.044  -7.525  0.00  0.00    -0.083 Cl
ENDROOT
TORSDOF 0
