REMARK  Name = ZINC10042031
REMARK  15 active torsions:
REMARK  status: ('A' for Active; 'I' for Inactive)
REMARK    1  A    between atoms: C_1  and  C_2
REMARK    2  A    between atoms: C_5  and  C_8
REMARK    3  A    between atoms: N_10  and  C_11
REMARK    4  A    between atoms: C_11  and  C_13
REMARK    5  A    between atoms: C_11  and  C_16
REMARK    6  A    between atoms: C_13  and  C_14
REMARK    7  A    between atoms: C_13  and  C_15
REMARK    8  A    between atoms: N_18  and  N_19
REMARK    9  A    between atoms: C_20  and  C_21
REMARK   10  A    between atoms: C_23  and  O_32
REMARK   11  A    between atoms: C_24  and  O_28
REMARK   12  A    between atoms: O_28  and  C_29
REMARK   13  A    between atoms: C_29  and  C_30
REMARK   14  A    between atoms: C_29  and  C_31
REMARK   15  A    between atoms: O_32  and  C_33
REMARK                            x       y       z     vdW  Elec       q    Type
REMARK                         _______ _______ _______ _____ _____    ______ ____
ROOT
ATOM      1  C   UNL     1       8.717  -3.913  -0.066  0.00  0.00    +0.253 C 
ATOM      2  O   UNL     1       7.825  -4.503  -0.638  0.00  0.00    -0.272 OA
ATOM      3  N   UNL     1       8.433  -3.112   0.980  0.00  0.00    -0.205 N 
ATOM      4  H   UNL     1       9.151  -2.694   1.480  0.00  0.00    +0.177 HD
ENDROOT
BRANCH   3   5
ATOM      5  N   UNL     1       7.100  -2.885   1.346  0.00  0.00    -0.188 NA
ATOM      6  C   UNL     1       6.826  -2.113   2.353  0.00  0.00    +0.138 C 
BRANCH   6   7
ATOM      7  C   UNL     1       5.423  -1.873   2.738  0.00  0.00    -0.001 A 
ATOM      8  C   UNL     1       5.127  -1.043   3.823  0.00  0.00    +0.059 A 
ATOM      9  C   UNL     1       3.810  -0.821   4.179  0.00  0.00    +0.163 A 
ATOM     10  C   UNL     1       2.782  -1.424   3.458  0.00  0.00    +0.176 A 
ATOM     11  C   UNL     1       3.075  -2.252   2.385  0.00  0.00    +0.064 A 
ATOM     12  C   UNL     1       4.388  -2.475   2.020  0.00  0.00    +0.028 A 
ATOM     13 BR   UNL     1       1.674  -3.073   1.415  0.00  0.00    -0.046 Br
BRANCH   9  14
ATOM     14  O   UNL     1       3.519  -0.014   5.235  0.00  0.00    -0.491 OA
ATOM     15  C   UNL     1       4.622   0.571   5.928  0.00  0.00    +0.277 C 
ENDBRANCH   9  14
BRANCH  10  16
ATOM     16  O   UNL     1       1.487  -1.204   3.811  0.00  0.00    -0.485 OA
BRANCH  16  17
ATOM     17  C   UNL     1       0.827  -0.094   3.199  0.00  0.00    +0.168 C 
ATOM     18  C   UNL     1       1.030   1.156   4.058  0.00  0.00    +0.051 C 
ATOM     19  C   UNL     1      -0.668  -0.393   3.079  0.00  0.00    +0.051 C 
ENDBRANCH  16  17
ENDBRANCH  10  16
ENDBRANCH   6   7
ENDBRANCH   3   5
BRANCH   1  20
ATOM     20  C   UNL     1      10.143  -4.076  -0.525  0.00  0.00    +0.163 C 
BRANCH  20  23
ATOM     21  C   UNL     1      11.486  -5.955  -1.303  0.00  0.00    +0.245 C 
ATOM     22  O   UNL     1      12.452  -5.448  -0.767  0.00  0.00    -0.270 OA
ATOM     23  N   UNL     1      10.284  -5.347  -1.239  0.00  0.00    -0.300 N 
ATOM     24  H   UNL     1       9.513  -5.752  -1.666  0.00  0.00    +0.150 HD
BRANCH  21  29
ATOM     25  C   UNL     1      12.040 -10.949  -4.107  0.00  0.00    +0.044 C 
ATOM     26  C   UNL     1      11.895  -9.641  -3.373  0.00  0.00    -0.050 A 
ATOM     27  C   UNL     1      12.997  -9.067  -2.765  0.00  0.00    +0.004 A 
ATOM     28  C   UNL     1      12.871  -7.870  -2.091  0.00  0.00    +0.013 A 
ATOM     29  C   UNL     1      11.628  -7.238  -2.023  0.00  0.00    +0.037 A 
ATOM     30  C   UNL     1      10.519  -7.825  -2.635  0.00  0.00    +0.013 A 
ATOM     31  C   UNL     1      10.660  -9.020  -3.309  0.00  0.00    +0.004 A 
ENDBRANCH  21  29
ENDBRANCH  20  23
BRANCH  20  32
ATOM     32  C   UNL     1      10.514  -2.922  -1.459  0.00  0.00    +0.012 C 
ATOM     33  C   UNL     1      11.998  -3.012  -1.817  0.00  0.00    +0.009 C 
ATOM     34  C   UNL     1       9.675  -3.011  -2.736  0.00  0.00    +0.009 C 
ENDBRANCH  20  32
ENDBRANCH   1  20
TORSDOF 9
