REMARK  Name = ZINC09375272
REMARK  9 active torsions:
REMARK  status: ('A' for Active; 'I' for Inactive)
REMARK    1  A    between atoms: C_1  and  C_2
REMARK    2  A    between atoms: C_2  and  C_3
REMARK    3  A    between atoms: C_3  and  C_4
REMARK    4  A    between atoms: C_3  and  C_5
REMARK    5  A    between atoms: C_3  and  C_6
REMARK    6  A    between atoms: C_12  and  C_16
REMARK    7  A    between atoms: N_18  and  N_19
REMARK    8  A    between atoms: C_20  and  C_21
REMARK    9  A    between atoms: C_26  and  O_27
REMARK                            x       y       z     vdW  Elec       q    Type
REMARK                         _______ _______ _______ _____ _____    ______ ____
ROOT
ATOM      1  C   UNL     1       0.739  -2.027  -1.265  0.00  0.00    -0.001 C 
ATOM      2  C   UNL     1       1.479  -2.534  -0.025  0.00  0.00    +0.010 C 
ATOM      3  C   UNL     1       1.288  -4.051   0.106  0.00  0.00    +0.055 C 
ATOM      4  C   UNL     1       1.617  -4.686  -1.221  0.00  0.00    +0.040 A 
ATOM      5  C   UNL     1       1.692  -4.001  -2.389  0.00  0.00    +0.006 A 
ATOM      6  C   UNL     1       2.021  -4.949  -3.372  0.00  0.00    +0.152 A 
ATOM      7  N   UNL     1       2.119  -6.115  -2.756  0.00  0.00    -0.169 NA
ATOM      8  N   UNL     1       1.883  -5.973  -1.497  0.00  0.00    -0.281 N 
ATOM      9  H   UNL     1       1.897  -6.690  -0.845  0.00  0.00    +0.189 HD
ATOM     10  C   UNL     1       1.457  -2.522  -2.528  0.00  0.00    +0.043 C 
ENDROOT
BRANCH   6  11
ATOM     11  C   UNL     1       2.218  -4.694  -4.813  0.00  0.00    +0.284 C 
ATOM     12  O   UNL     1       2.096  -3.566  -5.253  0.00  0.00    -0.267 OA
ATOM     13  N   UNL     1       2.532  -5.710  -5.641  0.00  0.00    -0.202 N 
ATOM     14  H   UNL     1       2.629  -6.609  -5.290  0.00  0.00    +0.178 HD
BRANCH  13  15
ATOM     15  N   UNL     1       2.719  -5.467  -7.008  0.00  0.00    -0.187 NA
ATOM     16  C   UNL     1       3.021  -6.446  -7.805  0.00  0.00    +0.142 C 
BRANCH  16  17
ATOM     17  C   UNL     1       3.218  -6.191  -9.243  0.00  0.00    +0.037 A 
ATOM     18  C   UNL     1       3.538  -7.242 -10.106  0.00  0.00    +0.028 A 
ATOM     19  C   UNL     1       3.720  -6.996 -11.451  0.00  0.00    +0.019 A 
ATOM     20  C   UNL     1       3.587  -5.711 -11.950  0.00  0.00    +0.019 A 
ATOM     21  C   UNL     1       3.272  -4.663 -11.107  0.00  0.00    +0.047 A 
ATOM     22  C   UNL     1       3.079  -4.893  -9.754  0.00  0.00    +0.126 A 
ATOM     23 BR   UNL     1       4.153  -8.420 -12.618  0.00  0.00    -0.050 Br
BRANCH  22  24
ATOM     24  O   UNL     1       2.763  -3.864  -8.926  0.00  0.00    -0.506 OA
ATOM     25  H   UNL     1       3.530  -3.418  -8.542  0.00  0.00    +0.292 HD
ENDBRANCH  22  24
ENDBRANCH  16  17
ENDBRANCH  13  15
ENDBRANCH   6  11
BRANCH   1  26
ATOM     26  C   UNL     1       0.718  -0.497  -1.257  0.00  0.00    -0.032 C 
ATOM     27  C   UNL     1      -0.022   0.009  -2.496  0.00  0.00    +0.011 C 
ATOM     28  C   UNL     1       2.154   0.032  -1.268  0.00  0.00    +0.011 C 
BRANCH  26  30
ATOM     29  C   UNL     1      -0.019   1.526   0.010  0.00  0.00    +0.004 C 
ATOM     30  C   UNL     1       0.002  -0.004   0.002  0.00  0.00    +0.003 C 
ENDBRANCH  26  30
ENDBRANCH   1  26
TORSDOF 6
