REMARK  Name = ZINC63140726
REMARK  6 active torsions:
REMARK  status: ('A' for Active; 'I' for Inactive)
REMARK    1  A    between atoms: C_1  and  C_2
REMARK    2  A    between atoms: C_2  and  O_3
REMARK    3  A    between atoms: O_3  and  C_4
REMARK    4  A    between atoms: C_9  and  C_10
REMARK    5  A    between atoms: N_29  and  C_32
REMARK    6  A    between atoms: C_32  and  C_33
REMARK                            x       y       z     vdW  Elec       q    Type
REMARK                         _______ _______ _______ _____ _____    ______ ____
ROOT
ATOM      1  C   UNL     1       1.990  -1.397  -3.491  0.00  0.00    +0.137 C 
ATOM      2  C   UNL     1       3.356  -0.884  -3.026  0.00  0.00    +0.131 C 
ATOM      3  C   UNL     1       3.991  -0.182  -4.220  0.00  0.00    -0.034 C 
ATOM      4  C   UNL     1       4.285   1.049  -3.819  0.00  0.00    -0.001 A 
ATOM      5  C   UNL     1       4.971   2.162  -4.495  0.00  0.00    +0.010 A 
ATOM      6  C   UNL     1       5.096   3.311  -3.780  0.00  0.00    +0.001 A 
ATOM      7  C   UNL     1       4.612   3.464  -2.477  0.00  0.00    +0.002 A 
ATOM      8  C   UNL     1       3.974   2.492  -1.778  0.00  0.00    +0.026 A 
ATOM      9  C   UNL     1       3.788   1.234  -2.422  0.00  0.00    +0.043 A 
ATOM     10  N   UNL     1       3.232   0.125  -1.972  0.00  0.00    -0.375 N 
ATOM     11  C   UNL     1       4.123  -0.844  -5.570  0.00  0.00    +0.065 C 
ATOM     12  C   UNL     1       2.737  -1.417  -5.916  0.00  0.00    +0.167 C 
ATOM     13  N   UNL     1       2.192  -2.126  -4.763  0.00  0.00    -0.279 N 
ATOM     14  C   UNL     1       1.863  -3.423  -4.801  0.00  0.00    +0.234 C 
ATOM     15  O   UNL     1       1.436  -3.926  -3.783  0.00  0.00    -0.274 OA
ATOM     16  C   UNL     1       1.983  -4.294  -6.007  0.00  0.00    +0.204 C 
ATOM     17  N   UNL     1       2.497  -3.571  -7.158  0.00  0.00    -0.286 N 
ATOM     18  C   UNL     1       2.840  -2.285  -7.127  0.00  0.00    +0.237 C 
ATOM     19  O   UNL     1       3.259  -1.784  -8.150  0.00  0.00    -0.274 OA
ATOM     20  H   UNL     1       2.812  -0.007  -1.108  0.00  0.00    +0.160 HD
ENDROOT
BRANCH   1  26
ATOM     21  C   UNL     1       0.044  -2.535  -2.394  0.00  0.00    +0.125 A 
ATOM     22  C   UNL     1      -0.483  -3.396  -1.442  0.00  0.00    +0.046 A 
ATOM     23  C   UNL     1       0.357  -4.039  -0.554  0.00  0.00    +0.004 A 
ATOM     24  C   UNL     1       1.722  -3.825  -0.613  0.00  0.00    +0.001 A 
ATOM     25  C   UNL     1       2.249  -2.968  -1.560  0.00  0.00    +0.009 A 
ATOM     26  C   UNL     1       1.414  -2.327  -2.455  0.00  0.00    +0.017 A 
BRANCH  21  27
ATOM     27  O   UNL     1      -0.780  -1.902  -3.270  0.00  0.00    -0.492 OA
BRANCH  27  29
ATOM     28  C   UNL     1      -2.941  -1.369  -4.212  0.00  0.00    +0.048 C 
ATOM     29  C   UNL     1      -2.180  -2.165  -3.150  0.00  0.00    +0.225 C 
ENDBRANCH  27  29
ENDBRANCH  21  27
ENDBRANCH   1  26
BRANCH  17  30
ATOM     30  C   UNL     1       2.650  -4.298  -8.421  0.00  0.00    +0.150 C 
BRANCH  30  31
ATOM     31  C   UNL     1       1.377  -4.189  -9.220  0.00  0.00    +0.007 A 
ATOM     32  C   UNL     1       1.022  -3.256 -10.137  0.00  0.00    +0.013 A 
ATOM     33  C   UNL     1      -0.211  -3.357 -10.753  0.00  0.00    +0.008 A 
ATOM     34  C   UNL     1      -1.029  -4.386 -10.423  0.00  0.00    +0.045 A 
ATOM     35  S   UNL     1      -0.052  -5.260  -9.211  0.00  0.00    -0.100 S 
ENDBRANCH  30  31
ENDBRANCH  17  30
TORSDOF 5
