REMARK  Name = ZINC22591720
REMARK  4 active torsions:
REMARK  status: ('A' for Active; 'I' for Inactive)
REMARK    1  A    between atoms: N_9  and  C_13
REMARK    2  A    between atoms: C_13  and  N_14
REMARK    3  A    between atoms: N_17  and  C_20
REMARK    4  A    between atoms: C_23  and  N_26
REMARK                            x       y       z     vdW  Elec       q    Type
REMARK                         _______ _______ _______ _____ _____    ______ ____
ROOT
ATOM      1  N   UNL     1       1.690   6.075  -1.042  0.00  0.00    -0.282 NA
ATOM      2  C   UNL     1       2.470   5.551   0.088  0.00  0.00    +0.105 C 
ATOM      3  C   UNL     1       2.529   4.024  -0.001  0.00  0.00    +0.120 C 
ATOM      4  N   UNL     1       1.162   3.483   0.009  0.00  0.00    -0.327 N 
ATOM      5  C   UNL     1       0.383   4.007  -1.121  0.00  0.00    +0.120 C 
ATOM      6  C   UNL     1       0.324   5.534  -1.032  0.00  0.00    +0.105 C 
ENDROOT
BRANCH   4   7
ATOM      7  C   UNL     1       1.178   2.086   0.002  0.00  0.00    +0.030 A 
ATOM      8  C   UNL     1      -0.017   1.377   0.010  0.00  0.00    +0.025 A 
ATOM      9  C   UNL     1       0.002  -0.004   0.002  0.00  0.00    +0.034 A 
ATOM     10  C   UNL     1       1.208  -0.681  -0.014  0.00  0.00    +0.126 A 
ATOM     11  C   UNL     1       2.399   0.022  -0.021  0.00  0.00    +0.034 A 
ATOM     12  C   UNL     1       2.387   1.403  -0.012  0.00  0.00    +0.025 A 
BRANCH  10  13
ATOM     13  N   UNL     1       1.224  -2.161  -0.022  0.00  0.00    +0.056 N 
ATOM     14  O   UNL     1       0.176  -2.781  -0.015  0.00  0.00    -0.126 OA
ATOM     15  O   UNL     1       2.286  -2.758  -0.036  0.00  0.00    -0.126 OA
ENDBRANCH  10  13
ENDBRANCH   4   7
BRANCH   1  16
ATOM     16  C   UNL     1       1.674   7.544  -1.035  0.00  0.00    +0.221 C 
BRANCH  16  25
ATOM     17  C   UNL     1      -0.518   9.901  -6.373  0.00  0.00    +0.001 A 
ATOM     18  C   UNL     1       0.709   9.684  -6.973  0.00  0.00    +0.002 A 
ATOM     19  C   UNL     1       1.741   9.121  -6.237  0.00  0.00    +0.029 A 
ATOM     20  C   UNL     1       1.534   8.786  -4.928  0.00  0.00    +0.121 A 
ATOM     21  C   UNL     1       0.302   8.993  -4.293  0.00  0.00    +0.065 A 
ATOM     22  C   UNL     1      -0.731   9.565  -5.055  0.00  0.00    +0.015 A 
ATOM     23  C   UNL     1       0.312   8.559  -2.889  0.00  0.00    +0.269 C 
ATOM     24  O   UNL     1      -0.680   8.670  -2.195  0.00  0.00    -0.268 OA
ATOM     25  N   UNL     1       1.445   8.037  -2.395  0.00  0.00    -0.153 N 
ATOM     26  S   UNL     1       2.542   8.074  -3.657  0.00  0.00    +0.079 S 
ATOM     27  O   UNL     1       3.551   9.018  -3.324  0.00  0.00    -0.150 OA
ATOM     28  O   UNL     1       2.818   6.731  -4.029  0.00  0.00    -0.150 OA
ENDBRANCH  16  25
ENDBRANCH   1  16
TORSDOF 4
