REMARK  Name = ZINC02343341
REMARK  11 active torsions:
REMARK  status: ('A' for Active; 'I' for Inactive)
REMARK    1  A    between atoms: C_1  and  C_2
REMARK    2  A    between atoms: C_2  and  C_3
REMARK    3  A    between atoms: C_3  and  C_4
REMARK    4  A    between atoms: C_4  and  C_5
REMARK    5  A    between atoms: C_5  and  C_6
REMARK    6  A    between atoms: C_18  and  C_32
REMARK    7  A    between atoms: C_25  and  C_27
REMARK    8  A    between atoms: C_35  and  C_38
REMARK    9  A    between atoms: C_38  and  C_39
REMARK   10  A    between atoms: C_38  and  C_40
REMARK   11  A    between atoms: C_38  and  C_41
REMARK                            x       y       z     vdW  Elec       q    Type
REMARK                         _______ _______ _______ _____ _____    ______ ____
ROOT
ATOM      1  C   UNL     1      -4.180   2.141   1.629  0.00  0.00    +0.220 C 
ATOM      2  O   UNL     1      -4.133   0.930   1.680  0.00  0.00    -0.275 OA
ATOM      3  N   UNL     1      -3.042   2.856   1.527  0.00  0.00    -0.258 N 
ATOM      4  C   UNL     1      -3.086   4.254   1.466  0.00  0.00    +0.058 A 
ATOM      5  C   UNL     1      -3.496   5.009   2.550  0.00  0.00    +0.025 A 
ATOM      6  C   UNL     1      -3.495   6.390   2.468  0.00  0.00    +0.002 A 
ATOM      7  C   UNL     1      -3.087   7.021   1.307  0.00  0.00    +0.002 A 
ATOM      8  C   UNL     1      -2.685   6.275   0.213  0.00  0.00    +0.025 A 
ATOM      9  C   UNL     1      -2.690   4.895   0.285  0.00  0.00    +0.053 A 
ATOM     10  N   UNL     1      -2.310   4.098  -0.800  0.00  0.00    -0.316 N 
ATOM     11  C   UNL     1      -1.186   3.272  -0.684  0.00  0.00    +0.017 C 
ATOM     12  C   UNL     1      -0.061   3.700  -1.206  0.00  0.00    +0.001 C 
ATOM     13  C   UNL     1       1.229   2.940  -1.204  0.00  0.00    +0.050 C 
ATOM     14  C   UNL     1       1.276   1.993   0.001  0.00  0.00    +0.087 C 
ATOM     15  C   UNL     1      -0.014   1.203   0.009  0.00  0.00    +0.145 C 
ATOM     16  O   UNL     1       0.002  -0.004   0.002  0.00  0.00    -0.297 OA
ATOM     17  C   UNL     1      -1.321   1.956   0.019  0.00  0.00    +0.127 C 
ATOM     18  C   UNL     1      -1.743   2.180   1.478  0.00  0.00    +0.163 C 
ATOM     19  H   UNL     1      -2.821   4.118  -1.625  0.00  0.00    +0.152 HD
ENDROOT
BRANCH  13  20
ATOM     20  C   UNL     1       1.339   2.138  -2.475  0.00  0.00    -0.040 A 
ATOM     21  C   UNL     1       0.395   1.171  -2.766  0.00  0.00    +0.004 A 
ATOM     22  C   UNL     1       0.494   0.439  -3.935  0.00  0.00    +0.004 A 
ATOM     23  C   UNL     1       1.542   0.667  -4.807  0.00  0.00    -0.042 A 
ATOM     24  C   UNL     1       2.489   1.630  -4.513  0.00  0.00    +0.004 A 
ATOM     25  C   UNL     1       2.387   2.366  -3.347  0.00  0.00    +0.004 A 
BRANCH  23  26
ATOM     26  C   UNL     1       1.652  -0.135  -6.078  0.00  0.00    -0.013 C 
ATOM     27  C   UNL     1       2.975  -0.903  -6.083  0.00  0.00    +0.015 C 
ATOM     28  C   UNL     1       0.487  -1.123  -6.160  0.00  0.00    +0.015 C 
ATOM     29  C   UNL     1       1.606   0.809  -7.282  0.00  0.00    +0.015 C 
ENDBRANCH  23  26
ENDBRANCH  13  20
BRANCH  18  30
ATOM     30  C   UNL     1      -0.710   3.031   2.172  0.00  0.00    +0.127 A 
ATOM     31  C   UNL     1       0.265   2.580   2.981  0.00  0.00    +0.046 A 
ATOM     32  C   UNL     1       0.999   3.712   3.407  0.00  0.00    +0.041 A 
ATOM     33  C   UNL     1       0.423   4.786   2.840  0.00  0.00    +0.195 A 
ATOM     34  O   UNL     1      -0.612   4.368   2.093  0.00  0.00    -0.466 OA
ENDBRANCH  18  30
BRANCH   1  35
ATOM     35  C   UNL     1      -5.511   2.846   1.678  0.00  0.00    +0.096 C 
BRANCH  35  36
ATOM     36  C   UNL     1      -6.632   1.812   1.793  0.00  0.00    +0.009 C 
BRANCH  36  37
ATOM     37  C   UNL     1      -7.984   2.527   1.844  0.00  0.00    +0.000 C 
BRANCH  37  39
ATOM     38  C   UNL     1     -10.456   2.209   2.009  0.00  0.00    +0.004 C 
ATOM     39  C   UNL     1      -9.105   1.493   1.959  0.00  0.00    -0.003 C 
ENDBRANCH  37  39
ENDBRANCH  36  37
ENDBRANCH  35  36
ENDBRANCH   1  35
TORSDOF 7
