REMARK  Name = ZINC12064298
REMARK  10 active torsions:
REMARK  status: ('A' for Active; 'I' for Inactive)
REMARK    1  A    between atoms: C_1  and  C_2
REMARK    2  A    between atoms: C_2  and  N_3
REMARK    3  A    between atoms: N_3  and  C_4
REMARK    4  A    between atoms: N_3  and  S_10
REMARK    5  A    between atoms: S_10  and  C_13
REMARK    6  A    between atoms: C_16  and  C_19
REMARK    7  A    between atoms: N_21  and  C_22
REMARK    8  A    between atoms: C_23  and  C_33
REMARK    9  A    between atoms: C_28  and  C_32
REMARK   10  A    between atoms: N_35  and  C_36
REMARK                            x       y       z     vdW  Elec       q    Type
REMARK                         _______ _______ _______ _____ _____    ______ ____
ROOT
ATOM      1  C   UNL     1       5.438   0.085  -4.221  0.00  0.00    +0.249 C 
ATOM      2  O   UNL     1       5.650   0.224  -3.033  0.00  0.00    -0.270 OA
ATOM      3  N   UNL     1       4.191  -0.185  -4.657  0.00  0.00    -0.275 N 
ATOM      4  H   UNL     1       4.022  -0.296  -5.605  0.00  0.00    +0.156 HD
ENDROOT
BRANCH   3   5
ATOM      5  C   UNL     1       3.151  -0.303  -3.749  0.00  0.00    +0.085 A 
ATOM      6  C   UNL     1       1.813  -0.574  -4.001  0.00  0.00    +0.069 A 
ATOM      7  C   UNL     1       0.916  -0.645  -2.860  0.00  0.00    -0.023 A 
ATOM      8  C   UNL     1       1.497  -0.436  -1.658  0.00  0.00    -0.004 A 
ATOM      9  S   UNL     1       3.205  -0.148  -2.024  0.00  0.00    -0.077 S 
ATOM     10  C   UNL     1       0.828  -0.449  -0.318  0.00  0.00    +0.046 C 
ATOM     11  C   UNL     1      -0.552  -1.105  -0.472  0.00  0.00    -0.009 C 
ATOM     12  C   UNL     1      -1.261  -0.484  -1.679  0.00  0.00    +0.008 C 
ATOM     13  C   UNL     1      -0.576  -0.932  -2.972  0.00  0.00    +0.037 C 
ATOM     14  C   UNL     1      -1.379  -0.863   0.792  0.00  0.00    +0.008 C 
BRANCH   6  15
ATOM     15  C   UNL     1       1.323  -0.780  -5.367  0.00  0.00    +0.246 C 
ATOM     16  O   UNL     1       1.312  -1.898  -5.848  0.00  0.00    -0.270 OA
ATOM     17  N   UNL     1       0.885   0.269  -6.091  0.00  0.00    -0.314 N 
ATOM     18  C   UNL     1       0.396   0.064  -7.457  0.00  0.00    +0.128 C 
ATOM     19  H   UNL     1       0.894   1.161  -5.708  0.00  0.00    +0.149 HD
ENDBRANCH   6  15
ENDBRANCH   3   5
BRANCH   1  23
ATOM     20  C   UNL     1       8.627   0.448  -7.004  0.00  0.00    +0.109 A 
ATOM     21  C   UNL     1       8.871   0.607  -5.651  0.00  0.00    +0.029 A 
ATOM     22  C   UNL     1       7.840   0.490  -4.742  0.00  0.00    +0.015 A 
ATOM     23  C   UNL     1       6.548   0.211  -5.190  0.00  0.00    +0.037 A 
ATOM     24  C   UNL     1       6.309   0.046  -6.555  0.00  0.00    +0.015 A 
ATOM     25  C   UNL     1       7.348   0.171  -7.454  0.00  0.00    +0.029 A 
BRANCH  20  26
ATOM     26  S   UNL     1       9.949   0.598  -8.158  0.00  0.00    +0.075 S 
ATOM     27  O   UNL     1       9.363   0.946  -9.405  0.00  0.00    -0.150 OA
ATOM     28  O   UNL     1      10.944   1.399  -7.534  0.00  0.00    -0.150 OA
BRANCH  26  29
ATOM     29  N   UNL     1      10.607  -0.910  -8.349  0.00  0.00    -0.203 N 
BRANCH  29  30
ATOM     30  C   UNL     1      11.726  -1.283  -7.601  0.00  0.00    +0.051 A 
ATOM     31  C   UNL     1      11.656  -2.371  -6.740  0.00  0.00    +0.025 A 
ATOM     32  C   UNL     1      12.766  -2.740  -6.005  0.00  0.00    +0.002 A 
ATOM     33  C   UNL     1      13.943  -2.023  -6.119  0.00  0.00    +0.000 A 
ATOM     34  C   UNL     1      14.014  -0.936  -6.971  0.00  0.00    +0.002 A 
ATOM     35  C   UNL     1      12.909  -0.564  -7.713  0.00  0.00    +0.025 A 
ENDBRANCH  29  30
BRANCH  29  37
ATOM     36  C   UNL     1      10.756  -1.759 -10.637  0.00  0.00    +0.026 C 
ATOM     37  C   UNL     1      10.015  -1.852  -9.302  0.00  0.00    +0.128 C 
ENDBRANCH  29  37
ENDBRANCH  26  29
ENDBRANCH  20  26
ENDBRANCH   1  23
TORSDOF 7
