REMARK  Name = ZINC09316520
REMARK  7 active torsions:
REMARK  status: ('A' for Active; 'I' for Inactive)
REMARK    1  A    between atoms: C_1  and  C_2
REMARK    2  A    between atoms: C_4  and  N_33
REMARK    3  A    between atoms: C_7  and  N_8
REMARK    4  A    between atoms: C_13  and  C_29
REMARK    5  A    between atoms: C_29  and  C_30
REMARK    6  A    between atoms: C_30  and  S_31
REMARK    7  A    between atoms: S_31  and  C_32
REMARK                            x       y       z     vdW  Elec       q    Type
REMARK                         _______ _______ _______ _____ _____    ______ ____
ROOT
ATOM      1  N   UNL     1      -3.624  -0.331  -2.565  0.00  0.00    -0.210 N 
ATOM      2  C   UNL     1      -4.139   0.112  -1.373  0.00  0.00    +0.228 C 
ATOM      3  O   UNL     1      -5.304   0.303  -1.098  0.00  0.00    -0.275 OA
ATOM      4  C   UNL     1      -2.950   0.307  -0.486  0.00  0.00    +0.073 C 
ATOM      5  C   UNL     1      -2.983   0.007   0.997  0.00  0.00    -0.057 C 
ATOM      6  C   UNL     1      -1.071  -1.056   0.008  0.00  0.00    +0.050 C 
ATOM      7  C   UNL     1      -2.108  -0.916  -1.013  0.00  0.00    +0.088 C 
ATOM      8  C   UNL     1      -2.349  -0.827  -2.436  0.00  0.00    +0.229 C 
ATOM      9  O   UNL     1      -1.577  -1.116  -3.325  0.00  0.00    -0.275 OA
ATOM     10  C   UNL     1       0.002  -0.004   0.002  0.00  0.00    -0.028 A 
ATOM     11  C   UNL     1      -0.017   1.373   0.010  0.00  0.00    +0.004 A 
ATOM     12  C   UNL     1       1.169   2.085   0.002  0.00  0.00    +0.000 A 
ATOM     13  C   UNL     1       2.377   1.410  -0.014  0.00  0.00    +0.002 A 
ATOM     14  C   UNL     1       2.402   0.031  -0.021  0.00  0.00    +0.023 A 
ATOM     15  C   UNL     1       1.212  -0.693  -0.014  0.00  0.00    +0.036 A 
ATOM     16  N   UNL     1       0.983  -2.070  -0.020  0.00  0.00    -0.286 N 
ATOM     17  C   UNL     1      -0.329  -2.368  -0.009  0.00  0.00    +0.211 C 
ATOM     18  O   UNL     1      -0.820  -3.477  -0.013  0.00  0.00    -0.277 OA
ATOM     19  H   UNL     1       1.689  -2.736  -0.030  0.00  0.00    +0.155 HD
ATOM     20  N   UNL     1      -1.879  -0.949   1.254  0.00  0.00    +0.394 N 
ATOM     21  H   UNL     1      -2.264  -1.869   1.500  0.00  0.00    -0.083 HD
ATOM     22  H   UNL     1      -1.292  -0.606   2.023  0.00  0.00    -0.083 HD
ENDROOT
BRANCH   1  29
ATOM     23  C   UNL     1      -5.219  -2.574  -3.293  0.00  0.00    +0.046 C 
ATOM     24  C   UNL     1      -5.110  -1.355  -4.173  0.00  0.00    -0.026 A 
ATOM     25  C   UNL     1      -5.800  -1.303  -5.369  0.00  0.00    +0.038 A 
ATOM     26  C   UNL     1      -5.697  -0.188  -6.179  0.00  0.00    +0.127 A 
ATOM     27  C   UNL     1      -4.908   0.881  -5.794  0.00  0.00    +0.034 A 
ATOM     28  C   UNL     1      -4.221   0.836  -4.597  0.00  0.00    +0.026 A 
ATOM     29  C   UNL     1      -4.322  -0.282  -3.781  0.00  0.00    +0.047 A 
BRANCH  26  30
ATOM     30  N   UNL     1      -6.433  -0.137  -7.463  0.00  0.00    +0.056 N 
ATOM     31  O   UNL     1      -6.343   0.845  -8.178  0.00  0.00    -0.126 OA
ATOM     32  O   UNL     1      -7.128  -1.077  -7.804  0.00  0.00    -0.126 OA
ENDBRANCH  26  30
ENDBRANCH   1  29
BRANCH   5  33
ATOM     33  C   UNL     1      -4.328  -0.619   1.375  0.00  0.00    -0.004 C 
BRANCH  33  34
ATOM     34  C   UNL     1      -4.387  -0.825   2.890  0.00  0.00    +0.067 C 
BRANCH  34  35
ATOM     35  S   UNL     1      -5.980  -1.567   3.337  0.00  0.00    -0.164 S 
ATOM     36  C   UNL     1      -5.891  -1.744   5.140  0.00  0.00    +0.084 C 
ENDBRANCH  34  35
ENDBRANCH  33  34
ENDBRANCH   5  33
TORSDOF 5
