REMARK  Name = ZINC19880967
REMARK  13 active torsions:
REMARK  status: ('A' for Active; 'I' for Inactive)
REMARK    1  A    between atoms: C_1  and  C_2
REMARK    2  A    between atoms: C_3  and  C_33
REMARK    3  A    between atoms: C_4  and  C_23
REMARK    4  A    between atoms: C_10  and  C_15
REMARK    5  A    between atoms: C_18  and  O_21
REMARK    6  A    between atoms: O_21  and  C_22
REMARK    7  A    between atoms: C_25  and  O_31
REMARK    8  A    between atoms: C_26  and  O_30
REMARK    9  A    between atoms: O_31  and  C_32
REMARK   10  A    between atoms: C_33  and  O_35
REMARK   11  A    between atoms: O_35  and  C_36
REMARK   12  A    between atoms: C_36  and  C_37
REMARK   13  A    between atoms: C_36  and  C_38
REMARK                            x       y       z     vdW  Elec       q    Type
REMARK                         _______ _______ _______ _____ _____    ______ ____
ROOT
ATOM      1  C   UNL     1       6.465  -1.236  -3.837  0.00  0.00    +0.061 C 
ATOM      2  C   UNL     1       6.161  -0.563  -2.523  0.00  0.00    +0.016 C 
ATOM      3  C   UNL     1       6.851  -0.906  -1.422  0.00  0.00    +0.065 C 
ATOM      4  C   UNL     1       6.580  -0.253  -0.098  0.00  0.00    +0.092 C 
ATOM      5  C   UNL     1       5.239   0.436  -0.100  0.00  0.00    +0.024 C 
ATOM      6  C   UNL     1       4.615   0.729  -1.261  0.00  0.00    +0.016 C 
ATOM      7  N   UNL     1       5.184   0.392  -2.459  0.00  0.00    -0.321 N 
ATOM      8  C   UNL     1       3.279   1.429  -1.270  0.00  0.00    +0.059 C 
ATOM      9  C   UNL     1       2.490   1.045  -0.016  0.00  0.00    +0.032 C 
ATOM     10  C   UNL     1       3.314   1.435   1.215  0.00  0.00    +0.088 C 
ATOM     11  C   UNL     1       4.657   0.762   1.138  0.00  0.00    +0.162 C 
ATOM     12  O   UNL     1       5.250   0.494   2.164  0.00  0.00    -0.292 OA
ATOM     13  H   UNL     1       4.849   0.897  -3.377  0.00  0.00    +0.152 HD
ENDROOT
BRANCH   4  14
ATOM     14  C   UNL     1       7.657   0.764   0.181  0.00  0.00    -0.030 A 
ATOM     15  C   UNL     1       8.451   0.636   1.306  0.00  0.00    +0.054 A 
ATOM     16  C   UNL     1       9.441   1.569   1.565  0.00  0.00    +0.163 A 
ATOM     17  C   UNL     1       9.634   2.635   0.691  0.00  0.00    +0.177 A 
ATOM     18  C   UNL     1       8.835   2.758  -0.434  0.00  0.00    +0.086 A 
ATOM     19  C   UNL     1       7.851   1.819  -0.690  0.00  0.00    +0.028 A 
ATOM     20 CL   UNL     1       9.072   4.087  -1.527  0.00  0.00    -0.080 Cl
BRANCH  17  21
ATOM     21  O   UNL     1      10.606   3.554   0.941  0.00  0.00    -0.502 OA
ATOM     22  H   UNL     1      10.757   4.396   0.250  0.00  0.00    +0.292 HD
ENDBRANCH  17  21
BRANCH  16  23
ATOM     23  O   UNL     1      10.224   1.444   2.670  0.00  0.00    -0.491 OA
ATOM     24  C   UNL     1       9.969   0.325   3.522  0.00  0.00    +0.277 C 
ENDBRANCH  16  23
ENDBRANCH   4  14
BRANCH   9  25
ATOM     25  C   UNL     1       1.176   1.783   0.000  0.00  0.00    -0.043 A 
ATOM     26  C   UNL     1      -0.013   1.076   0.008  0.00  0.00    +0.007 A 
ATOM     27  C   UNL     1      -1.218   1.750   0.017  0.00  0.00    +0.046 A 
ATOM     28  C   UNL     1      -1.237   3.137   0.031  0.00  0.00    +0.120 A 
ATOM     29  C   UNL     1      -0.043   3.844   0.024  0.00  0.00    +0.046 A 
ATOM     30  C   UNL     1       1.160   3.165   0.008  0.00  0.00    +0.007 A 
BRANCH  28  31
ATOM     31  O   UNL     1      -2.422   3.802   0.045  0.00  0.00    -0.495 OA
ATOM     32  C   UNL     1      -3.611   3.009   0.052  0.00  0.00    +0.277 C 
ENDBRANCH  28  31
ENDBRANCH   9  25
BRANCH   3  33
ATOM     33  C   UNL     1       7.851  -1.902  -1.512  0.00  0.00    +0.338 C 
ATOM     34  O   UNL     1       8.080  -2.439  -2.579  0.00  0.00    -0.245 OA
BRANCH  33  35
ATOM     35  O   UNL     1       8.552  -2.256  -0.414  0.00  0.00    -0.459 OA
BRANCH  35  36
ATOM     36  C   UNL     1       9.547  -3.268  -0.579  0.00  0.00    +0.171 C 
ATOM     37  C   UNL     1      10.678  -3.040   0.426  0.00  0.00    +0.052 C 
ATOM     38  C   UNL     1       8.921  -4.643  -0.337  0.00  0.00    +0.052 C 
ENDBRANCH  35  36
ENDBRANCH  33  35
ENDBRANCH   3  33
TORSDOF 8
