REMARK  Name = ZINC32906003
REMARK  7 active torsions:
REMARK  status: ('A' for Active; 'I' for Inactive)
REMARK    1  A    between atoms: C_1  and  C_2
REMARK    2  A    between atoms: C_5  and  C_8
REMARK    3  A    between atoms: C_10  and  C_13
REMARK    4  A    between atoms: C_13  and  S_14
REMARK    5  A    between atoms: S_14  and  C_15
REMARK    6  A    between atoms: C_18  and  C_21
REMARK    7  A    between atoms: N_19  and  C_20
REMARK                            x       y       z     vdW  Elec       q    Type
REMARK                         _______ _______ _______ _____ _____    ______ ____
ROOT
ATOM      1  C   UNL     1       5.367   7.148  -0.017  0.00  0.00    +0.192 A 
ATOM      2  N   UNL     1       5.259   6.509  -1.159  0.00  0.00    -0.122 NA
ATOM      3  N   UNL     1       4.198   5.782  -1.155  0.00  0.00    -0.130 NA
ATOM      4  C   UNL     1       3.571   5.913  -0.020  0.00  0.00    +0.178 A 
ATOM      5  N   UNL     1       4.290   6.792   0.743  0.00  0.00    -0.306 N 
ATOM      6  C   UNL     1       3.972   7.252   2.097  0.00  0.00    +0.153 C 
ENDROOT
BRANCH   4   7
ATOM      7  C   UNL     1       2.288   5.229   0.376  0.00  0.00    +0.278 C 
ATOM      8  C   UNL     1       1.106   5.888  -0.348  0.00  0.00    +0.281 C 
ATOM      9  O   UNL     1      -0.092   5.206   0.039  0.00  0.00    -0.484 OA
ATOM     10  C   UNL     1      -0.054   3.846   0.025  0.00  0.00    +0.162 A 
ATOM     11  C   UNL     1      -1.243   3.131   0.031  0.00  0.00    +0.049 A 
ATOM     12  C   UNL     1      -1.220   1.750   0.017  0.00  0.00    +0.004 A 
ATOM     13  C   UNL     1      -0.013   1.076   0.008  0.00  0.00    +0.004 A 
ATOM     14  C   UNL     1       1.175   1.782   0.000  0.00  0.00    +0.049 A 
ATOM     15  C   UNL     1       1.160   3.169   0.007  0.00  0.00    +0.163 A 
ATOM     16  O   UNL     1       2.337   3.850  -0.008  0.00  0.00    -0.474 OA
ENDBRANCH   4   7
BRANCH   1  17
ATOM     17  S   UNL     1       6.653   8.260   0.444  0.00  0.00    -0.078 S 
BRANCH  17  18
ATOM     18  C   UNL     1       7.664   8.210  -1.057  0.00  0.00    +0.157 C 
BRANCH  18  21
ATOM     19  C   UNL     1      10.790   9.859  -0.428  0.00  0.00    +0.258 A 
ATOM     20  N   UNL     1      10.054   8.762  -0.390  0.00  0.00    -0.191 NA
ATOM     21  C   UNL     1       8.858   9.114  -0.888  0.00  0.00    +0.182 A 
ATOM     22  N   UNL     1       8.919  10.374  -1.204  0.00  0.00    -0.060 NA
ATOM     23  O   UNL     1      10.014  10.824  -0.945  0.00  0.00    -0.333 OA
BRANCH  19  28
ATOM     24  C   UNL     1      16.255  10.392   1.292  0.00  0.00    +0.044 C 
ATOM     25  C   UNL     1      14.824  10.252   0.841  0.00  0.00    -0.050 A 
ATOM     26  C   UNL     1      14.154  11.348   0.325  0.00  0.00    +0.004 A 
ATOM     27  C   UNL     1      12.844  11.226  -0.089  0.00  0.00    +0.013 A 
ATOM     28  C   UNL     1      12.194   9.996   0.013  0.00  0.00    +0.039 A 
ATOM     29  C   UNL     1      12.873   8.896   0.540  0.00  0.00    +0.013 A 
ATOM     30  C   UNL     1      14.185   9.029   0.945  0.00  0.00    +0.004 A 
ENDBRANCH  19  28
ENDBRANCH  18  21
ENDBRANCH  17  18
ENDBRANCH   1  17
TORSDOF 5
