REMARK  Name = ZINC64793257
REMARK  7 active torsions:
REMARK  status: ('A' for Active; 'I' for Inactive)
REMARK    1  A    between atoms: C_1  and  C_2
REMARK    2  A    between atoms: C_5  and  C_8
REMARK    3  A    between atoms: C_11  and  C_29
REMARK    4  A    between atoms: N_12  and  C_18
REMARK    5  A    between atoms: C_18  and  C_19
REMARK    6  A    between atoms: C_26  and  C_28
REMARK    7  A    between atoms: C_32  and  C_35
REMARK                            x       y       z     vdW  Elec       q    Type
REMARK                         _______ _______ _______ _____ _____    ______ ____
ROOT
ATOM      1  C   UNL     1      -0.477  -4.752  -0.276  0.00  0.00    +0.167 C 
ATOM      2  C   UNL     1      -1.551  -5.221   0.668  0.00  0.00    +0.028 C 
ATOM      3  C   UNL     1      -1.308  -5.635   1.903  0.00  0.00    +0.043 C 
ATOM      4  N   UNL     1      -0.010  -5.674   2.432  0.00  0.00    -0.259 N 
ATOM      5  C   UNL     1       1.039  -5.515   1.541  0.00  0.00    +0.243 A 
ATOM      6  N   UNL     1       0.833  -5.088   0.268  0.00  0.00    -0.202 N 
ATOM      7  N   UNL     1       2.096  -5.058  -0.322  0.00  0.00    -0.042 NA
ATOM      8  N   UNL     1       2.935  -5.442   0.585  0.00  0.00    -0.021 NA
ATOM      9  N   UNL     1       2.319  -5.710   1.683  0.00  0.00    -0.092 NA
ENDROOT
BRANCH   1  14
ATOM     10  C   UNL     1      -0.874   0.975  -0.940  0.00  0.00    +0.044 C 
ATOM     11  C   UNL     1      -0.770  -0.518  -0.766  0.00  0.00    -0.050 A 
ATOM     12  C   UNL     1      -0.899  -1.352  -1.862  0.00  0.00    +0.004 A 
ATOM     13  C   UNL     1      -0.804  -2.722  -1.703  0.00  0.00    +0.006 A 
ATOM     14  C   UNL     1      -0.579  -3.258  -0.449  0.00  0.00    -0.019 A 
ATOM     15  C   UNL     1      -0.450  -2.425   0.646  0.00  0.00    +0.006 A 
ATOM     16  C   UNL     1      -0.540  -1.055   0.487  0.00  0.00    +0.004 A 
ENDBRANCH   1  14
BRANCH   3  17
ATOM     17  C   UNL     1      -2.442  -6.069   2.752  0.00  0.00    -0.004 A 
ATOM     18  C   UNL     1      -3.560  -5.250   2.897  0.00  0.00    +0.010 A 
ATOM     19  C   UNL     1      -4.614  -5.660   3.689  0.00  0.00    +0.004 A 
ATOM     20  C   UNL     1      -4.561  -6.881   4.337  0.00  0.00    -0.050 A 
ATOM     21  C   UNL     1      -3.454  -7.698   4.197  0.00  0.00    +0.004 A 
ATOM     22  C   UNL     1      -2.397  -7.301   3.403  0.00  0.00    +0.010 A 
ATOM     23  C   UNL     1      -5.715  -7.322   5.201  0.00  0.00    +0.044 C 
ENDBRANCH   3  17
BRANCH   4  24
ATOM     24  C   UNL     1       0.226  -5.875   3.864  0.00  0.00    +0.209 C 
BRANCH  24  25
ATOM     25  C   UNL     1       0.503  -7.332   4.128  0.00  0.00    +0.234 C 
ATOM     26  O   UNL     1       0.612  -8.107   3.201  0.00  0.00    -0.274 OA
ATOM     27  N   UNL     1       0.629  -7.776   5.395  0.00  0.00    -0.297 N 
ATOM     28  C   UNL     1       0.615  -6.834   6.523  0.00  0.00    +0.108 C 
ATOM     29  C   UNL     1      -0.451  -7.282   7.527  0.00  0.00    +0.019 C 
ATOM     30  C   UNL     1      -0.191  -8.737   7.926  0.00  0.00    +0.003 C 
ATOM     31  C   UNL     1      -0.286  -9.632   6.688  0.00  0.00    +0.022 C 
ATOM     32  C   UNL     1       0.776  -9.210   5.675  0.00  0.00    +0.073 C 
ATOM     33  C   UNL     1       0.593 -10.007   4.381  0.00  0.00    +0.028 C 
ENDBRANCH  24  25
ENDBRANCH   4  24
TORSDOF 4
