REMARK  Name = ZINC63294834
REMARK  13 active torsions:
REMARK  status: ('A' for Active; 'I' for Inactive)
REMARK    1  A    between atoms: C_1  and  C_2
REMARK    2  A    between atoms: C_3  and  C_19
REMARK    3  A    between atoms: C_5  and  C_7
REMARK    4  A    between atoms: C_9  and  O_17
REMARK    5  A    between atoms: C_10  and  O_15
REMARK    6  A    between atoms: C_11  and  O_13
REMARK    7  A    between atoms: O_13  and  C_14
REMARK    8  A    between atoms: O_15  and  C_16
REMARK    9  A    between atoms: O_17  and  C_18
REMARK   10  A    between atoms: N_21  and  C_22
REMARK   11  A    between atoms: C_22  and  C_24
REMARK   12  A    between atoms: C_22  and  C_25
REMARK   13  A    between atoms: C_25  and  C_26
REMARK                            x       y       z     vdW  Elec       q    Type
REMARK                         _______ _______ _______ _____ _____    ______ ____
ROOT
ATOM      1  C   UNL     1      -0.018   1.503   0.010  0.00  0.00    +0.067 C 
ATOM      2  C   UNL     1       0.002  -0.004   0.002  0.00  0.00    +0.058 A 
ATOM      3  C   UNL     1       0.006  -0.730  -1.183  0.00  0.00    +0.097 A 
ATOM      4  S   UNL     1       0.033  -2.398  -0.546  0.00  0.00    -0.062 S 
ATOM      5  C   UNL     1       0.036  -2.022   1.094  0.00  0.00    +0.109 A 
ATOM      6  N   UNL     1       0.022  -0.699   1.109  0.00  0.00    -0.243 NA
ENDROOT
BRANCH   5   7
ATOM      7  C   UNL     1       0.054  -2.948   2.244  0.00  0.00    +0.014 A 
ATOM      8  C   UNL     1       0.077  -4.328   2.031  0.00  0.00    +0.060 A 
ATOM      9  C   UNL     1       0.095  -5.193   3.109  0.00  0.00    +0.166 A 
ATOM     10  C   UNL     1       0.088  -4.690   4.407  0.00  0.00    +0.204 A 
ATOM     11  C   UNL     1       0.065  -3.315   4.622  0.00  0.00    +0.166 A 
ATOM     12  C   UNL     1       0.054  -2.446   3.547  0.00  0.00    +0.060 A 
BRANCH  11  13
ATOM     13  O   UNL     1       0.059  -2.827   5.892  0.00  0.00    -0.491 OA
ATOM     14  C   UNL     1       0.035  -1.406   6.040  0.00  0.00    +0.277 C 
ENDBRANCH  11  13
BRANCH  10  15
ATOM     15  O   UNL     1       0.105  -5.543   5.466  0.00  0.00    -0.488 OA
ATOM     16  C   UNL     1       1.386  -5.928   5.969  0.00  0.00    +0.277 C 
ENDBRANCH  10  15
BRANCH   9  17
ATOM     17  O   UNL     1       0.117  -6.537   2.902  0.00  0.00    -0.491 OA
ATOM     18  C   UNL     1       0.121  -6.984   1.545  0.00  0.00    +0.277 C 
ENDBRANCH   9  17
ENDBRANCH   5   7
BRANCH   3  19
ATOM     19  C   UNL     1      -0.007  -0.258  -2.570  0.00  0.00    +0.253 C 
ATOM     20  O   UNL     1      -0.025   0.936  -2.806  0.00  0.00    -0.270 OA
ATOM     21  N   UNL     1      -0.000  -1.145  -3.584  0.00  0.00    -0.308 N 
ATOM     22  H   UNL     1       0.014  -2.096  -3.396  0.00  0.00    +0.149 HD
BRANCH  21  23
ATOM     23  C   UNL     1      -0.014  -0.673  -4.971  0.00  0.00    +0.074 C 
ATOM     24  C   UNL     1       1.417  -0.369  -5.420  0.00  0.00    +0.028 C 
BRANCH  23  25
ATOM     25  C   UNL     1      -0.613  -1.754  -5.872  0.00  0.00    +0.055 C 
BRANCH  25  26
ATOM     26  C   UNL     1      -2.060  -1.966  -5.508  0.00  0.00    -0.040 C 
ATOM     27  C   UNL     1      -3.138  -1.396  -6.095  0.00  0.00    -0.001 A 
ATOM     28  C   UNL     1      -3.279  -0.445  -7.204  0.00  0.00    +0.010 A 
ATOM     29  C   UNL     1      -4.518  -0.048  -7.574  0.00  0.00    +0.001 A 
ATOM     30  C   UNL     1      -5.668  -0.521  -6.926  0.00  0.00    +0.002 A 
ATOM     31  C   UNL     1      -5.618  -1.396  -5.899  0.00  0.00    +0.026 A 
ATOM     32  C   UNL     1      -4.367  -1.881  -5.428  0.00  0.00    +0.043 A 
ATOM     33  N   UNL     1      -4.061  -2.718  -4.466  0.00  0.00    -0.380 N 
ATOM     34  C   UNL     1      -2.602  -2.863  -4.418  0.00  0.00    +0.144 C 
ATOM     35  H   UNL     1      -4.694  -3.168  -3.885  0.00  0.00    +0.160 HD
ENDBRANCH  25  26
ENDBRANCH  23  25
ENDBRANCH  21  23
ENDBRANCH   3  19
TORSDOF 8
