REMARK  Name = ZINC12285171
REMARK  11 active torsions:
REMARK  status: ('A' for Active; 'I' for Inactive)
REMARK    1  A    between atoms: C_1  and  C_2
REMARK    2  A    between atoms: C_2  and  O_3
REMARK    3  A    between atoms: O_3  and  C_4
REMARK    4  A    between atoms: C_6  and  C_23
REMARK    5  A    between atoms: C_9  and  O_10
REMARK    6  A    between atoms: O_10  and  C_11
REMARK    7  A    between atoms: C_11  and  C_12
REMARK    8  A    between atoms: C_12  and  O_13
REMARK    9  A    between atoms: O_13  and  C_14
REMARK   10  A    between atoms: C_16  and  C_21
REMARK   11  A    between atoms: C_19  and  C_20
REMARK                            x       y       z     vdW  Elec       q    Type
REMARK                         _______ _______ _______ _____ _____    ______ ____
ROOT
ATOM      1  C   UNL     1      -1.470  -1.836   1.045  0.00  0.00    +0.164 A 
ATOM      2  C   UNL     1      -1.365  -0.493   0.748  0.00  0.00    +0.057 A 
ATOM      3  C   UNL     1      -0.134   0.036   0.332  0.00  0.00    -0.019 A 
ATOM      4  C   UNL     1       0.986  -0.802   0.232  0.00  0.00    +0.032 A 
ATOM      5  C   UNL     1       0.873  -2.140   0.536  0.00  0.00    +0.087 A 
ATOM      6  C   UNL     1      -0.350  -2.663   0.943  0.00  0.00    +0.180 A 
ATOM      7 CL   UNL     1       2.260  -3.177   0.413  0.00  0.00    -0.080 Cl
ENDROOT
BRANCH   3   8
ATOM      8  C   UNL     1      -0.018   1.458   0.010  0.00  0.00    +0.026 C 
ATOM      9  C   UNL     1      -0.972   2.068  -0.781  0.00  0.00    +0.100 C 
ATOM     10  C   UNL     1      -1.992   1.282  -1.503  0.00  0.00    +0.255 C 
ATOM     11  O   UNL     1      -2.020   0.068  -1.420  0.00  0.00    -0.270 OA
ATOM     12  N   UNL     1      -2.896   1.946  -2.252  0.00  0.00    -0.263 N 
ATOM     13  C   UNL     1      -2.873   3.282  -2.357  0.00  0.00    +0.143 C 
ATOM     14  S   UNL     1      -4.056   4.037  -3.338  0.00  0.00    -0.018 S 
ATOM     15  N   UNL     1      -1.974   4.059  -1.737  0.00  0.00    -0.263 N 
ATOM     16  C   UNL     1      -1.013   3.535  -0.948  0.00  0.00    +0.255 C 
ATOM     17  O   UNL     1      -0.204   4.250  -0.390  0.00  0.00    -0.270 OA
ATOM     18  H   UNL     1      -3.575   1.445  -2.730  0.00  0.00    +0.157 HD
ATOM     19  H   UNL     1      -2.016   5.020  -1.857  0.00  0.00    +0.157 HD
ENDBRANCH   3   8
BRANCH   1  20
ATOM     20  O   UNL     1      -2.663  -2.353   1.443  0.00  0.00    -0.489 OA
BRANCH  20  22
ATOM     21  C   UNL     1      -5.013  -2.207   1.987  0.00  0.00    +0.048 C 
ATOM     22  C   UNL     1      -3.766  -1.449   1.526  0.00  0.00    +0.226 C 
ENDBRANCH  20  22
ENDBRANCH   1  20
BRANCH   6  23
ATOM     23  O   UNL     1      -0.456  -3.983   1.241  0.00  0.00    -0.483 OA
BRANCH  23  24
ATOM     24  C   UNL     1      -0.210  -4.364   2.596  0.00  0.00    +0.270 C 
BRANCH  24  25
ATOM     25  C   UNL     1      -0.375  -5.878   2.738  0.00  0.00    +0.270 C 
BRANCH  25  26
ATOM     26  O   UNL     1       0.632  -6.541   1.971  0.00  0.00    -0.488 OA
BRANCH  26  27
ATOM     27  C   UNL     1       0.627  -7.900   1.989  0.00  0.00    +0.124 A 
ATOM     28  C   UNL     1      -0.327  -8.582   2.730  0.00  0.00    +0.049 A 
ATOM     29  C   UNL     1      -0.330  -9.963   2.747  0.00  0.00    -0.047 A 
ATOM     30  C   UNL     1       0.617 -10.666   2.025  0.00  0.00    +0.004 A 
ATOM     31  C   UNL     1       1.570  -9.989   1.286  0.00  0.00    +0.007 A 
ATOM     32  C   UNL     1       1.573  -8.608   1.262  0.00  0.00    -0.009 A 
ATOM     33  C   UNL     1       2.608  -7.870   0.451  0.00  0.00    +0.047 C 
ATOM     34  C   UNL     1      -1.367 -10.704   3.551  0.00  0.00    +0.044 C 
ENDBRANCH  26  27
ENDBRANCH  25  26
ENDBRANCH  24  25
ENDBRANCH  23  24
ENDBRANCH   6  23
TORSDOF 8
