REMARK  Name = ZINC13064422
REMARK  10 active torsions:
REMARK  status: ('A' for Active; 'I' for Inactive)
REMARK    1  A    between atoms: C_1  and  C_2
REMARK    2  A    between atoms: C_2  and  C_3
REMARK    3  A    between atoms: C_3  and  C_5
REMARK    4  A    between atoms: C_3  and  N_67
REMARK    5  A    between atoms: N_9  and  C_10
REMARK    6  A    between atoms: C_10  and  C_11
REMARK    7  A    between atoms: C_17  and  C_18
REMARK    8  A    between atoms: C_17  and  N_67
REMARK    9  A    between atoms: C_23  and  C_24
REMARK   10  A    between atoms: C_23  and  N_67
REMARK                            x       y       z     vdW  Elec       q    Type
REMARK                         _______ _______ _______ _____ _____    ______ ____
ROOT
ATOM      1  N   UNL     1      -0.348   2.837   1.738  0.00  0.00    +0.392 N 
ATOM      2  H   UNL     1      -1.152   3.050   2.340  0.00  0.00    -0.080 HD
ENDROOT
BRANCH   1   3
ATOM      3  C   UNL     1      -0.133   1.375   1.723  0.00  0.00    +0.003 C 
BRANCH   3   4
ATOM      4  C   UNL     1      -0.149   0.868   3.142  0.00  0.00    +0.138 A 
ATOM      5  N   UNL     1       0.682   1.197   4.101  0.00  0.00    -0.115 NA
ATOM      6  N   UNL     1       0.338   0.556   5.164  0.00  0.00    -0.023 NA
ATOM      7  N   UNL     1      -0.687  -0.179   4.906  0.00  0.00    -0.044 NA
ATOM      8  N   UNL     1      -1.017  -0.015   3.670  0.00  0.00    -0.228 N 
BRANCH   8   9
ATOM      9  C   UNL     1      -2.129  -0.666   2.972  0.00  0.00    +0.178 C 
BRANCH   9  10
ATOM     10  C   UNL     1      -1.674  -2.030   2.450  0.00  0.00    +0.140 C 
ATOM     11  C   UNL     1      -2.830  -2.710   1.686  0.00  0.00    +0.035 C 
ATOM     12  C   UNL     1      -2.683  -4.194   2.119  0.00  0.00    +0.031 C 
ATOM     13  C   UNL     1      -2.184  -4.027   3.576  0.00  0.00    +0.160 C 
ATOM     14  O   UNL     1      -1.322  -2.878   3.549  0.00  0.00    -0.375 OA
ENDBRANCH   9  10
ENDBRANCH   8   9
ENDBRANCH   3   4
BRANCH   3  16
ATOM     15  C   UNL     1       1.379  -0.481   1.008  0.00  0.00    +0.002 C 
ATOM     16  C   UNL     1       1.213   1.038   1.077  0.00  0.00    -0.011 C 
ENDBRANCH   3  16
ENDBRANCH   1   3
BRANCH   1  17
ATOM     17  C   UNL     1       0.848   3.519   2.276  0.00  0.00    -0.034 C 
BRANCH  17  18
ATOM     18  C   UNL     1       0.479   4.936   2.630  0.00  0.00    -0.027 A 
ATOM     19  C   UNL     1       0.052   5.436   3.816  0.00  0.00    +0.009 A 
ATOM     20  C   UNL     1      -0.228   6.787   3.912  0.00  0.00    +0.008 A 
ATOM     21  C   UNL     1      -0.077   7.569   2.815  0.00  0.00    +0.045 A 
ATOM     22  S   UNL     1       0.484   6.391   1.596  0.00  0.00    -0.103 S 
ENDBRANCH  17  18
ENDBRANCH   1  17
BRANCH   1  23
ATOM     23  C   UNL     1      -0.632   3.320   0.370  0.00  0.00    -0.036 C 
BRANCH  23  24
ATOM     24  C   UNL     1      -2.061   2.985   0.027  0.00  0.00    +0.001 A 
ATOM     25  C   UNL     1      -3.043   3.891   0.263  0.00  0.00    +0.017 A 
ATOM     26  C   UNL     1      -4.419   3.539  -0.086  0.00  0.00    +0.002 A 
ATOM     27  C   UNL     1      -5.472   4.435   0.131  0.00  0.00    +0.059 A 
ATOM     28  C   UNL     1      -6.760   4.073  -0.204  0.00  0.00    +0.163 A 
ATOM     29  C   UNL     1      -7.016   2.815  -0.758  0.00  0.00    +0.164 A 
ATOM     30  C   UNL     1      -5.980   1.922  -0.976  0.00  0.00    +0.075 A 
ATOM     31  C   UNL     1      -4.678   2.271  -0.643  0.00  0.00    +0.053 A 
ATOM     32  N   UNL     1      -3.634   1.393  -0.852  0.00  0.00    -0.322 N 
ATOM     33  H   UNL     1      -3.813   0.520  -1.235  0.00  0.00    +0.169 HD
ATOM     34  C   UNL     1      -2.372   1.729  -0.532  0.00  0.00    +0.251 A 
ATOM     35  O   UNL     1      -1.475   0.928  -0.731  0.00  0.00    -0.268 OA
ATOM     36  O   UNL     1      -8.283   2.451  -1.095  0.00  0.00    -0.485 OA
ATOM     37  C   UNL     1      -9.347   3.218  -0.522  0.00  0.00    +0.270 C 
ATOM     38  C   UNL     1      -9.004   4.706  -0.674  0.00  0.00    +0.270 C 
ATOM     39  O   UNL     1      -7.774   4.955   0.016  0.00  0.00    -0.485 OA
ENDBRANCH  23  24
ENDBRANCH   1  23
TORSDOF 9
