REMARK  Name = ZINC01902788
REMARK  5 active torsions:
REMARK  status: ('A' for Active; 'I' for Inactive)
REMARK    1  A    between atoms: C_5  and  N_7
REMARK    2  A    between atoms: N_7  and  C_8
REMARK    3  A    between atoms: C_9  and  C_10
REMARK    4  A    between atoms: C_9  and  C_12
REMARK    5  A    between atoms: C_14  and  C_17
REMARK                            x       y       z     vdW  Elec       q    Type
REMARK                         _______ _______ _______ _____ _____    ______ ____
ROOT
ATOM      1  C   UNL     1       1.419  -4.779   0.011  0.00  0.00    +0.120 A 
ATOM      2  N   UNL     1       1.661  -6.067  -0.184  0.00  0.00    -0.238 NA
ATOM      3  C   UNL     1       2.894  -6.542  -0.170  0.00  0.00    +0.086 A 
ATOM      4  C   UNL     1       3.942  -5.687   0.051  0.00  0.00    +0.075 A 
ATOM      5  S   UNL     1       3.071  -4.136   0.235  0.00  0.00    -0.074 S 
ENDROOT
BRANCH   3   6
ATOM      6  C   UNL     1       3.142  -7.986  -0.390  0.00  0.00    +0.086 A 
ATOM      7  C   UNL     1       2.108  -8.862  -0.620  0.00  0.00    +0.028 A 
ATOM      8  C   UNL     1       2.451 -10.272  -0.826  0.00  0.00    +0.019 A 
ATOM      9  C   UNL     1       1.506 -11.176  -1.324  0.00  0.00    +0.026 A 
ATOM     10  C   UNL     1       1.857 -12.494  -1.510  0.00  0.00    +0.019 A 
ATOM     11  C   UNL     1       3.141 -12.928  -1.208  0.00  0.00    +0.019 A 
ATOM     12  C   UNL     1       4.083 -12.049  -0.715  0.00  0.00    +0.048 A 
ATOM     13  C   UNL     1       3.751 -10.717  -0.518  0.00  0.00    +0.139 A 
ATOM     14  O   UNL     1       4.662  -9.841  -0.030  0.00  0.00    -0.422 OA
ATOM     15  C   UNL     1       4.507  -8.541  -0.379  0.00  0.00    +0.347 A 
ATOM     16  O   UNL     1       5.466  -7.850  -0.670  0.00  0.00    -0.244 OA
ATOM     17 BR   UNL     1       0.584 -13.720  -2.182  0.00  0.00    -0.050 Br
ENDBRANCH   3   6
BRANCH   1  19
ATOM     18  C   UNL     1      -0.811  -4.380   0.969  0.00  0.00    +0.093 C 
ATOM     19  C   UNL     1       0.128  -4.065   0.033  0.00  0.00    +0.098 C 
BRANCH  18  20
ATOM     20  N   UNL     1      -0.515  -5.276   1.958  0.00  0.00    -0.319 N 
ATOM     21  H   UNL     1       0.332  -5.749   1.946  0.00  0.00    +0.152 HD
BRANCH  20  26
ATOM     22  C   UNL     1      -3.549  -5.066   4.022  0.00  0.00    +0.002 A 
ATOM     23  C   UNL     1      -3.248  -5.973   5.022  0.00  0.00    +0.001 A 
ATOM     24  C   UNL     1      -2.042  -6.649   5.007  0.00  0.00    +0.016 A 
ATOM     25  C   UNL     1      -1.133  -6.420   3.992  0.00  0.00    +0.034 A 
ATOM     26  C   UNL     1      -1.432  -5.510   2.986  0.00  0.00    +0.044 A 
ATOM     27  C   UNL     1      -2.645  -4.833   3.005  0.00  0.00    +0.024 A 
ATOM     28  I   UNL     1       0.695  -7.444   3.971  0.00  0.00    -0.042 I 
ENDBRANCH  20  26
ENDBRANCH  18  20
BRANCH  19  29
ATOM     29  C   UNL     1      -0.139  -3.039  -0.931  0.00  0.00    +0.103 C 
ATOM     30  N   UNL     1      -0.350  -2.226  -1.695  0.00  0.00    -0.191 NA
ENDBRANCH  19  29
ENDBRANCH   1  19
TORSDOF 5
