REMARK  Name = ZINC44714478
REMARK  7 active torsions:
REMARK  status: ('A' for Active; 'I' for Inactive)
REMARK    1  A    between atoms: C_1  and  C_2
REMARK    2  A    between atoms: C_3  and  C_14
REMARK    3  A    between atoms: C_6  and  C_12
REMARK    4  A    between atoms: C_14  and  C_15
REMARK    5  A    between atoms: C_15  and  N_16
REMARK    6  A    between atoms: C_17  and  C_19
REMARK    7  A    between atoms: C_30  and  C_32
REMARK                            x       y       z     vdW  Elec       q    Type
REMARK                         _______ _______ _______ _____ _____    ______ ____
ROOT
ATOM      1  C   UNL     1       2.295   1.276  -7.090  0.00  0.00    +0.100 C 
ATOM      2  C   UNL     1       1.570   2.618  -6.843  0.00  0.00    +0.121 C 
ATOM      3  N   UNL     1       2.660   3.614  -6.711  0.00  0.00    -0.296 N 
ATOM      4  C   UNL     1       3.656   3.208  -7.732  0.00  0.00    +0.115 C 
ATOM      5  C   UNL     1       3.662   1.668  -7.676  0.00  0.00    -0.004 C 
ATOM      6  C   UNL     1       4.786   1.178  -6.769  0.00  0.00    -0.010 C 
ATOM      7  C   UNL     1       6.136   1.530  -7.401  0.00  0.00    -0.082 C 
ATOM      8  N   UNL     1       6.238   0.899  -8.723  0.00  0.00    +0.379 N 
ATOM      9  C   UNL     1       5.210   1.444  -9.618  0.00  0.00    -0.082 C 
ATOM     10  C   UNL     1       3.821   1.089  -9.079  0.00  0.00    -0.010 C 
ATOM     11  C   UNL     1       2.730   4.653  -5.856  0.00  0.00    +0.247 C 
ATOM     12  O   UNL     1       1.889   4.784  -4.988  0.00  0.00    -0.270 OA
ATOM     13  H   UNL     1       7.151   1.081  -9.111  0.00  0.00    -0.086 HD
ATOM     14  H   UNL     1       6.107  -0.097  -8.630  0.00  0.00    -0.086 HD
ENDROOT
BRANCH  11  15
ATOM     15  C   UNL     1       3.830   5.635  -5.974  0.00  0.00    +0.037 A 
ATOM     16  C   UNL     1       4.528   5.763  -7.175  0.00  0.00    +0.013 A 
ATOM     17  C   UNL     1       5.553   6.682  -7.279  0.00  0.00    +0.001 A 
ATOM     18  C   UNL     1       5.888   7.473  -6.195  0.00  0.00    +0.000 A 
ATOM     19  C   UNL     1       5.200   7.350  -5.001  0.00  0.00    +0.001 A 
ATOM     20  C   UNL     1       4.170   6.440  -4.886  0.00  0.00    +0.013 A 
ENDBRANCH  11  15
BRANCH   1  22
ATOM     21  N   UNL     1       2.631  -0.808  -5.801  0.00  0.00    -0.315 N 
ATOM     22  C   UNL     1       2.475   0.531  -5.793  0.00  0.00    +0.218 C 
ATOM     23  O   UNL     1       2.479   1.135  -4.741  0.00  0.00    -0.275 OA
ATOM     24  H   UNL     1       2.628  -1.292  -6.642  0.00  0.00    +0.149 HD
BRANCH  21  25
ATOM     25  C   UNL     1       2.806  -1.533  -4.540  0.00  0.00    +0.109 C 
BRANCH  25  26
ATOM     26  C   UNL     1       2.960  -3.027  -4.828  0.00  0.00    +0.056 C 
BRANCH  26  29
ATOM     27  C   UNL     1       0.693  -4.223  -3.076  0.00  0.00    +0.063 C 
ATOM     28  C   UNL     1       2.167  -4.293  -2.767  0.00  0.00    +0.017 A 
ATOM     29  C   UNL     1       3.140  -3.773  -3.530  0.00  0.00    -0.018 A 
ATOM     30  C   UNL     1       4.410  -4.068  -2.862  0.00  0.00    +0.004 A 
ATOM     31  C   UNL     1       5.744  -3.795  -3.158  0.00  0.00    +0.029 A 
ATOM     32  C   UNL     1       6.739  -4.230  -2.287  0.00  0.00    +0.052 A 
ATOM     33  C   UNL     1       6.396  -4.936  -1.125  0.00  0.00    +0.021 A 
ATOM     34  C   UNL     1       5.092  -5.205  -0.835  0.00  0.00    +0.027 A 
ATOM     35  C   UNL     1       4.079  -4.779  -1.692  0.00  0.00    +0.047 A 
ATOM     36  N   UNL     1       2.709  -4.893  -1.663  0.00  0.00    -0.358 N 
ATOM     37  H   UNL     1       2.203  -5.335  -0.964  0.00  0.00    +0.166 HD
BRANCH  32  38
ATOM     38  C   UNL     1       8.114  -3.956  -2.579  0.00  0.00    +0.099 C 
ATOM     39  N   UNL     1       9.205  -3.739  -2.810  0.00  0.00    -0.191 NA
ENDBRANCH  32  38
ENDBRANCH  26  29
ENDBRANCH  25  26
ENDBRANCH  21  25
ENDBRANCH   1  22
TORSDOF 6
