REMARK  Name = ZINC36217073
REMARK  10 active torsions:
REMARK  status: ('A' for Active; 'I' for Inactive)
REMARK    1  A    between atoms: C_1  and  C_2
REMARK    2  A    between atoms: C_5  and  C_8
REMARK    3  A    between atoms: C_8  and  N_9
REMARK    4  A    between atoms: C_10  and  C_33
REMARK    5  A    between atoms: C_12  and  C_17
REMARK    6  A    between atoms: C_20  and  N_23
REMARK    7  A    between atoms: C_24  and  C_26
REMARK    8  A    between atoms: C_30  and  C_32
REMARK    9  A    between atoms: N_35  and  C_36
REMARK   10  A    between atoms: C_36  and  C_37
REMARK                            x       y       z     vdW  Elec       q    Type
REMARK                         _______ _______ _______ _____ _____    ______ ____
ROOT
ATOM      1  N   UNL     1       1.317  -4.819   0.247  0.00  0.00    -0.248 N 
ATOM      2  C   UNL     1       2.227  -5.108  -0.879  0.00  0.00    +0.210 C 
ATOM      3  C   UNL     1       3.618  -4.993  -0.212  0.00  0.00    +0.238 C 
ATOM      4  O   UNL     1       3.311  -5.255   1.171  0.00  0.00    -0.440 OA
ATOM      5  C   UNL     1       2.032  -4.902   1.385  0.00  0.00    +0.405 C 
ATOM      6  O   UNL     1       1.569  -4.684   2.487  0.00  0.00    -0.226 OA
ENDROOT
BRANCH   3   7
ATOM      7  C   UNL     1       4.564  -6.031  -0.759  0.00  0.00    -0.005 A 
ATOM      8  C   UNL     1       4.502  -7.333  -0.297  0.00  0.00    +0.009 A 
ATOM      9  C   UNL     1       5.368  -8.286  -0.797  0.00  0.00    +0.024 A 
ATOM     10  C   UNL     1       6.301  -7.936  -1.764  0.00  0.00    +0.034 A 
ATOM     11  C   UNL     1       6.360  -6.628  -2.226  0.00  0.00    +0.024 A 
ATOM     12  C   UNL     1       5.489  -5.680  -1.726  0.00  0.00    +0.009 A 
BRANCH  10  13
ATOM     13  N   UNL     1       7.179  -8.899  -2.272  0.00  0.00    -0.282 N 
ATOM     14  C   UNL     1       6.777 -10.180  -2.395  0.00  0.00    +0.248 C 
ATOM     15  O   UNL     1       5.624 -10.481  -2.153  0.00  0.00    -0.270 OA
ATOM     16  H   UNL     1       8.078  -8.645  -2.535  0.00  0.00    +0.155 HD
BRANCH  14  17
ATOM     17  C   UNL     1       7.738 -11.218  -2.823  0.00  0.00    +0.037 A 
ATOM     18  C   UNL     1       9.064 -10.877  -3.095  0.00  0.00    +0.013 A 
ATOM     19  C   UNL     1       9.956 -11.850  -3.494  0.00  0.00    +0.001 A 
ATOM     20  C   UNL     1       9.538 -13.163  -3.626  0.00  0.00    +0.003 A 
ATOM     21  C   UNL     1       8.226 -13.508  -3.358  0.00  0.00    -0.050 A 
ATOM     22  C   UNL     1       7.325 -12.545  -2.951  0.00  0.00    +0.016 A 
ATOM     23  C   UNL     1       7.780 -14.940  -3.503  0.00  0.00    +0.044 C 
ENDBRANCH  14  17
ENDBRANCH  10  13
ENDBRANCH   3   7
BRANCH   2  24
ATOM     24  C   UNL     1       2.066  -4.086  -1.974  0.00  0.00    +0.238 C 
ATOM     25  O   UNL     1       1.688  -2.965  -1.707  0.00  0.00    -0.274 OA
ATOM     26  N   UNL     1       2.343  -4.418  -3.251  0.00  0.00    -0.307 N 
ATOM     27  H   UNL     1       2.645  -5.314  -3.465  0.00  0.00    +0.149 HD
BRANCH  26  28
ATOM     28  C   UNL     1       2.187  -3.424  -4.316  0.00  0.00    +0.178 C 
BRANCH  28  29
ATOM     29  C   UNL     1       2.557  -4.043  -5.639  0.00  0.00    +0.122 A 
ATOM     30  C   UNL     1       1.714  -4.677  -6.474  0.00  0.00    +0.046 A 
ATOM     31  C   UNL     1       2.479  -5.096  -7.587  0.00  0.00    +0.041 A 
ATOM     32  C   UNL     1       3.743  -4.694  -7.366  0.00  0.00    +0.195 A 
ATOM     33  O   UNL     1       3.783  -4.051  -6.187  0.00  0.00    -0.466 OA
ENDBRANCH  28  29
ENDBRANCH  26  28
ENDBRANCH   2  24
BRANCH   1  34
ATOM     34  C   UNL     1      -0.108  -4.494   0.144  0.00  0.00    +0.147 C 
BRANCH  34  39
ATOM     35  C   UNL     1      -3.236  -9.313   0.763  0.00  0.00    +0.044 C 
ATOM     36  C   UNL     1      -2.420  -8.057   0.602  0.00  0.00    -0.050 A 
ATOM     37  C   UNL     1      -2.023  -7.343   1.717  0.00  0.00    +0.003 A 
ATOM     38  C   UNL     1      -1.275  -6.190   1.569  0.00  0.00    +0.005 A 
ATOM     39  C   UNL     1      -0.923  -5.751   0.306  0.00  0.00    -0.030 A 
ATOM     40  C   UNL     1      -1.320  -6.466  -0.809  0.00  0.00    +0.005 A 
ATOM     41  C   UNL     1      -2.064  -7.621  -0.661  0.00  0.00    +0.003 A 
ENDBRANCH  34  39
ENDBRANCH   1  34
TORSDOF 8
