REMARK  Name = ZINC19454621
REMARK  9 active torsions:
REMARK  status: ('A' for Active; 'I' for Inactive)
REMARK    1  A    between atoms: C_1  and  C_2
REMARK    2  A    between atoms: C_2  and  C_3
REMARK    3  A    between atoms: C_2  and  N_4
REMARK    4  A    between atoms: C_5  and  C_11
REMARK    5  A    between atoms: C_8  and  S_9
REMARK    6  A    between atoms: S_9  and  C_10
REMARK    7  A    between atoms: N_14  and  C_17
REMARK    8  A    between atoms: C_17  and  C_18
REMARK    9  A    between atoms: C_24  and  C_27
REMARK                            x       y       z     vdW  Elec       q    Type
REMARK                         _______ _______ _______ _____ _____    ______ ____
ROOT
ATOM      1  C   UNL     1      -1.200  -0.913   0.008  0.00  0.00    +0.054 C 
ATOM      2  C   UNL     1      -1.159  -1.807   1.251  0.00  0.00    -0.008 C 
ATOM      3  C   UNL     1      -2.348  -2.770   1.220  0.00  0.00    -0.077 C 
ATOM      4  N   UNL     1      -2.285  -3.590   0.003  0.00  0.00    +0.385 N 
ATOM      5  C   UNL     1      -2.371  -2.756  -1.203  0.00  0.00    -0.077 C 
ATOM      6  C   UNL     1      -1.182  -1.793  -1.245  0.00  0.00    -0.008 C 
ATOM      7  H   UNL     1      -1.309  -4.097  -0.009  0.00  0.00    -0.081 HD
ENDROOT
BRANCH   1   9
ATOM      8  N   UNL     1      -0.017   1.363   0.009  0.00  0.00    -0.303 N 
ATOM      9  C   UNL     1       0.002  -0.004   0.002  0.00  0.00    +0.137 A 
ATOM     10  N   UNL     1       1.251  -0.375  -0.012  0.00  0.00    -0.133 NA
ATOM     11  N   UNL     1       2.018   0.657  -0.014  0.00  0.00    -0.122 NA
ATOM     12  C   UNL     1       1.293   1.751  -0.001  0.00  0.00    +0.192 A 
BRANCH   8  14
ATOM     13  C   UNL     1      -1.173   3.108   1.274  0.00  0.00    +0.030 C 
ATOM     14  C   UNL     1      -1.196   2.232   0.020  0.00  0.00    +0.085 C 
ATOM     15  C   UNL     1      -1.185   3.122  -1.224  0.00  0.00    +0.030 C 
ENDBRANCH   8  14
BRANCH  12  16
ATOM     16  S   UNL     1       1.895   3.407   0.002  0.00  0.00    -0.089 S 
ATOM     17  C   UNL     1       3.678   3.093  -0.017  0.00  0.00    +0.093 C 
ENDBRANCH  12  16
ENDBRANCH   1   9
BRANCH   4  18
ATOM     18  C   UNL     1      -3.332  -4.619   0.007  0.00  0.00    +0.019 C 
BRANCH  18  19
ATOM     19  C   UNL     1      -3.068  -5.600   1.120  0.00  0.00    +0.199 C 
ATOM     20  O   UNL     1      -2.102  -5.456   1.839  0.00  0.00    -0.278 OA
ATOM     21  N   UNL     1      -3.905  -6.638   1.316  0.00  0.00    -0.302 N 
ATOM     22  C   UNL     1      -5.080  -6.826   0.453  0.00  0.00    +0.108 C 
ATOM     23  C   UNL     1      -5.048  -8.247  -0.119  0.00  0.00    +0.020 C 
ATOM     24  C   UNL     1      -4.945  -9.253   1.030  0.00  0.00    +0.013 C 
ATOM     25  C   UNL     1      -3.646  -9.015   1.803  0.00  0.00    +0.057 C 
ATOM     26  C   UNL     1      -3.658  -7.606   2.393  0.00  0.00    +0.117 C 
BRANCH  25  27
ATOM     27  C   UNL     1      -3.528 -10.027   2.913  0.00  0.00    +0.077 A 
ATOM     28  C   UNL     1      -4.101  -9.855   4.136  0.00  0.00    +0.092 A 
ATOM     29  S   UNL     1      -3.620 -11.314   4.936  0.00  0.00    +0.028 S 
ATOM     30  N   UNL     1      -2.791 -11.980   3.770  0.00  0.00    -0.110 NA
ATOM     31  N   UNL     1      -2.858 -11.154   2.788  0.00  0.00    -0.146 NA
ENDBRANCH  25  27
ENDBRANCH  18  19
ENDBRANCH   4  18
TORSDOF 6
