REMARK  Name = ZINC09498625
REMARK  6 active torsions:
REMARK  status: ('A' for Active; 'I' for Inactive)
REMARK    1  A    between atoms: C_1  and  C_2
REMARK    2  A    between atoms: C_5  and  N_8
REMARK    3  A    between atoms: C_21  and  S_22
REMARK    4  A    between atoms: S_22  and  C_23
REMARK    5  A    between atoms: C_23  and  C_24
REMARK    6  A    between atoms: N_26  and  C_27
REMARK                            x       y       z     vdW  Elec       q    Type
REMARK                         _______ _______ _______ _____ _____    ______ ____
ROOT
ATOM      1  N   UNL     1      -2.627  -5.713  -0.002  0.00  0.00    -0.245 N 
ATOM      2  C   UNL     1      -3.778  -5.589   0.691  0.00  0.00    +0.268 A 
ATOM      3  O   UNL     1      -4.241  -6.538   1.296  0.00  0.00    -0.267 OA
ATOM      4  C   UNL     1      -4.471  -4.288   0.698  0.00  0.00    +0.064 A 
ATOM      5  C   UNL     1      -5.667  -4.109   1.392  0.00  0.00    +0.015 A 
ATOM      6  C   UNL     1      -6.286  -2.876   1.376  0.00  0.00    +0.001 A 
ATOM      7  C   UNL     1      -5.725  -1.820   0.674  0.00  0.00    +0.002 A 
ATOM      8  C   UNL     1      -4.542  -1.986  -0.017  0.00  0.00    +0.027 A 
ATOM      9  C   UNL     1      -3.905  -3.217  -0.012  0.00  0.00    +0.064 A 
ATOM     10  N   UNL     1      -2.713  -3.415  -0.698  0.00  0.00    -0.255 N 
ATOM     11  C   UNL     1      -2.091  -4.636  -0.690  0.00  0.00    +0.245 A 
ATOM     12  N   UNL     1      -1.000  -4.511  -1.409  0.00  0.00    -0.109 NA
ATOM     13  N   UNL     1      -0.904  -3.313  -1.862  0.00  0.00    -0.120 NA
ATOM     14  C   UNL     1      -1.927  -2.596  -1.462  0.00  0.00    +0.198 A 
ENDROOT
BRANCH   1  19
ATOM     15  C   UNL     1       0.084 -10.697  -0.054  0.00  0.00    +0.044 C 
ATOM     16  C   UNL     1      -0.637  -9.373  -0.040  0.00  0.00    -0.050 A 
ATOM     17  C   UNL     1      -1.580  -9.091  -1.011  0.00  0.00    +0.005 A 
ATOM     18  C   UNL     1      -2.241  -7.878  -1.002  0.00  0.00    +0.026 A 
ATOM     19  C   UNL     1      -1.959  -6.943  -0.015  0.00  0.00    +0.053 A 
ATOM     20  C   UNL     1      -1.007  -7.227   0.956  0.00  0.00    +0.026 A 
ATOM     21  C   UNL     1      -0.353  -8.444   0.944  0.00  0.00    +0.005 A 
ENDBRANCH   1  19
BRANCH  14  22
ATOM     22  S   UNL     1      -2.227  -0.899  -1.831  0.00  0.00    -0.076 S 
BRANCH  22  23
ATOM     23  C   UNL     1      -0.816  -0.419  -2.866  0.00  0.00    +0.173 C 
BRANCH  23  24
ATOM     24  C   UNL     1      -0.951   1.030  -3.258  0.00  0.00    +0.224 C 
ATOM     25  O   UNL     1      -1.907   1.674  -2.880  0.00  0.00    -0.275 OA
ATOM     26  N   UNL     1      -0.011   1.609  -4.032  0.00  0.00    -0.308 N 
ATOM     27  H   UNL     1       0.751   1.092  -4.337  0.00  0.00    +0.149 HD
BRANCH  26  28
ATOM     28  C   UNL     1      -0.142   3.017  -4.412  0.00  0.00    +0.103 C 
ATOM     29  C   UNL     1       0.622   3.261  -5.712  0.00  0.00    +0.027 C 
ATOM     30  C   UNL     1       0.656   4.771  -5.978  0.00  0.00    +0.007 C 
ATOM     31  C   UNL     1       1.571   5.421  -4.942  0.00  0.00    +0.035 C 
ATOM     32  C   UNL     1       1.187   4.989  -3.551  0.00  0.00    -0.042 A 
ATOM     33  C   UNL     1       0.404   3.883  -3.307  0.00  0.00    -0.024 A 
ATOM     34  C   UNL     1       0.093   3.535  -2.000  0.00  0.00    +0.006 A 
ATOM     35  C   UNL     1       0.559   4.290  -0.943  0.00  0.00    +0.000 A 
ATOM     36  C   UNL     1       1.342   5.403  -1.188  0.00  0.00    +0.000 A 
ATOM     37  C   UNL     1       1.654   5.749  -2.486  0.00  0.00    +0.004 A 
ENDBRANCH  26  28
ENDBRANCH  23  24
ENDBRANCH  22  23
ENDBRANCH  14  22
TORSDOF 5
