REMARK  Name = ZINC63744063
REMARK  10 active torsions:
REMARK  status: ('A' for Active; 'I' for Inactive)
REMARK    1  A    between atoms: C_1  and  C_2
REMARK    2  A    between atoms: C_4  and  C_34
REMARK    3  A    between atoms: C_9  and  N_20
REMARK    4  A    between atoms: N_10  and  C_11
REMARK    5  A    between atoms: C_11  and  C_13
REMARK    6  A    between atoms: N_20  and  C_21
REMARK    7  A    between atoms: C_21  and  C_22
REMARK    8  A    between atoms: C_22  and  C_23
REMARK    9  A    between atoms: C_27  and  O_32
REMARK   10  A    between atoms: O_32  and  C_33
REMARK                            x       y       z     vdW  Elec       q    Type
REMARK                         _______ _______ _______ _____ _____    ______ ____
ROOT
ATOM      1  C   UNL     1      -0.384  -6.663   5.785  0.00  0.00    +0.066 C 
ATOM      2  C   UNL     1      -0.381  -6.131   4.375  0.00  0.00    +0.044 A 
ATOM      3  C   UNL     1      -0.362  -7.001   3.296  0.00  0.00    +0.046 A 
ATOM      4  C   UNL     1      -0.360  -6.470   2.016  0.00  0.00    +0.044 A 
ATOM      5  N   UNL     1      -0.377  -5.156   1.863  0.00  0.00    -0.217 NA
ATOM      6  C   UNL     1      -0.394  -4.352   2.916  0.00  0.00    +0.231 A 
ATOM      7  N   UNL     1      -0.402  -4.827   4.152  0.00  0.00    -0.217 NA
ATOM      8  N   UNL     1      -0.410  -2.978   2.718  0.00  0.00    -0.295 N 
ATOM      9  C   UNL     1      -0.313  -2.132   3.788  0.00  0.00    +0.218 C 
ATOM     10  N   UNL     1      -0.088  -2.619   4.998  0.00  0.00    -0.141 NA
ATOM     11  C   UNL     1      -0.340  -7.378   0.814  0.00  0.00    +0.066 C 
ATOM     12  H   UNL     1      -0.491  -2.618   1.821  0.00  0.00    +0.172 HD
ENDROOT
BRANCH  10  13
ATOM     13  C   UNL     1       0.098  -1.786   6.031  0.00  0.00    +0.270 C 
ATOM     14  O   UNL     1      -0.034  -0.585   5.877  0.00  0.00    -0.268 OA
BRANCH  13  15
ATOM     15  C   UNL     1       0.464  -2.326   7.361  0.00  0.00    +0.039 A 
ATOM     16  C   UNL     1       0.738  -3.685   7.513  0.00  0.00    +0.014 A 
ATOM     17  C   UNL     1       1.079  -4.182   8.754  0.00  0.00    +0.016 A 
ATOM     18  C   UNL     1       1.149  -3.335   9.847  0.00  0.00    +0.018 A 
ATOM     19  C   UNL     1       0.878  -1.985   9.701  0.00  0.00    +0.016 A 
ATOM     20  C   UNL     1       0.542  -1.476   8.464  0.00  0.00    +0.014 A 
ATOM     21 BR   UNL     1       1.616  -4.025  11.544  0.00  0.00    -0.050 Br
ENDBRANCH  13  15
ENDBRANCH  10  13
BRANCH   9  22
ATOM     22  N   UNL     1      -0.449  -0.787   3.608  0.00  0.00    -0.252 NA
BRANCH  22  23
ATOM     23  C   UNL     1      -0.807  -0.256   2.291  0.00  0.00    +0.149 C 
BRANCH  23  24
ATOM     24  C   UNL     1      -0.774   1.273   2.331  0.00  0.00    +0.056 C 
BRANCH  24  25
ATOM     25  C   UNL     1      -1.260   1.820   1.014  0.00  0.00    -0.040 C 
ATOM     26  C   UNL     1      -2.514   2.224   0.716  0.00  0.00    -0.001 A 
ATOM     27  C   UNL     1      -3.755   2.272   1.501  0.00  0.00    +0.013 A 
ATOM     28  C   UNL     1      -4.882   2.737   0.921  0.00  0.00    +0.046 A 
ATOM     29  C   UNL     1      -4.897   3.175  -0.417  0.00  0.00    +0.122 A 
ATOM     30  C   UNL     1      -3.789   3.159  -1.202  0.00  0.00    +0.071 A 
ATOM     31  C   UNL     1      -2.554   2.691  -0.689  0.00  0.00    +0.046 A 
ATOM     32  N   UNL     1      -1.367   2.579  -1.238  0.00  0.00    -0.380 N 
ATOM     33  C   UNL     1      -0.441   2.034  -0.239  0.00  0.00    +0.144 C 
ATOM     34  H   UNL     1      -1.139   2.819  -2.150  0.00  0.00    +0.160 HD
BRANCH  29  35
ATOM     35  O   UNL     1      -6.062   3.630  -0.941  0.00  0.00    -0.495 OA
ATOM     36  C   UNL     1      -7.204   3.630  -0.082  0.00  0.00    +0.277 C 
ENDBRANCH  29  35
ENDBRANCH  24  25
ENDBRANCH  23  24
ENDBRANCH  22  23
ENDBRANCH   9  22
TORSDOF 7
