REMARK  Name = ZINC12527382
REMARK  10 active torsions:
REMARK  status: ('A' for Active; 'I' for Inactive)
REMARK    1  A    between atoms: C_1  and  C_2
REMARK    2  A    between atoms: C_2  and  C_31
REMARK    3  A    between atoms: N_5  and  C_9
REMARK    4  A    between atoms: C_9  and  C_10
REMARK    5  A    between atoms: N_12  and  C_13
REMARK    6  A    between atoms: C_15  and  S_22
REMARK    7  A    between atoms: C_18  and  N_19
REMARK    8  A    between atoms: N_19  and  C_20
REMARK    9  A    between atoms: N_19  and  C_21
REMARK   10  A    between atoms: S_22  and  N_25
REMARK                            x       y       z     vdW  Elec       q    Type
REMARK                         _______ _______ _______ _____ _____    ______ ____
ROOT
ATOM      1  C   UNL     1       4.348  -1.244  -1.228  0.00  0.00    +0.235 C 
ATOM      2  O   UNL     1       4.604  -0.385  -0.411  0.00  0.00    -0.274 OA
ATOM      3  N   UNL     1       5.097  -1.360  -2.343  0.00  0.00    -0.283 N 
ATOM      4  H   UNL     1       4.943  -2.095  -2.956  0.00  0.00    +0.155 HD
ENDROOT
BRANCH   3   5
ATOM      5  C   UNL     1       6.097  -0.417  -2.615  0.00  0.00    +0.057 A 
ATOM      6  C   UNL     1       6.011   0.862  -2.086  0.00  0.00    +0.053 A 
ATOM      7  C   UNL     1       6.998   1.790  -2.357  0.00  0.00    +0.107 A 
ATOM      8  C   UNL     1       8.074   1.449  -3.155  0.00  0.00    +0.030 A 
ATOM      9  C   UNL     1       8.169   0.176  -3.687  0.00  0.00    +0.027 A 
ATOM     10  C   UNL     1       7.186  -0.763  -3.416  0.00  0.00    +0.051 A 
BRANCH  10  11
ATOM     11  N   UNL     1       7.282  -2.054  -3.948  0.00  0.00    -0.335 N 
ATOM     12  C   UNL     1       7.970  -3.107  -3.197  0.00  0.00    +0.129 C 
ATOM     13  C   UNL     1       6.696  -2.351  -5.257  0.00  0.00    +0.129 C 
ENDBRANCH  10  11
BRANCH   7  14
ATOM     14  S   UNL     1       6.885   3.415  -1.683  0.00  0.00    +0.061 S 
ATOM     15  O   UNL     1       7.653   4.260  -2.529  0.00  0.00    -0.153 OA
ATOM     16  O   UNL     1       5.509   3.650  -1.419  0.00  0.00    -0.153 OA
BRANCH  14  17
ATOM     17  N   UNL     1       7.652   3.390  -0.215  0.00  0.00    -0.177 NA
ATOM     18  C   UNL     1       6.911   3.064   1.011  0.00  0.00    +0.109 C 
ATOM     19  C   UNL     1       7.633   1.923   1.734  0.00  0.00    +0.017 C 
ATOM     20  C   UNL     1       9.094   2.315   1.967  0.00  0.00    +0.003 C 
ATOM     21  C   UNL     1       9.783   2.547   0.621  0.00  0.00    +0.017 C 
ATOM     22  C   UNL     1       9.087   3.689  -0.116  0.00  0.00    +0.109 C 
ENDBRANCH  14  17
ENDBRANCH   7  14
ENDBRANCH   3   5
BRANCH   1  23
ATOM     23  C   UNL     1       3.192  -2.183  -0.996  0.00  0.00    +0.214 C 
BRANCH  23  28
ATOM     24  C   UNL     1       1.396   0.438   2.464  0.00  0.00    +0.047 C 
ATOM     25  C   UNL     1       1.183  -0.960   1.878  0.00  0.00    +0.135 C 
ATOM     26  C   UNL     1       1.527  -0.977   0.402  0.00  0.00    +0.251 C 
ATOM     27  O   UNL     1       0.999  -0.336  -0.481  0.00  0.00    -0.272 OA
ATOM     28  N   UNL     1       2.543  -1.854   0.275  0.00  0.00    -0.215 N 
ATOM     29  C   UNL     1       2.885  -2.387   1.454  0.00  0.00    +0.310 C 
ATOM     30  O   UNL     1       3.774  -3.204   1.593  0.00  0.00    -0.252 OA
ATOM     31  N   UNL     1       2.134  -1.919   2.467  0.00  0.00    -0.281 N 
ATOM     32  H   UNL     1       2.205  -2.164   3.402  0.00  0.00    +0.152 HD
BRANCH  25  33
ATOM     33  C   UNL     1      -0.236  -1.416   2.100  0.00  0.00    -0.016 A 
ATOM     34  C   UNL     1      -1.203  -1.156   1.147  0.00  0.00    +0.006 A 
ATOM     35  C   UNL     1      -2.504  -1.574   1.351  0.00  0.00    +0.000 A 
ATOM     36  C   UNL     1      -2.839  -2.253   2.508  0.00  0.00    +0.000 A 
ATOM     37  C   UNL     1      -1.872  -2.514   3.461  0.00  0.00    +0.000 A 
ATOM     38  C   UNL     1      -0.569  -2.100   3.255  0.00  0.00    +0.006 A 
ENDBRANCH  25  33
ENDBRANCH  23  28
ENDBRANCH   1  23
TORSDOF 7
