REMARK  Name = ZINC32971953
REMARK  16 active torsions:
REMARK  status: ('A' for Active; 'I' for Inactive)
REMARK    1  A    between atoms: C_1  and  C_2
REMARK    2  A    between atoms: C_2  and  C_3
REMARK    3  A    between atoms: C_2  and  C_4
REMARK    4  A    between atoms: C_4  and  N_5
REMARK    5  A    between atoms: C_6  and  N_36
REMARK    6  A    between atoms: C_7  and  N_14
REMARK    7  A    between atoms: N_14  and  C_15
REMARK    8  A    between atoms: C_15  and  C_16
REMARK    9  A    between atoms: C_16  and  C_17
REMARK   10  A    between atoms: C_16  and  C_18
REMARK   11  A    between atoms: C_19  and  C_21
REMARK   12  A    between atoms: C_21  and  N_22
REMARK   13  A    between atoms: N_22  and  C_23
REMARK   14  A    between atoms: C_24  and  C_26
REMARK   15  A    between atoms: C_26  and  O_27
REMARK   16  A    between atoms: O_27  and  C_28
REMARK                            x       y       z     vdW  Elec       q    Type
REMARK                         _______ _______ _______ _____ _____    ______ ____
ROOT
ATOM      1  N   UNL     1      -7.237  -2.955   2.276  0.00  0.00    -0.263 N 
ATOM      2  C   UNL     1      -6.254  -2.140   2.712  0.00  0.00    +0.237 C 
ATOM      3  O   UNL     1      -5.217  -2.611   3.132  0.00  0.00    -0.274 OA
ENDROOT
BRANCH   1   6
ATOM      4  N   UNL     1      -5.838  -6.237   1.399  0.00  0.00    -0.280 N 
ATOM      5  C   UNL     1      -6.021  -4.875   1.433  0.00  0.00    +0.127 A 
ATOM      6  C   UNL     1      -7.025  -4.349   2.220  0.00  0.00    +0.140 A 
ATOM      7  C   UNL     1      -7.830  -5.226   2.970  0.00  0.00    +0.277 A 
ATOM      8  O   UNL     1      -8.722  -4.788   3.677  0.00  0.00    -0.266 OA
ATOM      9  N   UNL     1      -7.613  -6.554   2.897  0.00  0.00    -0.273 N 
ATOM     10  H   UNL     1      -8.244  -7.247   3.473  0.00  0.00    +0.173 HD
ATOM     11  C   UNL     1      -6.630  -7.048   2.124  0.00  0.00    +0.331 A 
ATOM     12  O   UNL     1      -6.452  -8.251   2.080  0.00  0.00    -0.246 OA
BRANCH   5  13
ATOM     13  N   UNL     1      -5.213  -4.046   0.692  0.00  0.00    -0.343 N 
ATOM     14  H   UNL     1      -5.364  -2.957   0.723  0.00  0.00    +0.144 HD
ATOM     15  H   UNL     1      -4.414  -4.472   0.066  0.00  0.00    +0.144 HD
ENDBRANCH   5  13
BRANCH   4  16
ATOM     16  C   UNL     1      -4.776  -6.809   0.568  0.00  0.00    +0.131 C 
BRANCH  16  18
ATOM     17  C   UNL     1      -3.689  -7.911   2.530  0.00  0.00    +0.009 C 
ATOM     18  C   UNL     1      -3.488  -6.913   1.388  0.00  0.00    +0.003 C 
ATOM     19  C   UNL     1      -2.348  -7.393   0.487  0.00  0.00    +0.009 C 
ENDBRANCH  16  18
ENDBRANCH   4  16
ENDBRANCH   1   6
BRANCH   1  20
ATOM     20  C   UNL     1      -8.525  -2.393   1.861  0.00  0.00    +0.117 C 
BRANCH  20  21
ATOM     21  C   UNL     1      -8.451  -1.980   0.390  0.00  0.00    +0.001 C 
ATOM     22  C   UNL     1      -8.262  -3.224  -0.480  0.00  0.00    +0.009 C 
ATOM     23  C   UNL     1      -9.748  -1.272  -0.007  0.00  0.00    +0.009 C 
ENDBRANCH  20  21
ENDBRANCH   1  20
BRANCH   2  24
ATOM     24  C   UNL     1      -6.443  -0.645   2.678  0.00  0.00    +0.203 C 
BRANCH  24  25
ATOM     25  N   UNL     1      -5.242   0.011   3.200  0.00  0.00    -0.293 N 
ATOM     26  C   UNL     1      -5.132   0.304   4.631  0.00  0.00    +0.132 C 
ATOM     27  C   UNL     1      -4.239   0.345   2.365  0.00  0.00    +0.253 C 
ATOM     28  O   UNL     1      -4.331   0.103   1.180  0.00  0.00    -0.272 OA
BRANCH  27  29
ATOM     29  C   UNL     1      -3.004   1.021   2.902  0.00  0.00    +0.324 C 
BRANCH  29  30
ATOM     30  O   UNL     1      -2.094   1.272   1.830  0.00  0.00    -0.480 OA
BRANCH  30  31
ATOM     31  C   UNL     1      -0.920   1.881   2.146  0.00  0.00    +0.158 A 
ATOM     32  C   UNL     1      -0.830   3.265   2.133  0.00  0.00    +0.084 A 
ATOM     33  C   UNL     1       0.367   3.882   2.450  0.00  0.00    +0.024 A 
ATOM     34  C   UNL     1       1.471   3.120   2.785  0.00  0.00    +0.003 A 
ATOM     35  C   UNL     1       1.382   1.741   2.804  0.00  0.00    +0.024 A 
ATOM     36  C   UNL     1       0.189   1.119   2.488  0.00  0.00    +0.084 A 
ATOM     37 CL   UNL     1       0.078  -0.614   2.513  0.00  0.00    -0.080 Cl
ATOM     38 CL   UNL     1      -2.215   4.223   1.712  0.00  0.00    -0.080 Cl
ENDBRANCH  30  31
ENDBRANCH  29  30
ENDBRANCH  27  29
ENDBRANCH  24  25
ENDBRANCH   2  24
TORSDOF 11
