REMARK  Name = ZINC21864585
REMARK  9 active torsions:
REMARK  status: ('A' for Active; 'I' for Inactive)
REMARK    1  A    between atoms: C_1  and  C_2
REMARK    2  A    between atoms: N_8  and  C_9
REMARK    3  A    between atoms: C_9  and  C_10
REMARK    4  A    between atoms: C_10  and  C_11
REMARK    5  A    between atoms: C_11  and  N_12
REMARK    6  A    between atoms: C_18  and  C_33
REMARK    7  A    between atoms: C_21  and  C_22
REMARK    8  A    between atoms: C_21  and  C_23
REMARK    9  A    between atoms: N_25  and  C_26
REMARK                            x       y       z     vdW  Elec       q    Type
REMARK                         _______ _______ _______ _____ _____    ______ ____
ROOT
ATOM      1  N   UNL     1      -2.478   7.076  -3.448  0.00  0.00    -0.281 N 
ATOM      2  C   UNL     1      -3.675   7.495  -2.974  0.00  0.00    +0.264 C 
ATOM      3  O   UNL     1      -4.475   6.723  -2.477  0.00  0.00    -0.268 OA
ATOM      4  C   UNL     1      -3.957   8.929  -3.086  0.00  0.00    +0.105 A 
ATOM      5  C   UNL     1      -4.960   9.687  -2.550  0.00  0.00    +0.033 A 
ATOM      6  C   UNL     1      -4.749  11.005  -2.959  0.00  0.00    +0.032 A 
ATOM      7  C   UNL     1      -3.609  11.026  -3.748  0.00  0.00    +0.085 A 
ATOM      8  N   UNL     1      -3.130   9.760  -3.833  0.00  0.00    -0.331 N 
ATOM      9  C   UNL     1      -1.967   9.240  -4.557  0.00  0.00    +0.157 C 
ATOM     10  C   UNL     1      -1.426   8.013  -3.822  0.00  0.00    +0.128 C 
ATOM     11  C   UNL     1      -0.426   7.296  -4.731  0.00  0.00    +0.043 C 
ENDROOT
BRANCH   7  12
ATOM     12  C   UNL     1      -3.022  12.214  -4.382  0.00  0.00    +0.151 A 
ATOM     13  C   UNL     1      -3.449  13.500  -4.225  0.00  0.00    +0.051 A 
ATOM     14  C   UNL     1      -2.602  14.306  -5.007  0.00  0.00    +0.042 A 
ATOM     15  C   UNL     1      -1.714  13.485  -5.604  0.00  0.00    +0.196 A 
ATOM     16  O   UNL     1      -1.970  12.223  -5.225  0.00  0.00    -0.461 OA
ENDBRANCH   7  12
BRANCH  10  17
ATOM     17  C   UNL     1      -0.712   8.468  -2.576  0.00  0.00    +0.238 C 
ATOM     18  O   UNL     1       0.480   8.689  -2.606  0.00  0.00    -0.273 OA
ATOM     19  N   UNL     1      -1.398   8.629  -1.427  0.00  0.00    -0.311 N 
ATOM     20  H   UNL     1      -2.479   8.428  -1.399  0.00  0.00    +0.149 HD
BRANCH  19  21
ATOM     21  C   UNL     1      -0.704   9.070  -0.215  0.00  0.00    +0.073 C 
ATOM     22  C   UNL     1      -0.062   7.845   0.468  0.00  0.00    +0.022 C 
ATOM     23  C   UNL     1       1.039   8.327   1.375  0.00  0.00    +0.002 C 
ATOM     24  C   UNL     1       0.561   8.524   2.826  0.00  0.00    +0.000 C 
ATOM     25  C   UNL     1      -0.828   9.185   2.913  0.00  0.00    +0.000 C 
ATOM     26  C   UNL     1      -0.993  10.310   1.927  0.00  0.00    +0.002 C 
ATOM     27  C   UNL     1      -1.655   9.751   0.652  0.00  0.00    +0.022 C 
ENDBRANCH  19  21
ENDBRANCH  10  17
BRANCH   1  28
ATOM     28  C   UNL     1      -2.236   5.638  -3.594  0.00  0.00    +0.107 C 
BRANCH  28  29
ATOM     29  C   UNL     1      -1.629   5.089  -2.301  0.00  0.00    +0.000 C 
BRANCH  29  30
ATOM     30  C   UNL     1      -1.375   3.588  -2.454  0.00  0.00    -0.077 C 
BRANCH  30  37
ATOM     31  C   UNL     1      -0.028   1.118  -2.490  0.00  0.00    -0.013 C 
ATOM     32  C   UNL     1      -0.754   1.594  -1.231  0.00  0.00    -0.072 C 
ATOM     33  C   UNL     1      -0.013   1.086   0.008  0.00  0.00    -0.016 C 
ATOM     34  C   UNL     1      -0.731   1.580   1.267  0.00  0.00    -0.003 C 
ATOM     35  C   UNL     1      -0.801   3.110   1.237  0.00  0.00    -0.019 C 
ATOM     36  C   UNL     1      -1.520   3.559  -0.037  0.00  0.00    -0.078 C 
ATOM     37  N   UNL     1      -0.793   3.061  -1.212  0.00  0.00    +0.381 N 
ATOM     38  H   UNL     1       0.244   3.423  -1.143  0.00  0.00    -0.081 HD
ENDBRANCH  30  37
ENDBRANCH  29  30
ENDBRANCH  28  29
ENDBRANCH   1  28
TORSDOF 7
