REMARK  Name = ZINC09382094
REMARK  6 active torsions:
REMARK  status: ('A' for Active; 'I' for Inactive)
REMARK    1  A    between atoms: C_3  and  C_8
REMARK    2  A    between atoms: C_8  and  S_9
REMARK    3  A    between atoms: S_9  and  C_10
REMARK    4  A    between atoms: C_13  and  C_22
REMARK    5  A    between atoms: N_14  and  C_15
REMARK    6  A    between atoms: C_22  and  C_23
REMARK                            x       y       z     vdW  Elec       q    Type
REMARK                         _______ _______ _______ _____ _____    ______ ____
ROOT
ATOM      1  C   UNL     1       1.708   2.135  -0.003  0.00  0.00    +0.196 A 
ATOM      2  N   UNL     1       2.673   1.245  -0.011  0.00  0.00    -0.122 NA
ATOM      3  N   UNL     1       3.814   1.835  -0.024  0.00  0.00    -0.133 NA
ATOM      4  C   UNL     1       3.651   3.128  -0.015  0.00  0.00    +0.144 A 
ATOM      5  N   UNL     1       2.302   3.368  -0.002  0.00  0.00    -0.274 N 
ENDROOT
BRANCH   5   6
ATOM      6  C   UNL     1       1.663   4.616   0.011  0.00  0.00    +0.050 A 
ATOM      7  C   UNL     1       1.793   5.474  -1.073  0.00  0.00    +0.028 A 
ATOM      8  C   UNL     1       1.158   6.701  -1.061  0.00  0.00    +0.022 A 
ATOM      9  C   UNL     1       0.403   7.080   0.035  0.00  0.00    +0.041 A 
ATOM     10  C   UNL     1       0.277   6.228   1.119  0.00  0.00    +0.022 A 
ATOM     11  C   UNL     1       0.905   4.998   1.109  0.00  0.00    +0.028 A 
ATOM     12 CL   UNL     1      -0.388   8.625   0.051  0.00  0.00    -0.084 Cl
ENDBRANCH   5   6
BRANCH   1  13
ATOM     13  S   UNL     1      -0.022   1.806   0.012  0.00  0.00    -0.081 S 
BRANCH  13  14
ATOM     14  C   UNL     1       0.002  -0.004   0.002  0.00  0.00    +0.112 C 
BRANCH  14  17
ATOM     15  C   UNL     1      -3.368  -1.237  -1.171  0.00  0.00    +0.003 A 
ATOM     16  C   UNL     1      -2.071  -0.758  -1.179  0.00  0.00    +0.004 A 
ATOM     17  C   UNL     1      -1.412  -0.526   0.013  0.00  0.00    -0.034 A 
ATOM     18  C   UNL     1      -2.046  -0.777   1.215  0.00  0.00    +0.042 A 
ATOM     19  C   UNL     1      -3.347  -1.251   1.224  0.00  0.00    +0.124 A 
ATOM     20  C   UNL     1      -4.007  -1.484   0.029  0.00  0.00    +0.038 A 
ATOM     21  F   UNL     1      -3.970  -1.492   2.398  0.00  0.00    -0.205 F 
ENDBRANCH  14  17
ENDBRANCH  13  14
ENDBRANCH   1  13
BRANCH   4  22
ATOM     22  C   UNL     1       4.742   4.167  -0.021  0.00  0.00    +0.130 C 
BRANCH  22  23
ATOM     23  C   UNL     1       5.120   4.506   1.398  0.00  0.00    +0.033 A 
ATOM     24  C   UNL     1       6.160   3.883   1.991  0.00  0.00    +0.091 A 
ATOM     25  C   UNL     1       6.495   4.219   3.325  0.00  0.00    +0.254 A 
ATOM     26  O   UNL     1       7.430   3.671   3.881  0.00  0.00    -0.268 OA
ATOM     27  N   UNL     1       5.770   5.153   3.974  0.00  0.00    -0.275 N 
ATOM     28  H   UNL     1       6.000   5.396   4.916  0.00  0.00    +0.173 HD
ATOM     29  C   UNL     1       4.738   5.759   3.359  0.00  0.00    +0.327 A 
ATOM     30  O   UNL     1       4.093   6.598   3.957  0.00  0.00    -0.247 OA
ATOM     31  N   UNL     1       4.413   5.452   2.090  0.00  0.00    -0.311 N 
ATOM     32  H   UNL     1       3.647   5.920   1.647  0.00  0.00    +0.170 HD
ENDBRANCH  22  23
ENDBRANCH   4  22
TORSDOF 6
