REMARK  Name = ZINC13496480
REMARK  8 active torsions:
REMARK  status: ('A' for Active; 'I' for Inactive)
REMARK    1  A    between atoms: C_1  and  C_2
REMARK    2  A    between atoms: C_2  and  O_3
REMARK    3  A    between atoms: O_3  and  C_4
REMARK    4  A    between atoms: C_4  and  C_6
REMARK    5  A    between atoms: C_10  and  N_11
REMARK    6  A    between atoms: C_12  and  C_14
REMARK    7  A    between atoms: C_17  and  N_20
REMARK    8  A    between atoms: C_38  and  C_41
REMARK                            x       y       z     vdW  Elec       q    Type
REMARK                         _______ _______ _______ _____ _____    ______ ____
ROOT
ATOM      1  N   UNL     1      -0.643  -2.696  -3.868  0.00  0.00    -0.275 N 
ATOM      2  C   UNL     1      -1.117  -2.783  -5.127  0.00  0.00    +0.249 C 
ATOM      3  O   UNL     1      -0.358  -3.009  -6.048  0.00  0.00    -0.270 OA
ATOM      4  H   UNL     1      -1.249  -2.515  -3.133  0.00  0.00    +0.156 HD
ENDROOT
BRANCH   1   9
ATOM      5  C   UNL     1       1.371  -2.810  -2.406  0.00  0.00    +0.091 A 
ATOM      6  C   UNL     1       2.807  -3.030  -2.420  0.00  0.00    -0.021 A 
ATOM      7  C   UNL     1       3.320  -3.257  -3.649  0.00  0.00    -0.004 A 
ATOM      8  S   UNL     1       1.928  -3.179  -4.738  0.00  0.00    -0.077 S 
ATOM      9  C   UNL     1       0.710  -2.864  -3.625  0.00  0.00    +0.087 A 
ATOM     10  C   UNL     1       4.754  -3.515  -3.991  0.00  0.00    +0.043 C 
ATOM     11  C   UNL     1       5.618  -3.110  -2.788  0.00  0.00    +0.009 C 
ATOM     12  C   UNL     1       5.013  -3.715  -1.518  0.00  0.00    -0.009 C 
ATOM     13  C   UNL     1       3.694  -3.014  -1.184  0.00  0.00    +0.040 C 
ATOM     14  C   UNL     1       5.990  -3.535  -0.354  0.00  0.00    +0.008 C 
BRANCH   5  15
ATOM     15  C   UNL     1       0.651  -2.548  -1.159  0.00  0.00    +0.342 C 
ATOM     16  O   UNL     1       0.199  -3.473  -0.511  0.00  0.00    -0.245 OA
BRANCH  15  17
ATOM     17  O   UNL     1       0.489  -1.280  -0.727  0.00  0.00    -0.461 OA
BRANCH  17  19
ATOM     18  C   UNL     1      -0.306   0.394   0.824  0.00  0.00    +0.048 C 
ATOM     19  C   UNL     1      -0.223  -1.099   0.498  0.00  0.00    +0.229 C 
ENDBRANCH  17  19
ENDBRANCH  15  17
ENDBRANCH   5  15
ENDBRANCH   1   9
BRANCH   2  20
ATOM     20  C   UNL     1      -2.559  -2.603  -5.386  0.00  0.00    +0.037 A 
ATOM     21  C   UNL     1      -3.433  -2.337  -4.328  0.00  0.00    +0.015 A 
ATOM     22  C   UNL     1      -4.778  -2.170  -4.574  0.00  0.00    +0.025 A 
ATOM     23  C   UNL     1      -5.266  -2.266  -5.872  0.00  0.00    +0.044 A 
ATOM     24  C   UNL     1      -4.400  -2.531  -6.927  0.00  0.00    +0.025 A 
ATOM     25  C   UNL     1      -3.053  -2.693  -6.690  0.00  0.00    +0.015 A 
BRANCH  23  26
ATOM     26  N   UNL     1      -6.632  -2.096  -6.118  0.00  0.00    -0.210 N 
ATOM     27  C   UNL     1      -7.422  -3.093  -6.531  0.00  0.00    +0.231 C 
ATOM     28  O   UNL     1      -7.062  -4.232  -6.739  0.00  0.00    -0.274 OA
ATOM     29  C   UNL     1      -8.834  -2.580  -6.700  0.00  0.00    +0.095 C 
ATOM     30  C   UNL     1      -9.166  -2.552  -8.225  0.00  0.00    +0.025 C 
ATOM     31  C   UNL     1      -8.295  -1.327  -8.684  0.00  0.00    +0.016 C 
ATOM     32  C   UNL     1      -8.987  -0.339  -7.676  0.00  0.00    +0.025 C 
ATOM     33  C   UNL     1      -8.718  -1.079  -6.304  0.00  0.00    +0.095 C 
ATOM     34  C   UNL     1      -7.256  -0.924  -5.953  0.00  0.00    +0.231 C 
ATOM     35  O   UNL     1      -6.730   0.102  -5.582  0.00  0.00    -0.274 OA
ATOM     36  C   UNL     1     -10.459  -0.646  -7.977  0.00  0.00    -0.027 C 
ATOM     37  C   UNL     1     -10.571  -1.942  -8.292  0.00  0.00    -0.027 C 
ENDBRANCH  23  26
ENDBRANCH   2  20
TORSDOF 6
