REMARK  Name = ZINC04290114
REMARK  7 active torsions:
REMARK  status: ('A' for Active; 'I' for Inactive)
REMARK    1  A    between atoms: C_1  and  C_2
REMARK    2  A    between atoms: C_8  and  C_9
REMARK    3  A    between atoms: C_8  and  N_59
REMARK    4  A    between atoms: C_10  and  O_35
REMARK    5  A    between atoms: C_16  and  C_31
REMARK    6  A    between atoms: C_17  and  O_20
REMARK    7  A    between atoms: O_20  and  C_21
REMARK                            x       y       z     vdW  Elec       q    Type
REMARK                         _______ _______ _______ _____ _____    ______ ____
ROOT
ATOM      1  C   UNL     1       4.457  -0.151  -1.951  0.00  0.00    +0.020 A 
ATOM      2  C   UNL     1       5.045   1.041  -2.340  0.00  0.00    +0.122 A 
ATOM      3  C   UNL     1       6.382   1.301  -2.048  0.00  0.00    +0.046 A 
ATOM      4  C   UNL     1       7.136   0.376  -1.382  0.00  0.00    +0.019 A 
ATOM      5  C   UNL     1       6.559  -0.832  -0.988  0.00  0.00    +0.068 A 
ATOM      6  C   UNL     1       5.209  -1.100  -1.274  0.00  0.00    +0.144 A 
ATOM      7  O   UNL     1       4.663  -2.271  -0.888  0.00  0.00    -0.447 OA
ATOM      8  C   UNL     1       5.361  -3.208  -0.233  0.00  0.00    +0.254 A 
ATOM      9  C   UNL     1       6.660  -3.055   0.091  0.00  0.00    +0.222 A 
ATOM     10  C   UNL     1       7.338  -1.855  -0.268  0.00  0.00    +0.235 A 
ATOM     11  O   UNL     1       8.513  -1.681   0.008  0.00  0.00    -0.283 OA
ENDROOT
BRANCH   8  12
ATOM     12  C   UNL     1       4.665  -4.486   0.158  0.00  0.00    +0.454 C 
ATOM     13  F   UNL     1       4.098  -4.339   1.429  0.00  0.00    -0.163 F 
ATOM     14  F   UNL     1       3.659  -4.772  -0.771  0.00  0.00    -0.163 F 
ATOM     15  F   UNL     1       5.592  -5.534   0.179  0.00  0.00    -0.163 F 
ENDBRANCH   8  12
BRANCH   2  16
ATOM     16  O   UNL     1       4.311   1.968  -3.007  0.00  0.00    -0.506 OA
ATOM     17  H   UNL     1       3.862   2.603  -2.432  0.00  0.00    +0.292 HD
ENDBRANCH   2  16
BRANCH   1  18
ATOM     18  C   UNL     1       3.008  -0.418  -2.268  0.00  0.00    -0.035 C 
BRANCH  18  25
ATOM     19  C   UNL     1       0.668  -1.824  -1.587  0.00  0.00    -0.013 C 
ATOM     20  C   UNL     1       0.764  -0.313  -1.367  0.00  0.00    -0.071 C 
ATOM     21  C   UNL     1      -0.054   0.076  -0.134  0.00  0.00    -0.016 C 
ATOM     22  C   UNL     1       0.061   1.586   0.094  0.00  0.00    -0.003 C 
ATOM     23  C   UNL     1       1.537   1.959   0.255  0.00  0.00    -0.019 C 
ATOM     24  C   UNL     1       2.309   1.515  -0.990  0.00  0.00    -0.078 C 
ATOM     25  N   UNL     1       2.178   0.050  -1.139  0.00  0.00    +0.384 N 
ATOM     26  H   UNL     1       2.503  -0.403  -0.276  0.00  0.00    -0.081 HD
ENDBRANCH  18  25
ENDBRANCH   1  18
BRANCH   9  27
ATOM     27  O   UNL     1       7.321  -4.041   0.757  0.00  0.00    -0.448 OA
BRANCH  27  28
ATOM     28  C   UNL     1       7.949  -4.996   0.024  0.00  0.00    +0.129 A 
ATOM     29  C   UNL     1       7.895  -4.941  -1.373  0.00  0.00    +0.047 A 
ATOM     30  C   UNL     1       8.518  -5.879  -2.134  0.00  0.00    +0.012 A 
ATOM     31  C   UNL     1       9.220  -6.928  -1.514  0.00  0.00    -0.018 A 
ATOM     32  C   UNL     1       9.870  -7.917  -2.270  0.00  0.00    +0.008 A 
ATOM     33  C   UNL     1      10.540  -8.918  -1.636  0.00  0.00    +0.001 A 
ATOM     34  C   UNL     1      10.592  -8.979  -0.245  0.00  0.00    +0.001 A 
ATOM     35  C   UNL     1       9.974  -8.038   0.520  0.00  0.00    +0.008 A 
ATOM     36  C   UNL     1       9.272  -6.989  -0.098  0.00  0.00    -0.014 A 
ATOM     37  C   UNL     1       8.622  -6.001   0.659  0.00  0.00    +0.054 A 
ENDBRANCH  27  28
ENDBRANCH   9  27
TORSDOF 6
