REMARK  Name = ZINC12897439
REMARK  8 active torsions:
REMARK  status: ('A' for Active; 'I' for Inactive)
REMARK    1  A    between atoms: C_1  and  C_2
REMARK    2  A    between atoms: C_2  and  O_3
REMARK    3  A    between atoms: O_3  and  C_4
REMARK    4  A    between atoms: C_4  and  C_6
REMARK    5  A    between atoms: C_10  and  N_12
REMARK    6  A    between atoms: C_13  and  C_15
REMARK    7  A    between atoms: C_29  and  C_41
REMARK    8  A    between atoms: C_34  and  C_36
REMARK                            x       y       z     vdW  Elec       q    Type
REMARK                         _______ _______ _______ _____ _____    ______ ____
ROOT
ATOM      1  C   UNL     1       2.300   5.682   0.225  0.00  0.00    +0.123 C 
ATOM      2  C   UNL     1       1.631   6.342  -1.044  0.00  0.00    +0.155 C 
ATOM      3  C   UNL     1       1.346   7.761  -0.541  0.00  0.00    +0.004 C 
ATOM      4  C   UNL     1       2.530   8.357  -0.498  0.00  0.00    +0.008 C 
ATOM      5  C   UNL     1       3.529   7.331  -0.998  0.00  0.00    +0.119 C 
ATOM      6  C   UNL     1       3.689   6.252   0.163  0.00  0.00    +0.127 C 
ATOM      7  C   UNL     1       4.362   7.089   1.180  0.00  0.00    +0.224 C 
ATOM      8  O   UNL     1       4.248   6.975   2.381  0.00  0.00    -0.275 OA
ATOM      9  N   UNL     1       5.144   8.008   0.502  0.00  0.00    -0.284 N 
ATOM     10  C   UNL     1       4.957   7.743  -0.952  0.00  0.00    +0.123 C 
ATOM     11  C   UNL     1       5.429   8.894  -1.803  0.00  0.00    +0.076 C 
ATOM     12  C   UNL     1       6.768   9.339  -1.233  0.00  0.00    +0.140 C 
ATOM     13  O   UNL     1       7.769   9.280  -1.905  0.00  0.00    -0.297 OA
ATOM     14  C   UNL     1       6.807   9.850   0.180  0.00  0.00    +0.105 C 
ATOM     15  C   UNL     1       5.982   9.004   1.133  0.00  0.00    +0.149 C 
ATOM     16  C   UNL     1       4.477  10.079  -1.860  0.00  0.00    +0.017 C 
ATOM     17  O   UNL     1       2.805   6.560  -1.927  0.00  0.00    -0.359 OA
ENDROOT
BRANCH  15  18
ATOM     18  C   UNL     1       5.119   9.927   1.954  0.00  0.00    +0.126 A 
ATOM     19  C   UNL     1       5.371  10.325   3.214  0.00  0.00    +0.046 A 
ATOM     20  C   UNL     1       4.311  11.180   3.593  0.00  0.00    +0.041 A 
ATOM     21  C   UNL     1       3.470  11.247   2.545  0.00  0.00    +0.195 A 
ATOM     22  O   UNL     1       3.964  10.485   1.556  0.00  0.00    -0.466 OA
ENDBRANCH  15  18
BRANCH   1  24
ATOM     23  N   UNL     1       1.163   3.495   0.009  0.00  0.00    -0.285 N 
ATOM     24  C   UNL     1       2.321   4.180   0.104  0.00  0.00    +0.224 C 
ATOM     25  O   UNL     1       3.379   3.587   0.091  0.00  0.00    -0.275 OA
ATOM     26  H   UNL     1       0.322   3.972  -0.058  0.00  0.00    +0.155 HD
BRANCH  23  31
ATOM     27  C   UNL     1       2.139   0.015   0.740  0.00  0.00    +0.061 A 
ATOM     28  C   UNL     1       1.186  -0.681  -0.007  0.00  0.00    +0.015 A 
ATOM     29  C   UNL     1       0.241   0.010  -0.737  0.00  0.00    +0.003 A 
ATOM     30  C   UNL     1       0.233   1.393  -0.732  0.00  0.00    +0.023 A 
ATOM     31  C   UNL     1       1.177   2.095   0.008  0.00  0.00    +0.034 A 
ATOM     32  C   UNL     1       2.130   1.411   0.745  0.00  0.00    +0.038 A 
BRANCH  27  33
ATOM     33  C   UNL     1       3.151  -0.722   1.524  0.00  0.00    +0.339 C 
ATOM     34  O   UNL     1       3.978  -0.114   2.173  0.00  0.00    -0.245 OA
BRANCH  33  35
ATOM     35  O   UNL     1       3.157  -2.069   1.518  0.00  0.00    -0.461 OA
BRANCH  35  37
ATOM     36  C   UNL     1       4.029  -4.244   2.180  0.00  0.00    +0.048 C 
ATOM     37  C   UNL     1       4.181  -2.727   2.310  0.00  0.00    +0.229 C 
ENDBRANCH  35  37
ENDBRANCH  33  35
ENDBRANCH  27  33
ENDBRANCH  23  31
ENDBRANCH   1  24
TORSDOF 6
