REMARK  Name = ZINC14548405
REMARK  4 active torsions:
REMARK  status: ('A' for Active; 'I' for Inactive)
REMARK    1  A    between atoms: C_4  and  N_7
REMARK    2  A    between atoms: N_7  and  S_8
REMARK    3  A    between atoms: S_8  and  C_11
REMARK    4  A    between atoms: C_24  and  C_27
REMARK                            x       y       z     vdW  Elec       q    Type
REMARK                         _______ _______ _______ _____ _____    ______ ____
ROOT
ATOM      1  C   UNL     1      -4.611   3.036   0.067  0.00  0.00    +0.109 A 
ATOM      2  C   UNL     1      -4.772   2.846  -1.293  0.00  0.00    +0.030 A 
ATOM      3  C   UNL     1      -4.230   1.729  -1.897  0.00  0.00    +0.025 A 
ATOM      4  C   UNL     1      -3.526   0.802  -1.137  0.00  0.00    +0.031 A 
ATOM      5  C   UNL     1      -3.367   0.986   0.225  0.00  0.00    -0.018 A 
ATOM      6  C   UNL     1      -3.915   2.114   0.821  0.00  0.00    +0.034 A 
ATOM      7  C   UNL     1      -2.622   0.014   1.099  0.00  0.00    +0.049 C 
ATOM      8  C   UNL     1      -3.597  -0.491   2.154  0.00  0.00    -0.023 C 
ATOM      9  C   UNL     1      -4.113  -1.638   1.788  0.00  0.00    -0.030 C 
ATOM     10  C   UNL     1      -3.556  -2.065   0.441  0.00  0.00    +0.033 C 
ATOM     11  C   UNL     1      -2.231  -1.271   0.348  0.00  0.00    +0.029 C 
ATOM     12  C   UNL     1      -1.860  -0.999  -1.098  0.00  0.00    +0.111 C 
ATOM     13  N   UNL     1      -2.973  -0.318  -1.769  0.00  0.00    -0.336 N 
ATOM     14  H   UNL     1      -3.314  -0.632  -2.621  0.00  0.00    +0.147 HD
ENDROOT
BRANCH  12  15
ATOM     15  C   UNL     1      -0.634  -0.125  -1.146  0.00  0.00    +0.010 A 
ATOM     16  C   UNL     1       0.657  -0.477  -1.361  0.00  0.00    +0.013 A 
ATOM     17  C   UNL     1       1.629   0.506  -1.361  0.00  0.00    +0.008 A 
ATOM     18  C   UNL     1       1.262   1.793  -1.147  0.00  0.00    +0.045 A 
ATOM     19  S   UNL     1      -0.504   1.643  -0.934  0.00  0.00    -0.100 S 
ENDBRANCH  12  15
BRANCH   1  20
ATOM     20  S   UNL     1      -5.299   4.462   0.841  0.00  0.00    +0.072 S 
ATOM     21  O   UNL     1      -6.287   4.969  -0.046  0.00  0.00    -0.150 OA
ATOM     22  O   UNL     1      -5.595   4.094   2.181  0.00  0.00    -0.150 OA
BRANCH  20  23
ATOM     23  N   UNL     1      -4.101   5.604   0.917  0.00  0.00    -0.216 N 
ATOM     24  H   UNL     1      -3.779   5.912   1.778  0.00  0.00    +0.174 HD
BRANCH  23  28
ATOM     25  C   UNL     1      -2.471   7.149  -2.589  0.00  0.00    +0.000 A 
ATOM     26  C   UNL     1      -3.736   7.537  -2.187  0.00  0.00    +0.002 A 
ATOM     27  C   UNL     1      -4.280   7.026  -1.024  0.00  0.00    +0.024 A 
ATOM     28  C   UNL     1      -3.554   6.122  -0.259  0.00  0.00    +0.048 A 
ATOM     29  C   UNL     1      -2.282   5.738  -0.664  0.00  0.00    +0.024 A 
ATOM     30  C   UNL     1      -1.747   6.248  -1.830  0.00  0.00    +0.002 A 
ENDBRANCH  23  28
ENDBRANCH  20  23
ENDBRANCH   1  20
TORSDOF 4
