REMARK  Name = ZINC00716694
REMARK  11 active torsions:
REMARK  status: ('A' for Active; 'I' for Inactive)
REMARK    1  A    between atoms: C_1  and  C_2
REMARK    2  A    between atoms: C_2  and  O_4
REMARK    3  A    between atoms: O_4  and  C_5
REMARK    4  A    between atoms: C_8  and  C_13
REMARK    5  A    between atoms: C_10  and  O_11
REMARK    6  A    between atoms: O_11  and  C_12
REMARK    7  A    between atoms: C_18  and  C_23
REMARK    8  A    between atoms: C_26  and  O_31
REMARK    9  A    between atoms: C_27  and  O_29
REMARK   10  A    between atoms: O_29  and  C_30
REMARK   11  A    between atoms: O_31  and  C_32
REMARK                            x       y       z     vdW  Elec       q    Type
REMARK                         _______ _______ _______ _____ _____    ______ ____
ROOT
ATOM      1  C   UNL     1       3.242   1.298  -1.295  0.00  0.00    +0.136 C 
ATOM      2  C   UNL     1       3.804   2.677  -1.548  0.00  0.00    +0.036 C 
ATOM      3  C   UNL     1       3.422   3.809  -0.935  0.00  0.00    +0.017 C 
ATOM      4  C   UNL     1       4.052   5.139  -1.315  0.00  0.00    +0.059 C 
ATOM      5  C   UNL     1       5.512   4.927  -1.712  0.00  0.00    +0.032 C 
ATOM      6  C   UNL     1       5.536   3.970  -2.910  0.00  0.00    +0.088 C 
ATOM      7  C   UNL     1       4.824   2.707  -2.528  0.00  0.00    +0.163 C 
ATOM      8  O   UNL     1       5.136   1.670  -3.081  0.00  0.00    -0.292 OA
ATOM      9  N   UNL     1       2.473   3.886   0.032  0.00  0.00    -0.316 N 
ATOM     10  C   UNL     1       1.225   3.277  -0.033  0.00  0.00    +0.052 A 
ATOM     11  C   UNL     1       0.048   4.005  -0.065  0.00  0.00    +0.025 A 
ATOM     12  C   UNL     1      -1.164   3.335  -0.070  0.00  0.00    +0.002 A 
ATOM     13  C   UNL     1      -1.198   1.952  -0.049  0.00  0.00    +0.002 A 
ATOM     14  C   UNL     1      -0.021   1.224  -0.028  0.00  0.00    +0.025 A 
ATOM     15  C   UNL     1       1.193   1.891  -0.039  0.00  0.00    +0.049 A 
ATOM     16  N   UNL     1       2.402   1.201  -0.120  0.00  0.00    -0.331 N 
ATOM     17  H   UNL     1       2.680   4.404   0.825  0.00  0.00    +0.152 HD
ATOM     18  H   UNL     1       2.684   0.646   0.624  0.00  0.00    +0.147 HD
ENDROOT
BRANCH   1  22
ATOM     19  C   UNL     1       0.943   0.127  -4.705  0.00  0.00    +0.173 A 
ATOM     20  C   UNL     1       0.558   1.223  -3.949  0.00  0.00    +0.050 A 
ATOM     21  C   UNL     1       1.303   1.599  -2.848  0.00  0.00    +0.009 A 
ATOM     22  C   UNL     1       2.433   0.883  -2.497  0.00  0.00    -0.019 A 
ATOM     23  C   UNL     1       2.826  -0.207  -3.249  0.00  0.00    +0.055 A 
ATOM     24  C   UNL     1       2.080  -0.593  -4.352  0.00  0.00    +0.163 A 
BRANCH  24  25
ATOM     25  O   UNL     1       2.463  -1.668  -5.091  0.00  0.00    -0.491 OA
ATOM     26  C   UNL     1       3.641  -2.359  -4.670  0.00  0.00    +0.277 C 
ENDBRANCH  24  25
BRANCH  19  27
ATOM     27  O   UNL     1       0.211  -0.244  -5.790  0.00  0.00    -0.422 OA
BRANCH  27  29
ATOM     28  C   UNL     1      -1.491  -1.736  -6.777  0.00  0.00    +0.136 C 
ATOM     29  C   UNL     1      -0.722  -1.190  -5.601  0.00  0.00    +0.309 C 
ATOM     30  O   UNL     1      -0.946  -1.604  -4.488  0.00  0.00    -0.251 OA
ENDBRANCH  27  29
ENDBRANCH  19  27
ENDBRANCH   1  22
BRANCH   5  31
ATOM     31  C   UNL     1       6.134   6.244  -2.098  0.00  0.00    -0.040 A 
ATOM     32  C   UNL     1       5.588   6.989  -3.127  0.00  0.00    +0.008 A 
ATOM     33  C   UNL     1       6.155   8.199  -3.484  0.00  0.00    +0.049 A 
ATOM     34  C   UNL     1       7.273   8.666  -2.811  0.00  0.00    +0.161 A 
ATOM     35  C   UNL     1       7.822   7.915  -1.776  0.00  0.00    +0.162 A 
ATOM     36  C   UNL     1       7.246   6.707  -1.419  0.00  0.00    +0.053 A 
BRANCH  35  37
ATOM     37  O   UNL     1       8.919   8.370  -1.113  0.00  0.00    -0.491 OA
ATOM     38  C   UNL     1       9.429   7.547  -0.062  0.00  0.00    +0.277 C 
ENDBRANCH  35  37
BRANCH  34  39
ATOM     39  O   UNL     1       7.831   9.856  -3.161  0.00  0.00    -0.491 OA
ATOM     40  C   UNL     1       7.213  10.572  -4.233  0.00  0.00    +0.277 C 
ENDBRANCH  34  39
ENDBRANCH   5  31
TORSDOF 7
