REMARK  Name = ZINC23858110
REMARK  9 active torsions:
REMARK  status: ('A' for Active; 'I' for Inactive)
REMARK    1  A    between atoms: C_1  and  C_2
REMARK    2  A    between atoms: C_5  and  N_33
REMARK    3  A    between atoms: C_7  and  N_8
REMARK    4  A    between atoms: C_9  and  C_11
REMARK    5  A    between atoms: N_13  and  C_14
REMARK    6  A    between atoms: C_14  and  C_15
REMARK    7  A    between atoms: C_15  and  C_17
REMARK    8  A    between atoms: C_15  and  N_27
REMARK    9  A    between atoms: N_25  and  C_26
REMARK                            x       y       z     vdW  Elec       q    Type
REMARK                         _______ _______ _______ _____ _____    ______ ____
ROOT
ATOM      1  C   UNL     1       1.558   1.735  -0.385  0.00  0.00    +0.094 C 
ENDROOT
BRANCH   1   4
ATOM      2  C   UNL     1       3.279   2.433   1.193  0.00  0.00    +0.299 C 
ATOM      3  O   UNL     1       3.479   3.408   0.498  0.00  0.00    -0.265 OA
ATOM      4  N   UNL     1       2.338   1.535   0.839  0.00  0.00    -0.309 N 
ATOM      5  H   UNL     1       2.157   0.651   1.468  0.00  0.00    +0.149 HD
BRANCH   2   7
ATOM      6  N   UNL     1       5.014   3.128   2.795  0.00  0.00    -0.277 N 
ATOM      7  C   UNL     1       4.074   2.230   2.441  0.00  0.00    +0.303 C 
ATOM      8  O   UNL     1       3.874   1.255   3.135  0.00  0.00    -0.265 OA
ATOM      9  H   UNL     1       5.143   4.049   2.208  0.00  0.00    +0.155 HD
BRANCH   6  16
ATOM     10  C   UNL     1       7.787   3.734   2.591  0.00  0.00    +0.045 C 
ATOM     11  C   UNL     1       7.183   3.171   3.853  0.00  0.00    -0.029 A 
ATOM     12  C   UNL     1       7.981   2.935   4.955  0.00  0.00    +0.007 A 
ATOM     13  C   UNL     1       7.429   2.418   6.112  0.00  0.00    +0.033 A 
ATOM     14  C   UNL     1       6.076   2.136   6.170  0.00  0.00    +0.128 A 
ATOM     15  C   UNL     1       5.271   2.375   5.074  0.00  0.00    +0.056 A 
ATOM     16  C   UNL     1       5.824   2.889   3.908  0.00  0.00    +0.039 A 
BRANCH  14  17
ATOM     17  N   UNL     1       5.489   1.583   7.412  0.00  0.00    +0.056 N 
ATOM     18  O   UNL     1       6.197   1.376   8.381  0.00  0.00    -0.126 OA
ATOM     19  O   UNL     1       4.298   1.334   7.464  0.00  0.00    -0.126 OA
ENDBRANCH  14  17
ENDBRANCH   6  16
ENDBRANCH   2   7
ENDBRANCH   1   4
BRANCH   1  20
ATOM     20  C   UNL     1       0.613   0.549  -0.587  0.00  0.00    -0.020 C 
BRANCH  20  21
ATOM     21  C   UNL     1      -0.171   0.742  -1.859  0.00  0.00    -0.059 A 
ATOM     22  C   UNL     1      -0.883   1.910  -2.064  0.00  0.00    +0.004 A 
ATOM     23  C   UNL     1      -1.599   2.091  -3.229  0.00  0.00    +0.023 A 
ATOM     24  C   UNL     1      -1.620   1.094  -4.202  0.00  0.00    +0.033 A 
ATOM     25  C   UNL     1      -0.901  -0.076  -3.986  0.00  0.00    -0.025 A 
ATOM     26  C   UNL     1      -0.183  -0.251  -2.822  0.00  0.00    +0.007 A 
ATOM     27  C   UNL     1      -1.089  -0.969  -5.197  0.00  0.00    +0.056 C 
ATOM     28  C   UNL     1      -1.642   0.006  -6.261  0.00  0.00    +0.109 C 
ATOM     29  N   UNL     1      -2.280   1.056  -5.437  0.00  0.00    -0.332 N 
ATOM     30  C   UNL     1      -2.218   2.362  -6.107  0.00  0.00    +0.129 C 
ENDBRANCH  20  21
BRANCH  20  31
ATOM     31  N   UNL     1      -0.313   0.462   0.550  0.00  0.00    +0.385 N 
ATOM     32  C   UNL     1      -1.510  -0.311   0.196  0.00  0.00    -0.078 C 
ATOM     33  C   UNL     1      -2.381  -0.504   1.440  0.00  0.00    -0.019 C 
ATOM     34  C   UNL     1      -2.782   0.866   1.994  0.00  0.00    -0.004 C 
ATOM     35  C   UNL     1      -1.517   1.670   2.309  0.00  0.00    -0.019 C 
ATOM     36  C   UNL     1      -0.671   1.800   1.040  0.00  0.00    -0.078 C 
ATOM     37  H   UNL     1       0.199  -0.068   1.367  0.00  0.00    -0.081 HD
ENDBRANCH  20  31
ENDBRANCH   1  20
TORSDOF 7
