REMARK  Name = ZINC16503465
REMARK  13 active torsions:
REMARK  status: ('A' for Active; 'I' for Inactive)
REMARK    1  A    between atoms: C_1  and  C_2
REMARK    2  A    between atoms: C_2  and  C_3
REMARK    3  A    between atoms: C_3  and  C_5
REMARK    4  A    between atoms: C_3  and  N_6
REMARK    5  A    between atoms: N_6  and  C_7
REMARK    6  A    between atoms: C_7  and  C_8
REMARK    7  A    between atoms: C_18  and  C_20
REMARK    8  A    between atoms: C_23  and  C_26
REMARK    9  A    between atoms: C_26  and  C_27
REMARK   10  A    between atoms: C_26  and  C_28
REMARK   11  A    between atoms: C_26  and  C_29
REMARK   12  A    between atoms: C_30  and  C_32
REMARK   13  A    between atoms: C_36  and  N_38
REMARK                            x       y       z     vdW  Elec       q    Type
REMARK                         _______ _______ _______ _____ _____    ______ ____
ROOT
ATOM      1  C   UNL     1       1.947   2.092   0.946  0.00  0.00    +0.234 C 
ATOM      2  O   UNL     1       0.969   1.846   1.621  0.00  0.00    -0.274 OA
ATOM      3  N   UNL     1       2.800   3.064   1.324  0.00  0.00    -0.289 N 
ATOM      4  C   UNL     1       3.991   3.367   0.517  0.00  0.00    +0.114 C 
ATOM      5  C   UNL     1       3.840   4.796  -0.039  0.00  0.00    +0.062 C 
ATOM      6  C   UNL     1       3.327   5.681   1.050  0.00  0.00    -0.003 A 
ATOM      7  C   UNL     1       2.744   5.312   2.222  0.00  0.00    -0.012 A 
ATOM      8  C   UNL     1       2.343   6.341   3.073  0.00  0.00    +0.013 A 
ATOM      9  C   UNL     1       2.544   7.631   2.717  0.00  0.00    +0.046 A 
ATOM     10  S   UNL     1       3.328   7.454   1.121  0.00  0.00    -0.101 S 
ATOM     11  C   UNL     1       2.556   3.833   2.552  0.00  0.00    +0.137 C 
ENDROOT
BRANCH  11  12
ATOM     12  C   UNL     1       3.539   3.419   3.617  0.00  0.00    -0.023 A 
ATOM     13  C   UNL     1       4.891   3.649   3.437  0.00  0.00    +0.006 A 
ATOM     14  C   UNL     1       5.792   3.275   4.416  0.00  0.00    +0.004 A 
ATOM     15  C   UNL     1       5.343   2.659   5.569  0.00  0.00    -0.042 A 
ATOM     16  C   UNL     1       3.993   2.424   5.747  0.00  0.00    +0.004 A 
ATOM     17  C   UNL     1       3.091   2.804   4.771  0.00  0.00    +0.006 A 
BRANCH  15  18
ATOM     18  C   UNL     1       6.327   2.246   6.634  0.00  0.00    -0.013 C 
ATOM     19  C   UNL     1       6.240   0.734   6.849  0.00  0.00    +0.015 C 
ATOM     20  C   UNL     1       7.743   2.619   6.192  0.00  0.00    +0.015 C 
ATOM     21  C   UNL     1       5.995   2.967   7.942  0.00  0.00    +0.015 C 
ENDBRANCH  15  18
ENDBRANCH  11  12
BRANCH   1  22
ATOM     22  C   UNL     1       2.207   1.310  -0.316  0.00  0.00    +0.204 C 
BRANCH  22  23
ATOM     23  N   UNL     1       1.144   0.320  -0.505  0.00  0.00    -0.286 N 
ATOM     24  C   UNL     1       0.037   0.644  -1.202  0.00  0.00    +0.247 C 
ATOM     25  O   UNL     1       0.116   1.401  -2.150  0.00  0.00    -0.270 OA
BRANCH  24  26
ATOM     26  C   UNL     1      -1.273   0.079  -0.814  0.00  0.00    +0.039 A 
ATOM     27  C   UNL     1      -1.356  -1.224  -0.321  0.00  0.00    +0.013 A 
ATOM     28  C   UNL     1      -2.583  -1.748   0.033  0.00  0.00    +0.003 A 
ATOM     29  C   UNL     1      -3.727  -0.979  -0.088  0.00  0.00    +0.033 A 
ATOM     30  C   UNL     1      -3.652   0.313  -0.576  0.00  0.00    +0.127 A 
ATOM     31  C   UNL     1      -2.432   0.846  -0.939  0.00  0.00    +0.045 A 
BRANCH  30  32
ATOM     32  N   UNL     1      -4.882   1.125  -0.708  0.00  0.00    +0.056 N 
ATOM     33  O   UNL     1      -4.817   2.263  -1.137  0.00  0.00    -0.126 OA
ATOM     34  O   UNL     1      -5.959   0.656  -0.388  0.00  0.00    -0.126 OA
ENDBRANCH  30  32
ENDBRANCH  24  26
BRANCH  23  35
ATOM     35  C   UNL     1       1.284  -1.023   0.065  0.00  0.00    +0.074 C 
ATOM     36  C   UNL     1       0.256  -1.213   1.181  0.00  0.00    +0.028 C 
BRANCH  35  38
ATOM     37  C   UNL     1       2.373  -2.382  -1.727  0.00  0.00    +0.005 C 
ATOM     38  C   UNL     1       1.048  -2.067  -1.028  0.00  0.00    +0.019 C 
ENDBRANCH  35  38
ENDBRANCH  23  35
ENDBRANCH  22  23
ENDBRANCH   1  22
TORSDOF 8
