REMARK  Name = ZINC38904787
REMARK  9 active torsions:
REMARK  status: ('A' for Active; 'I' for Inactive)
REMARK    1  A    between atoms: C_1  and  C_2
REMARK    2  A    between atoms: C_5  and  C_9
REMARK    3  A    between atoms: C_6  and  C_8
REMARK    4  A    between atoms: C_9  and  C_11
REMARK    5  A    between atoms: C_9  and  N_12
REMARK    6  A    between atoms: C_13  and  C_15
REMARK    7  A    between atoms: N_20  and  C_22
REMARK    8  A    between atoms: C_22  and  C_23
REMARK    9  A    between atoms: C_25  and  C_28
REMARK                            x       y       z     vdW  Elec       q    Type
REMARK                         _______ _______ _______ _____ _____    ______ ____
ROOT
ATOM      1  C   UNL     1      -1.766  -6.453  -2.587  0.00  0.00    +0.058 C 
ATOM      2  C   UNL     1      -0.665  -6.606  -3.640  0.00  0.00    +0.009 C 
ATOM      3  C   UNL     1      -1.272  -7.191  -4.918  0.00  0.00    -0.018 C 
ATOM      4  C   UNL     1      -1.950  -8.523  -4.590  0.00  0.00    -0.078 C 
ATOM      5  N   UNL     1      -3.010  -8.306  -3.598  0.00  0.00    +0.386 N 
ATOM      6  C   UNL     1      -2.426  -7.812  -2.345  0.00  0.00    -0.065 C 
ATOM      7  H   UNL     1      -3.667  -7.627  -3.952  0.00  0.00    -0.081 HD
ENDROOT
BRANCH   1   9
ATOM      8  N   UNL     1      -0.525  -4.764  -1.273  0.00  0.00    -0.309 N 
ATOM      9  C   UNL     1      -1.165  -5.950  -1.299  0.00  0.00    +0.215 C 
ATOM     10  O   UNL     1      -1.257  -6.612  -0.288  0.00  0.00    -0.276 OA
ATOM     11  H   UNL     1      -0.451  -4.235  -2.082  0.00  0.00    +0.149 HD
BRANCH   8  12
ATOM     12  C   UNL     1       0.059  -4.275  -0.021  0.00  0.00    +0.100 C 
ATOM     13  C   UNL     1       1.498  -4.782   0.102  0.00  0.00    +0.033 C 
BRANCH  12  18
ATOM     14  C   UNL     1       0.041   1.503  -0.018  0.00  0.00    +0.044 C 
ATOM     15  C   UNL     1       0.046  -0.004  -0.019  0.00  0.00    -0.050 A 
ATOM     16  C   UNL     1       0.085  -0.694  -1.216  0.00  0.00    +0.004 A 
ATOM     17  C   UNL     1       0.089  -2.076  -1.217  0.00  0.00    +0.006 A 
ATOM     18  C   UNL     1       0.056  -2.768  -0.021  0.00  0.00    -0.025 A 
ATOM     19  C   UNL     1       0.018  -2.078   1.176  0.00  0.00    -0.045 A 
ATOM     20  C   UNL     1       0.018  -0.696   1.177  0.00  0.00    +0.007 A 
ATOM     21  C   UNL     1      -0.018  -2.833   2.480  0.00  0.00    +0.044 C 
ENDBRANCH  12  18
ENDBRANCH   8  12
ENDBRANCH   1   9
BRANCH   5  22
ATOM     22  C   UNL     1      -3.708  -9.573  -3.345  0.00  0.00    +0.022 C 
BRANCH  22  23
ATOM     23  C   UNL     1      -4.419 -10.014  -4.599  0.00  0.00    +0.211 A 
ATOM     24  N   UNL     1      -3.919 -10.776  -5.530  0.00  0.00    -0.193 NA
ATOM     25  C   UNL     1      -4.827 -10.969  -6.504  0.00  0.00    +0.202 A 
ATOM     26  N   UNL     1      -5.922 -10.322  -6.190  0.00  0.00    -0.056 NA
ATOM     27  O   UNL     1      -5.674  -9.694  -4.941  0.00  0.00    -0.340 OA
BRANCH  25  28
ATOM     28  C   UNL     1      -4.621 -11.780  -7.730  0.00  0.00    +0.023 A 
ATOM     29  C   UNL     1      -3.406 -12.427  -7.945  0.00  0.00    +0.012 A 
ATOM     30  C   UNL     1      -3.220 -13.180  -9.086  0.00  0.00    +0.002 A 
ATOM     31  C   UNL     1      -4.237 -13.293 -10.016  0.00  0.00    +0.015 A 
ATOM     32  C   UNL     1      -5.447 -12.653  -9.808  0.00  0.00    +0.019 A 
ATOM     33  C   UNL     1      -5.645 -11.902  -8.666  0.00  0.00    +0.027 A 
ATOM     34 BR   UNL     1      -6.832 -12.813 -11.086  0.00  0.00    -0.050 Br
ENDBRANCH  25  28
ENDBRANCH  22  23
ENDBRANCH   5  22
TORSDOF 6
