REMARK  Name = ZINC12803187
REMARK  8 active torsions:
REMARK  status: ('A' for Active; 'I' for Inactive)
REMARK    1  A    between atoms: C_1  and  C_2
REMARK    2  A    between atoms: C_2  and  N_3
REMARK    3  A    between atoms: C_7  and  C_9
REMARK    4  A    between atoms: C_9  and  C_11
REMARK    5  A    between atoms: C_9  and  S_12
REMARK    6  A    between atoms: S_12  and  C_13
REMARK    7  A    between atoms: C_16  and  C_18
REMARK    8  A    between atoms: C_25  and  C_28
REMARK                            x       y       z     vdW  Elec       q    Type
REMARK                         _______ _______ _______ _____ _____    ______ ____
ROOT
ATOM      1  C   UNL     1      -0.417   2.635   7.116  0.00  0.00    +0.278 A 
ATOM      2  N   UNL     1       0.752   2.164   6.751  0.00  0.00    -0.101 NA
ATOM      3  N   UNL     1       0.741   1.917   5.489  0.00  0.00    -0.106 NA
ATOM      4  C   UNL     1      -0.438   2.221   4.995  0.00  0.00    +0.256 A 
ATOM      5  O   UNL     1      -1.193   2.688   6.015  0.00  0.00    -0.410 OA
ENDROOT
BRANCH   4   6
ATOM      6  C   UNL     1      -0.856   2.085   3.592  0.00  0.00    +0.076 A 
ATOM      7  C   UNL     1      -0.136   1.624   2.510  0.00  0.00    +0.024 A 
ATOM      8  C   UNL     1      -0.733   1.581   1.260  0.00  0.00    -0.036 A 
ATOM      9  C   UNL     1      -2.029   2.007   1.181  0.00  0.00    -0.006 A 
ATOM     10  S   UNL     1      -2.430   2.475   2.843  0.00  0.00    -0.088 S 
ATOM     11  C   UNL     1      -2.897   2.062  -0.035  0.00  0.00    +0.043 C 
ATOM     12  C   UNL     1      -2.239   1.218  -1.137  0.00  0.00    +0.009 C 
ATOM     13  C   UNL     1      -0.758   1.595  -1.226  0.00  0.00    -0.009 C 
ATOM     14  C   UNL     1      -0.013   1.086   0.008  0.00  0.00    +0.039 C 
ATOM     15  C   UNL     1      -0.149   0.967  -2.482  0.00  0.00    +0.008 C 
ENDBRANCH   4   6
BRANCH   1  16
ATOM     16  S   UNL     1      -0.885   3.118   8.744  0.00  0.00    -0.053 S 
BRANCH  16  17
ATOM     17  C   UNL     1       0.654   2.768   9.630  0.00  0.00    +0.139 C 
ATOM     18  C   UNL     1       1.759   3.694   9.119  0.00  0.00    +0.029 C 
BRANCH  17  23
ATOM     19  N   UNL     1       1.941   2.079  14.210  0.00  0.00    -0.299 N 
ATOM     20  C   UNL     1       1.103   2.641  13.317  0.00  0.00    +0.306 C 
ATOM     21  O   UNL     1       0.181   3.334  13.702  0.00  0.00    -0.252 OA
ATOM     22  N   UNL     1       1.287   2.436  11.998  0.00  0.00    -0.239 N 
ATOM     23  C   UNL     1       0.449   2.998  11.105  0.00  0.00    +0.234 C 
ATOM     24  O   UNL     1      -0.471   3.689  11.488  0.00  0.00    -0.274 OA
ATOM     25  H   UNL     1       2.677   1.526  13.904  0.00  0.00    +0.150 HD
ATOM     26  H   UNL     1       2.023   1.883  11.691  0.00  0.00    +0.159 HD
BRANCH  19  28
ATOM     27  C   UNL     1       2.821   1.558  16.432  0.00  0.00    +0.024 C 
ATOM     28  C   UNL     1       1.741   2.303  15.644  0.00  0.00    +0.102 C 
ENDBRANCH  19  28
ENDBRANCH  17  23
ENDBRANCH  16  17
ENDBRANCH   1  16
TORSDOF 5
