REMARK  Name = ZINC35752343
REMARK  11 active torsions:
REMARK  status: ('A' for Active; 'I' for Inactive)
REMARK    1  A    between atoms: C_1  and  C_2
REMARK    2  A    between atoms: C_6  and  C_8
REMARK    3  A    between atoms: C_8  and  N_9
REMARK    4  A    between atoms: C_10  and  C_29
REMARK    5  A    between atoms: C_12  and  C_17
REMARK    6  A    between atoms: C_20  and  N_23
REMARK    7  A    between atoms: C_24  and  C_26
REMARK    8  A    between atoms: C_26  and  C_27
REMARK    9  A    between atoms: C_26  and  C_28
REMARK   10  A    between atoms: N_31  and  C_32
REMARK   11  A    between atoms: C_32  and  C_33
REMARK                            x       y       z     vdW  Elec       q    Type
REMARK                         _______ _______ _______ _____ _____    ______ ____
ROOT
ATOM      1  N   UNL     1       1.365  -3.339   2.712  0.00  0.00    -0.248 N 
ATOM      2  C   UNL     1       2.348  -4.417   2.486  0.00  0.00    +0.210 C 
ATOM      3  C   UNL     1       3.674  -3.747   2.915  0.00  0.00    +0.238 C 
ATOM      4  O   UNL     1       3.214  -2.722   3.817  0.00  0.00    -0.440 OA
ATOM      5  C   UNL     1       1.958  -2.395   3.467  0.00  0.00    +0.405 C 
ATOM      6  O   UNL     1       1.415  -1.360   3.799  0.00  0.00    -0.226 OA
ENDROOT
BRANCH   3   7
ATOM      7  C   UNL     1       4.380  -3.142   1.728  0.00  0.00    -0.005 A 
ATOM      8  C   UNL     1       4.052  -1.867   1.306  0.00  0.00    +0.009 A 
ATOM      9  C   UNL     1       4.697  -1.311   0.219  0.00  0.00    +0.024 A 
ATOM     10  C   UNL     1       5.677  -2.033  -0.450  0.00  0.00    +0.033 A 
ATOM     11  C   UNL     1       6.004  -3.313  -0.023  0.00  0.00    +0.024 A 
ATOM     12  C   UNL     1       5.359  -3.862   1.068  0.00  0.00    +0.009 A 
BRANCH  10  13
ATOM     13  N   UNL     1       6.332  -1.472  -1.552  0.00  0.00    -0.285 N 
ATOM     14  C   UNL     1       6.563  -0.145  -1.595  0.00  0.00    +0.220 C 
ATOM     15  O   UNL     1       6.290   0.549  -0.639  0.00  0.00    -0.275 OA
ATOM     16  H   UNL     1       6.620  -2.039  -2.285  0.00  0.00    +0.155 HD
BRANCH  14  17
ATOM     17  C   UNL     1       7.161   0.476  -2.831  0.00  0.00    +0.069 C 
ATOM     18  C   UNL     1       7.318   1.983  -2.620  0.00  0.00    +0.017 C 
ATOM     19  C   UNL     1       8.531  -0.147  -3.103  0.00  0.00    +0.017 C 
ENDBRANCH  14  17
ENDBRANCH  10  13
ENDBRANCH   3   7
BRANCH   2  20
ATOM     20  C   UNL     1       2.041  -5.613   3.351  0.00  0.00    +0.238 C 
ATOM     21  O   UNL     1       1.325  -5.491   4.322  0.00  0.00    -0.274 OA
ATOM     22  N   UNL     1       2.563  -6.817   3.045  0.00  0.00    -0.307 N 
ATOM     23  H   UNL     1       3.136  -6.914   2.268  0.00  0.00    +0.149 HD
BRANCH  22  24
ATOM     24  C   UNL     1       2.266  -7.979   3.886  0.00  0.00    +0.178 C 
BRANCH  24  25
ATOM     25  C   UNL     1       2.966  -9.193   3.331  0.00  0.00    +0.122 A 
ATOM     26  C   UNL     1       4.202  -9.608   3.661  0.00  0.00    +0.046 A 
ATOM     27  C   UNL     1       4.457 -10.777   2.909  0.00  0.00    +0.041 A 
ATOM     28  C   UNL     1       3.361 -11.007   2.163  0.00  0.00    +0.195 A 
ATOM     29  O   UNL     1       2.459 -10.047   2.428  0.00  0.00    -0.466 OA
ENDBRANCH  24  25
ENDBRANCH  22  24
ENDBRANCH   2  20
BRANCH   1  30
ATOM     30  C   UNL     1      -0.008  -3.300   2.202  0.00  0.00    +0.147 C 
BRANCH  30  36
ATOM     31  C   UNL     1      -0.401   0.841  -0.581  0.00  0.00    +0.044 C 
ATOM     32  C   UNL     1      -0.211  -0.651  -0.480  0.00  0.00    -0.050 A 
ATOM     33  C   UNL     1      -0.052  -1.407  -1.627  0.00  0.00    +0.003 A 
ATOM     34  C   UNL     1       0.122  -2.775  -1.534  0.00  0.00    +0.001 A 
ATOM     35  C   UNL     1       0.136  -3.387  -0.295  0.00  0.00    +0.005 A 
ATOM     36  C   UNL     1      -0.023  -2.632   0.851  0.00  0.00    -0.030 A 
ATOM     37  C   UNL     1      -0.192  -1.263   0.759  0.00  0.00    +0.008 A 
ENDBRANCH  30  36
ENDBRANCH   1  30
TORSDOF 8
