REMARK  Name = ZINC39485525
REMARK  4 active torsions:
REMARK  status: ('A' for Active; 'I' for Inactive)
REMARK    1  A    between atoms: C_10  and  C_12
REMARK    2  A    between atoms: C_18  and  C_20
REMARK    3  A    between atoms: N_22  and  N_23
REMARK    4  A    between atoms: C_24  and  C_26
REMARK                            x       y       z     vdW  Elec       q    Type
REMARK                         _______ _______ _______ _____ _____    ______ ____
ROOT
ATOM      1  C   UNL     1       7.316   0.580   0.948  0.00  0.00    +0.233 C 
ATOM      2  O   UNL     1       6.640   0.086   1.827  0.00  0.00    -0.274 OA
ATOM      3  N   UNL     1       8.658   0.608   1.066  0.00  0.00    -0.234 N 
ATOM      4  H   UNL     1       9.198   1.003   0.364  0.00  0.00    +0.173 HD
ENDROOT
BRANCH   1  10
ATOM      5  C   UNL     1       5.137   1.002  -0.158  0.00  0.00    +0.087 C 
ATOM      6  C   UNL     1       4.466   1.592  -1.400  0.00  0.00    +0.013 C 
ATOM      7  C   UNL     1       4.962   0.857  -2.647  0.00  0.00    +0.001 C 
ATOM      8  C   UNL     1       6.479   1.016  -2.763  0.00  0.00    +0.001 C 
ATOM      9  C   UNL     1       7.151   0.426  -1.521  0.00  0.00    +0.013 C 
ATOM     10  C   UNL     1       6.654   1.161  -0.275  0.00  0.00    +0.088 C 
BRANCH   5  20
ATOM     11  C   UNL     1       1.791  -4.612   0.482  0.00  0.00    +0.000 A 
ATOM     12  C   UNL     1       3.122  -4.554   0.109  0.00  0.00    +0.002 A 
ATOM     13  C   UNL     1       3.765  -3.339   0.020  0.00  0.00    +0.024 A 
ATOM     14  C   UNL     1       3.080  -2.156   0.306  0.00  0.00    +0.039 A 
ATOM     15  C   UNL     1       1.747  -2.224   0.679  0.00  0.00    -0.024 A 
ATOM     16  C   UNL     1       1.106  -3.445   0.767  0.00  0.00    +0.005 A 
ATOM     17  C   UNL     1       1.245  -0.820   0.930  0.00  0.00    +0.056 C 
ATOM     18  C   UNL     1       2.460   0.080   0.654  0.00  0.00    +0.118 C 
ATOM     19  N   UNL     1       3.540  -0.836   0.277  0.00  0.00    -0.271 N 
ATOM     20  C   UNL     1       4.793  -0.461  -0.049  0.00  0.00    +0.224 C 
ATOM     21  O   UNL     1       5.643  -1.301  -0.254  0.00  0.00    -0.275 OA
ENDBRANCH   5  20
ENDBRANCH   1  10
BRANCH   3  22
ATOM     22  N   UNL     1       9.273   0.067   2.203  0.00  0.00    -0.234 N 
ATOM     23  C   UNL     1      10.615   0.096   2.321  0.00  0.00    +0.235 C 
ATOM     24  O   UNL     1      11.291   0.589   1.443  0.00  0.00    -0.274 OA
ATOM     25  H   UNL     1       8.732  -0.327   2.906  0.00  0.00    +0.173 HD
BRANCH  23  26
ATOM     26  C   UNL     1      11.277  -0.486   3.544  0.00  0.00    +0.049 C 
ATOM     27  C   UNL     1      10.780   0.250   4.791  0.00  0.00    +0.019 C 
ATOM     28  C   UNL     1      11.452  -0.341   6.032  0.00  0.00    -0.009 C 
ATOM     29  C   UNL     1      12.969  -0.181   5.916  0.00  0.00    +0.007 C 
ATOM     30  C   UNL     1      13.465  -0.917   4.670  0.00  0.00    -0.009 C 
ATOM     31  C   UNL     1      12.794  -0.326   3.428  0.00  0.00    +0.019 C 
ATOM     32  C   UNL     1      13.115  -2.402   4.781  0.00  0.00    +0.007 C 
ATOM     33  C   UNL     1      11.598  -2.562   4.897  0.00  0.00    -0.009 C 
ATOM     34  C   UNL     1      11.102  -1.826   6.144  0.00  0.00    +0.007 C 
ATOM     35  C   UNL     1      10.927  -1.971   3.655  0.00  0.00    +0.019 C 
ENDBRANCH  23  26
ENDBRANCH   3  22
TORSDOF 4
