REMARK  Name = ZINC39921250
REMARK  7 active torsions:
REMARK  status: ('A' for Active; 'I' for Inactive)
REMARK    1  A    between atoms: C_1  and  O_2
REMARK    2  A    between atoms: O_2  and  C_3
REMARK    3  A    between atoms: C_6  and  C_11
REMARK    4  A    between atoms: C_7  and  O_9
REMARK    5  A    between atoms: O_9  and  C_10
REMARK    6  A    between atoms: C_26  and  N_30
REMARK    7  A    between atoms: C_27  and  C_28
REMARK                            x       y       z     vdW  Elec       q    Type
REMARK                         _______ _______ _______ _____ _____    ______ ____
ROOT
ATOM      1  C   UNL     1       2.507  -2.495  -4.390  0.00  0.00    +0.087 C 
ATOM      2  C   UNL     1       3.977  -2.068  -4.447  0.00  0.00    +0.154 C 
ATOM      3  C   UNL     1       3.965  -0.652  -5.000  0.00  0.00    +0.129 C 
ATOM      4  C   UNL     1       4.511   0.357  -4.221  0.00  0.00    +0.035 A 
ATOM      5  C   UNL     1       4.553   1.692  -4.674  0.00  0.00    +0.013 A 
ATOM      6  C   UNL     1       5.103   2.653  -3.884  0.00  0.00    +0.001 A 
ATOM      7  C   UNL     1       5.627   2.348  -2.632  0.00  0.00    +0.002 A 
ATOM      8  C   UNL     1       5.613   1.078  -2.138  0.00  0.00    +0.024 A 
ATOM      9  C   UNL     1       5.059   0.035  -2.898  0.00  0.00    +0.044 A 
ATOM     10  N   UNL     1       5.038  -1.211  -2.409  0.00  0.00    -0.284 N 
ATOM     11  C   UNL     1       4.557  -2.268  -3.064  0.00  0.00    +0.229 C 
ATOM     12  O   UNL     1       4.570  -3.378  -2.564  0.00  0.00    -0.275 OA
ATOM     13  O   UNL     1       3.418  -0.441  -6.199  0.00  0.00    -0.444 OA
ATOM     14  C   UNL     1       2.273  -1.112  -6.470  0.00  0.00    +0.198 C 
ATOM     15  C   UNL     1       1.810  -2.087  -5.659  0.00  0.00    +0.095 C 
ATOM     16  H   UNL     1       5.403  -1.359  -1.522  0.00  0.00    +0.155 HD
ENDROOT
BRANCH   1  20
ATOM     17  C   UNL     1       0.606  -0.607  -1.056  0.00  0.00    +0.124 A 
ATOM     18  C   UNL     1       1.173   0.162  -2.062  0.00  0.00    +0.046 A 
ATOM     19  C   UNL     1       1.787  -0.451  -3.138  0.00  0.00    +0.011 A 
ATOM     20  C   UNL     1       1.837  -1.830  -3.215  0.00  0.00    +0.004 A 
ATOM     21  C   UNL     1       1.272  -2.603  -2.211  0.00  0.00    +0.127 A 
ATOM     22  C   UNL     1       0.660  -1.990  -1.127  0.00  0.00    +0.091 A 
BRANCH  17  24
ATOM     23  C   UNL     1      -0.017   1.425   0.010  0.00  0.00    +0.277 C 
ATOM     24  O   UNL     1       0.002  -0.004   0.002  0.00  0.00    -0.495 OA
ENDBRANCH  17  24
BRANCH  21  25
ATOM     25  O   UNL     1       1.322  -3.959  -2.286  0.00  0.00    -0.495 OA
ATOM     26  C   UNL     1       0.719  -4.691  -1.217  0.00  0.00    +0.277 C 
ENDBRANCH  21  25
ENDBRANCH   1  20
BRANCH  14  27
ATOM     27  N   UNL     1       1.563  -0.791  -7.600  0.00  0.00    -0.328 N 
ATOM     28  H   UNL     1       1.884  -0.093  -8.192  0.00  0.00    +0.145 HD
ATOM     29  H   UNL     1       0.742  -1.263  -7.808  0.00  0.00    +0.145 HD
ENDBRANCH  14  27
BRANCH  15  30
ATOM     30  C   UNL     1       0.602  -2.762  -6.024  0.00  0.00    +0.100 C 
ATOM     31  N   UNL     1      -0.357  -3.298  -6.314  0.00  0.00    -0.191 NA
ENDBRANCH  15  30
TORSDOF 5
