REMARK  Name = ZINC06763493
REMARK  5 active torsions:
REMARK  status: ('A' for Active; 'I' for Inactive)
REMARK    1  A    between atoms: C_1  and  C_2
REMARK    2  A    between atoms: C_2  and  C_25
REMARK    3  A    between atoms: C_10  and  S_12
REMARK    4  A    between atoms: S_12  and  C_13
REMARK    5  A    between atoms: C_13  and  C_14
REMARK                            x       y       z     vdW  Elec       q    Type
REMARK                         _______ _______ _______ _____ _____    ______ ____
ROOT
ATOM      1  C   UNL     1      -0.019   1.526   0.010  0.00  0.00    +0.011 C 
ATOM      2  C   UNL     1       0.002  -0.004   0.002  0.00  0.00    -0.023 C 
ATOM      3  C   UNL     1      -1.431  -0.539   0.041  0.00  0.00    +0.058 C 
ATOM      4  C   UNL     1      -1.407  -2.049   0.073  0.00  0.00    +0.019 C 
ATOM      5  C   UNL     1      -0.397  -2.714   0.673  0.00  0.00    +0.033 C 
ATOM      6  C   UNL     1      -0.354  -4.225   0.736  0.00  0.00    +0.187 C 
ATOM      7  N   UNL     1      -1.319  -4.790  -0.199  0.00  0.00    -0.227 N 
ATOM      8  C   UNL     1      -2.302  -4.064  -0.786  0.00  0.00    +0.219 A 
ATOM      9  N   UNL     1      -2.992  -4.861  -1.555  0.00  0.00    -0.187 NA
ATOM     10  C   UNL     1      -2.481  -6.099  -1.490  0.00  0.00    +0.211 A 
ATOM     11  N   UNL     1      -1.453  -6.096  -0.669  0.00  0.00    -0.141 NA
ATOM     12  N   UNL     1      -2.447  -2.709  -0.537  0.00  0.00    -0.287 N 
ATOM     13  C   UNL     1       0.672  -2.019   1.267  0.00  0.00    +0.163 C 
ATOM     14  O   UNL     1       1.558  -2.646   1.813  0.00  0.00    -0.292 OA
ATOM     15  C   UNL     1       0.742  -0.517   1.242  0.00  0.00    +0.086 C 
ATOM     16  C   UNL     1       0.705  -0.503  -1.262  0.00  0.00    +0.011 C 
ATOM     17  H   UNL     1      -3.259  -2.240  -0.785  0.00  0.00    +0.155 HD
ENDROOT
BRANCH  10  18
ATOM     18  S   UNL     1      -3.089  -7.504  -2.363  0.00  0.00    -0.080 S 
BRANCH  18  19
ATOM     19  C   UNL     1      -4.497  -6.859  -3.307  0.00  0.00    +0.114 C 
BRANCH  19  20
ATOM     20  C   UNL     1      -5.117  -7.974  -4.109  0.00  0.00    -0.019 A 
ATOM     21  C   UNL     1      -4.668  -8.236  -5.390  0.00  0.00    +0.006 A 
ATOM     22  C   UNL     1      -5.237  -9.259  -6.126  0.00  0.00    +0.000 A 
ATOM     23  C   UNL     1      -6.254 -10.020  -5.582  0.00  0.00    +0.001 A 
ATOM     24  C   UNL     1      -6.704  -9.759  -4.301  0.00  0.00    +0.020 A 
ATOM     25  C   UNL     1      -6.131  -8.739  -3.562  0.00  0.00    +0.045 A 
ATOM     26 CL   UNL     1      -6.691  -8.414  -1.951  0.00  0.00    -0.083 Cl
ENDBRANCH  19  20
ENDBRANCH  18  19
ENDBRANCH  10  18
TORSDOF 3
