REMARK  Name = ZINC03237471
REMARK  9 active torsions:
REMARK  status: ('A' for Active; 'I' for Inactive)
REMARK    1  A    between atoms: C_1  and  C_2
REMARK    2  A    between atoms: C_2  and  O_3
REMARK    3  A    between atoms: O_3  and  C_4
REMARK    4  A    between atoms: C_4  and  C_6
REMARK    5  A    between atoms: C_10  and  N_11
REMARK    6  A    between atoms: C_12  and  C_14
REMARK    7  A    between atoms: C_14  and  N_49
REMARK    8  A    between atoms: C_15  and  C_16
REMARK    9  A    between atoms: C_15  and  N_49
REMARK                            x       y       z     vdW  Elec       q    Type
REMARK                         _______ _______ _______ _____ _____    ______ ____
ROOT
ATOM      1  N   UNL     1       9.666  -1.792   0.935  0.00  0.00    -0.281 N 
ATOM      2  C   UNL     1       8.356  -1.619   0.669  0.00  0.00    +0.201 C 
ATOM      3  O   UNL     1       7.934  -1.810  -0.452  0.00  0.00    -0.278 OA
ATOM      4  H   UNL     1      10.003  -1.639   1.832  0.00  0.00    +0.155 HD
ENDROOT
BRANCH   1   9
ATOM      5  C   UNL     1      11.897  -2.409   0.003  0.00  0.00    +0.091 A 
ATOM      6  C   UNL     1      12.583  -2.829  -1.219  0.00  0.00    -0.021 A 
ATOM      7  C   UNL     1      11.797  -2.946  -2.304  0.00  0.00    -0.004 A 
ATOM      8  S   UNL     1      10.171  -2.517  -1.733  0.00  0.00    -0.077 S 
ATOM      9  C   UNL     1      10.531  -2.187  -0.073  0.00  0.00    +0.086 A 
ATOM     10  C   UNL     1      12.573  -3.377  -3.519  0.00  0.00    +0.043 C 
ATOM     11  C   UNL     1      13.897  -3.939  -2.955  0.00  0.00    +0.010 C 
ATOM     12  C   UNL     1      14.017  -3.180  -1.619  0.00  0.00    +0.037 C 
BRANCH   5  13
ATOM     13  C   UNL     1      12.626  -2.234   1.261  0.00  0.00    +0.342 C 
ATOM     14  O   UNL     1      12.752  -3.170   2.027  0.00  0.00    -0.245 OA
BRANCH  13  15
ATOM     15  O   UNL     1      13.158  -1.033   1.571  0.00  0.00    -0.461 OA
BRANCH  15  17
ATOM     16  C   UNL     1      14.395   0.492   3.010  0.00  0.00    +0.048 C 
ATOM     17  C   UNL     1      13.867  -0.933   2.834  0.00  0.00    +0.229 C 
ENDBRANCH  15  17
ENDBRANCH  13  15
ENDBRANCH   5  13
ENDBRANCH   1   9
BRANCH   2  18
ATOM     18  C   UNL     1       7.414  -1.190   1.764  0.00  0.00    +0.016 C 
BRANCH  18  19
ATOM     19  N   UNL     1       6.051  -1.076   1.213  0.00  0.00    +0.387 N 
ATOM     20  H   UNL     1       5.759  -1.987   0.840  0.00  0.00    -0.085 HD
ATOM     21  H   UNL     1       6.048  -0.380   0.458  0.00  0.00    -0.085 HD
BRANCH  19  22
ATOM     22  C   UNL     1       5.107  -0.655   2.265  0.00  0.00    -0.046 C 
BRANCH  22  23
ATOM     23  C   UNL     1       3.725  -0.548   1.674  0.00  0.00    -0.061 A 
ATOM     24  C   UNL     1       2.885  -1.646   1.677  0.00  0.00    +0.005 A 
ATOM     25  C   UNL     1       1.617  -1.553   1.135  0.00  0.00    +0.050 A 
ATOM     26  C   UNL     1       1.183  -0.356   0.589  0.00  0.00    +0.166 A 
ATOM     27  C   UNL     1       2.028   0.751   0.586  0.00  0.00    +0.166 A 
ATOM     28  C   UNL     1       3.298   0.650   1.131  0.00  0.00    +0.051 A 
ATOM     29  O   UNL     1       1.376   1.797  -0.001  0.00  0.00    -0.453 OA
ATOM     30  C   UNL     1      -0.018   1.436   0.010  0.00  0.00    +0.466 C 
ATOM     31  O   UNL     1       0.002  -0.004   0.002  0.00  0.00    -0.453 OA
ENDBRANCH  22  23
ENDBRANCH  19  22
ENDBRANCH  18  19
ENDBRANCH   2  18
TORSDOF 8
