REMARK  Name = ZINC11694014
REMARK  4 active torsions:
REMARK  status: ('A' for Active; 'I' for Inactive)
REMARK    1  A    between atoms: C_6  and  C_7
REMARK    2  A    between atoms: C_7  and  N_49
REMARK    3  A    between atoms: N_15  and  C_19
REMARK    4  A    between atoms: C_19  and  C_20
REMARK                            x       y       z     vdW  Elec       q    Type
REMARK                         _______ _______ _______ _____ _____    ______ ____
ROOT
ATOM      1  C   UNL     1      -0.013   1.086   0.008  0.00  0.00    -0.076 C 
ATOM      2  C   UNL     1      -0.754   1.593  -1.233  0.00  0.00    +0.017 C 
ATOM      3  C   UNL     1      -2.196   1.099  -1.196  0.00  0.00    +0.109 C 
ATOM      4  C   UNL     1      -2.878   1.537   0.096  0.00  0.00    +0.017 C 
ATOM      5  C   UNL     1      -2.068   1.031   1.293  0.00  0.00    -0.076 C 
ATOM      6  C   UNL     1      -2.960   1.606  -2.397  0.00  0.00    +0.247 C 
ATOM      7  O   UNL     1      -3.176   2.761  -2.694  0.00  0.00    -0.273 OA
ATOM      8  N   UNL     1      -3.350   0.502  -3.068  0.00  0.00    -0.220 N 
ATOM      9  C   UNL     1      -2.940  -0.616  -2.458  0.00  0.00    +0.310 C 
ATOM     10  O   UNL     1      -3.170  -1.735  -2.873  0.00  0.00    -0.252 OA
ATOM     11  N   UNL     1      -2.243  -0.362  -1.333  0.00  0.00    -0.285 N 
ATOM     12  H   UNL     1      -1.850  -1.015  -0.734  0.00  0.00    +0.151 HD
ATOM     13  N   UNL     1      -0.701   1.590   1.216  0.00  0.00    +0.382 N 
ATOM     14  H   UNL     1      -0.763   2.614   1.160  0.00  0.00    -0.081 HD
ENDROOT
BRANCH  13  15
ATOM     15  C   UNL     1       0.064   1.220   2.424  0.00  0.00    -0.043 C 
BRANCH  15  21
ATOM     16  C   UNL     1      -0.086   3.184   3.968  0.00  0.00    +0.003 A 
ATOM     17  C   UNL     1      -0.639   3.835   5.055  0.00  0.00    +0.020 A 
ATOM     18  C   UNL     1      -1.635   3.222   5.793  0.00  0.00    +0.041 A 
ATOM     19  C   UNL     1      -2.081   1.961   5.441  0.00  0.00    +0.020 A 
ATOM     20  C   UNL     1      -1.531   1.314   4.351  0.00  0.00    +0.003 A 
ATOM     21  C   UNL     1      -0.536   1.927   3.613  0.00  0.00    -0.064 A 
ATOM     22 CL   UNL     1      -2.326   4.036   7.162  0.00  0.00    -0.084 Cl
ENDBRANCH  15  21
ENDBRANCH  13  15
BRANCH   8  23
ATOM     23  C   UNL     1      -4.128   0.526  -4.309  0.00  0.00    +0.153 C 
BRANCH  23  24
ATOM     24  C   UNL     1      -3.190   0.565  -5.488  0.00  0.00    -0.029 A 
ATOM     25  C   UNL     1      -2.777   1.781  -6.002  0.00  0.00    +0.006 A 
ATOM     26  C   UNL     1      -1.912   1.818  -7.080  0.00  0.00    +0.020 A 
ATOM     27  C   UNL     1      -1.468   0.638  -7.651  0.00  0.00    +0.041 A 
ATOM     28  C   UNL     1      -1.887  -0.578  -7.140  0.00  0.00    +0.020 A 
ATOM     29  C   UNL     1      -2.747  -0.613  -6.059  0.00  0.00    +0.006 A 
ATOM     30 CL   UNL     1      -0.388   0.684  -9.009  0.00  0.00    -0.084 Cl
ENDBRANCH  23  24
ENDBRANCH   8  23
TORSDOF 4
