REMARK  Name = ZINC09108782
REMARK  5 active torsions:
REMARK  status: ('A' for Active; 'I' for Inactive)
REMARK    1  A    between atoms: C_1  and  C_2
REMARK    2  A    between atoms: N_23  and  C_26
REMARK    3  A    between atoms: C_28  and  N_34
REMARK    4  A    between atoms: C_31  and  O_32
REMARK    5  A    between atoms: O_32  and  C_33
REMARK                            x       y       z     vdW  Elec       q    Type
REMARK                         _______ _______ _______ _____ _____    ______ ____
ROOT
ATOM      1  C   UNL     1       1.212  -2.191  -0.020  0.00  0.00    +0.046 C 
ATOM      2  C   UNL     1       1.202  -0.684  -0.012  0.00  0.00    -0.028 A 
ATOM      3  C   UNL     1       0.002  -0.004   0.002  0.00  0.00    +0.025 A 
ATOM      4  C   UNL     1      -0.017   1.379   0.010  0.00  0.00    +0.042 A 
ATOM      5  C   UNL     1       1.176   2.084   0.002  0.00  0.00    +0.024 A 
ATOM      6  C   UNL     1       2.375   1.409  -0.012  0.00  0.00    -0.026 A 
ATOM      7  C   UNL     1       2.405   0.017  -0.018  0.00  0.00    +0.039 A 
ATOM      8  N   UNL     1       3.727  -0.437  -0.028  0.00  0.00    -0.286 N 
ATOM      9  C   UNL     1       4.612   0.578  -0.028  0.00  0.00    +0.212 C 
ATOM     10  O   UNL     1       5.821   0.484  -0.032  0.00  0.00    -0.277 OA
ATOM     11  C   UNL     1       3.811   1.852  -0.022  0.00  0.00    +0.053 C 
ATOM     12  C   UNL     1       4.122   2.711  -1.253  0.00  0.00    +0.089 C 
ATOM     13  C   UNL     1       5.144   3.755  -0.751  0.00  0.00    +0.074 C 
ATOM     14  C   UNL     1       5.339   3.457   0.747  0.00  0.00    -0.054 C 
ATOM     15  C   UNL     1       3.073   3.706   1.343  0.00  0.00    -0.076 C 
ATOM     16  C   UNL     1       3.793   4.918   1.968  0.00  0.00    -0.020 C 
ATOM     17  C   UNL     1       5.271   4.762   1.560  0.00  0.00    -0.016 C 
ATOM     18  C   UNL     1       6.416   3.423  -1.498  0.00  0.00    +0.229 C 
ATOM     19  O   UNL     1       7.464   4.024  -1.399  0.00  0.00    -0.275 OA
ATOM     20  N   UNL     1       6.205   2.361  -2.285  0.00  0.00    -0.206 N 
ATOM     21  C   UNL     1       4.965   1.864  -2.227  0.00  0.00    +0.230 C 
ATOM     22  O   UNL     1       4.562   0.909  -2.856  0.00  0.00    -0.275 OA
ATOM     23 CL   UNL     1      -1.530   2.229   0.021  0.00  0.00    -0.084 Cl
ATOM     24  H   UNL     1       3.977  -1.374  -0.034  0.00  0.00    +0.155 HD
ATOM     25  N   UNL     1       4.147   2.726   1.112  0.00  0.00    +0.395 N 
ATOM     26  H   UNL     1       4.305   2.166   1.959  0.00  0.00    -0.079 HD
ENDROOT
BRANCH  20  27
ATOM     27  C   UNL     1       7.205   1.814  -3.105  0.00  0.00    +0.088 A 
ATOM     28  C   UNL     1       8.034   0.815  -2.618  0.00  0.00    +0.060 A 
ATOM     29  C   UNL     1       9.016   0.277  -3.427  0.00  0.00    +0.128 A 
ATOM     30  C   UNL     1       9.176   0.733  -4.723  0.00  0.00    +0.036 A 
ATOM     31  C   UNL     1       8.353   1.728  -5.215  0.00  0.00    +0.050 A 
ATOM     32  C   UNL     1       7.362   2.269  -4.412  0.00  0.00    +0.142 A 
BRANCH  29  33
ATOM     33  N   UNL     1       9.901  -0.789  -2.905  0.00  0.00    +0.056 N 
ATOM     34  O   UNL     1       9.762  -1.192  -1.764  0.00  0.00    -0.126 OA
ATOM     35  O   UNL     1      10.767  -1.264  -3.617  0.00  0.00    -0.126 OA
ENDBRANCH  29  33
BRANCH  32  36
ATOM     36  O   UNL     1       6.549   3.245  -4.896  0.00  0.00    -0.493 OA
ATOM     37  C   UNL     1       6.768   3.662  -6.246  0.00  0.00    +0.277 C 
ENDBRANCH  32  36
ENDBRANCH  20  27
TORSDOF 3
