REMARK  Name = ZINC63720382
REMARK  9 active torsions:
REMARK  status: ('A' for Active; 'I' for Inactive)
REMARK    1  A    between atoms: C_1  and  O_2
REMARK    2  A    between atoms: O_2  and  C_3
REMARK    3  A    between atoms: C_8  and  S_13
REMARK    4  A    between atoms: S_13  and  C_14
REMARK    5  A    between atoms: C_16  and  N_26
REMARK    6  A    between atoms: C_17  and  N_23
REMARK    7  A    between atoms: N_26  and  C_27
REMARK    8  A    between atoms: C_27  and  C_28
REMARK    9  A    between atoms: C_28  and  O_29
REMARK                            x       y       z     vdW  Elec       q    Type
REMARK                         _______ _______ _______ _____ _____    ______ ____
ROOT
ATOM      1  C   UNL     1       4.755  -3.421   1.917  0.00  0.00    +0.044 A 
ATOM      2  C   UNL     1       4.027  -2.412   1.362  0.00  0.00    +0.042 A 
ATOM      3  C   UNL     1       4.461  -1.740   0.210  0.00  0.00    +0.061 A 
ATOM      4  C   UNL     1       5.627  -2.051  -0.421  0.00  0.00    +0.178 A 
ATOM      5  C   UNL     1       6.455  -3.084   0.076  0.00  0.00    +0.167 A 
ATOM      6  C   UNL     1       6.028  -3.807   1.291  0.00  0.00    +0.150 A 
ATOM      7  N   UNL     1       6.936  -4.705   1.573  0.00  0.00    -0.048 NA
ATOM      8  O   UNL     1       7.962  -4.612   0.599  0.00  0.00    -0.241 OA
ATOM      9  N   UNL     1       7.604  -3.589  -0.314  0.00  0.00    -0.046 NA
ENDROOT
BRANCH   4  10
ATOM     10  N   UNL     1       6.032  -1.299  -1.643  0.00  0.00    +0.061 N 
ATOM     11  O   UNL     1       6.704  -0.299  -1.542  0.00  0.00    -0.126 OA
ATOM     12  O   UNL     1       5.688  -1.688  -2.735  0.00  0.00    -0.126 OA
ENDBRANCH   4  10
BRANCH   3  13
ATOM     13  N   UNL     1       3.670  -0.718  -0.308  0.00  0.00    -0.340 N 
ATOM     14  H   UNL     1       3.915  -0.291  -1.144  0.00  0.00    +0.146 HD
BRANCH  13  15
ATOM     15  C   UNL     1       2.468  -0.286   0.410  0.00  0.00    +0.129 C 
BRANCH  15  16
ATOM     16  C   UNL     1       1.724   0.759  -0.423  0.00  0.00    +0.174 C 
BRANCH  16  17
ATOM     17  O   UNL     1       1.268   0.162  -1.639  0.00  0.00    -0.393 OA
ATOM     18  H   UNL     1       0.786   0.768  -2.218  0.00  0.00    +0.209 HD
ENDBRANCH  16  17
ENDBRANCH  15  16
ENDBRANCH  13  15
ENDBRANCH   3  13
BRANCH   1  19
ATOM     19  S   UNL     1       4.182  -4.247   3.364  0.00  0.00    -0.077 S 
BRANCH  19  25
ATOM     20  C   UNL     1       4.388  -7.508  -1.462  0.00  0.00    +0.122 A 
ATOM     21  C   UNL     1       3.092  -6.890  -1.713  0.00  0.00    +0.048 A 
ATOM     22  C   UNL     1       2.413  -6.245  -0.747  0.00  0.00    +0.031 A 
ATOM     23  C   UNL     1       2.980  -6.152   0.607  0.00  0.00    +0.061 A 
ATOM     24  N   UNL     1       2.544  -5.599   1.702  0.00  0.00    -0.355 N 
ATOM     25  C   UNL     1       3.551  -5.831   2.745  0.00  0.00    +0.240 C 
ATOM     26  N   UNL     1       4.634  -6.594   2.114  0.00  0.00    -0.355 N 
ATOM     27  C   UNL     1       4.302  -6.783   0.865  0.00  0.00    +0.064 A 
ATOM     28  C   UNL     1       4.974  -7.470  -0.240  0.00  0.00    +0.073 A 
ATOM     29  H   UNL     1       1.707  -5.121   1.810  0.00  0.00    +0.162 HD
ATOM     30  H   UNL     1       5.447  -6.902   2.545  0.00  0.00    +0.162 HD
BRANCH  20  32
ATOM     31  C   UNL     1       4.425  -8.057  -3.773  0.00  0.00    +0.277 C 
ATOM     32  O   UNL     1       5.024  -8.143  -2.478  0.00  0.00    -0.495 OA
ENDBRANCH  20  32
ENDBRANCH  19  25
ENDBRANCH   1  19
TORSDOF 8
