REMARK  Name = ZINC43746689
REMARK  10 active torsions:
REMARK  status: ('A' for Active; 'I' for Inactive)
REMARK    1  A    between atoms: C_1  and  C_2
REMARK    2  A    between atoms: C_2  and  C_3
REMARK    3  A    between atoms: C_3  and  C_5
REMARK    4  A    between atoms: C_3  and  N_6
REMARK    5  A    between atoms: C_7  and  C_9
REMARK    6  A    between atoms: C_9  and  C_11
REMARK    7  A    between atoms: C_9  and  N_14
REMARK    8  A    between atoms: C_11  and  C_12
REMARK    9  A    between atoms: C_11  and  C_13
REMARK   10  A    between atoms: C_15  and  C_17
REMARK                            x       y       z     vdW  Elec       q    Type
REMARK                         _______ _______ _______ _____ _____    ______ ____
ROOT
ATOM      1  C   UNL     1       1.183   0.879  -8.349  0.00  0.00    +0.167 C 
ATOM      2  C   UNL     1       1.363  -0.576  -8.806  0.00  0.00    +0.069 C 
ATOM      3  C   UNL     1       0.177  -1.014  -9.628  0.00  0.00    -0.015 A 
ATOM      4  C   UNL     1      -0.199  -2.374  -9.972  0.00  0.00    +0.003 A 
ATOM      5  C   UNL     1       0.365  -3.615  -9.664  0.00  0.00    +0.010 A 
ATOM      6  C   UNL     1      -0.266  -4.725 -10.168  0.00  0.00    +0.001 A 
ATOM      7  C   UNL     1      -1.408  -4.632 -10.947  0.00  0.00    +0.002 A 
ATOM      8  C   UNL     1      -1.988  -3.417 -11.266  0.00  0.00    +0.026 A 
ATOM      9  C   UNL     1      -1.369  -2.272 -10.766  0.00  0.00    +0.047 A 
ATOM     10  N   UNL     1      -1.668  -0.946 -10.880  0.00  0.00    -0.356 N 
ATOM     11  H   UNL     1      -2.419  -0.583 -11.376  0.00  0.00    +0.166 HD
ATOM     12  C   UNL     1      -0.748  -0.204 -10.190  0.00  0.00    +0.046 A 
ATOM     13  C   UNL     1      -0.733   1.296 -10.028  0.00  0.00    +0.155 C 
ATOM     14  N   UNL     1       0.595   1.632  -9.461  0.00  0.00    -0.273 N 
ATOM     15  C   UNL     1       1.107   2.657 -10.155  0.00  0.00    +0.248 C 
ATOM     16  O   UNL     1       2.069   3.320  -9.819  0.00  0.00    -0.270 OA
ATOM     17  C   UNL     1       0.329   2.857 -11.382  0.00  0.00    +0.042 A 
ATOM     18  C   UNL     1      -0.830   2.016 -11.329  0.00  0.00    -0.009 A 
ATOM     19  C   UNL     1      -1.760   1.973 -12.343  0.00  0.00    +0.006 A 
ATOM     20  C   UNL     1      -1.547   2.808 -13.435  0.00  0.00    +0.000 A 
ATOM     21  C   UNL     1      -0.453   3.648 -13.506  0.00  0.00    +0.001 A 
ATOM     22  C   UNL     1       0.547   3.700 -12.474  0.00  0.00    +0.013 A 
ENDROOT
BRANCH   1  24
ATOM     23  N   UNL     1       0.599   0.287  -6.019  0.00  0.00    -0.302 N 
ATOM     24  C   UNL     1       0.264   0.928  -7.156  0.00  0.00    +0.235 C 
ATOM     25  O   UNL     1      -0.778   1.546  -7.219  0.00  0.00    -0.274 OA
ATOM     26  H   UNL     1       1.432  -0.207  -5.969  0.00  0.00    +0.150 HD
BRANCH  23  27
ATOM     27  C   UNL     1      -0.295   0.335  -4.860  0.00  0.00    +0.161 C 
BRANCH  27  29
ATOM     28  N   UNL     1       0.080   0.639  -2.434  0.00  0.00    -0.311 N 
ATOM     29  C   UNL     1       0.502   0.112  -3.601  0.00  0.00    +0.234 C 
ATOM     30  O   UNL     1       1.524  -0.541  -3.637  0.00  0.00    -0.274 OA
ATOM     31  H   UNL     1      -0.699   1.216  -2.416  0.00  0.00    +0.149 HD
BRANCH  28  32
ATOM     32  C   UNL     1       0.798   0.339  -1.193  0.00  0.00    +0.070 C 
ATOM     33  C   UNL     1       0.286  -0.982  -0.614  0.00  0.00    +0.028 C 
BRANCH  32  35
ATOM     34  C   UNL     1       1.187   2.759  -0.708  0.00  0.00    +0.005 C 
ATOM     35  C   UNL     1       0.564   1.464  -0.183  0.00  0.00    +0.018 C 
ENDBRANCH  32  35
ENDBRANCH  28  32
ENDBRANCH  27  29
BRANCH  27  36
ATOM     36  C   UNL     1      -1.359  -0.758  -4.990  0.00  0.00    +0.012 C 
ATOM     37  C   UNL     1      -2.321  -0.677  -3.803  0.00  0.00    +0.009 C 
ATOM     38  C   UNL     1      -2.137  -0.559  -6.292  0.00  0.00    +0.009 C 
ENDBRANCH  27  36
ENDBRANCH  23  27
ENDBRANCH   1  24
TORSDOF 6
