REMARK  Name = ZINC15969139
REMARK  4 active torsions:
REMARK  status: ('A' for Active; 'I' for Inactive)
REMARK    1  A    between atoms: C_1  and  C_2
REMARK    2  A    between atoms: N_20  and  C_23
REMARK    3  A    between atoms: C_28  and  C_29
REMARK    4  A    between atoms: N_31  and  C_32
REMARK                            x       y       z     vdW  Elec       q    Type
REMARK                         _______ _______ _______ _____ _____    ______ ____
ROOT
ATOM      1  C   UNL     1       3.293   2.418   1.124  0.00  0.00    +0.035 C 
ATOM      2  C   UNL     1       2.491   1.798  -0.022  0.00  0.00    +0.122 C 
ATOM      3  C   UNL     1       1.065   2.309   0.004  0.00  0.00    +0.041 A 
ATOM      4  C   UNL     1      -0.018   1.504   0.010  0.00  0.00    -0.015 A 
ATOM      5  C   UNL     1      -1.183   2.370   0.032  0.00  0.00    +0.003 A 
ATOM      6  C   UNL     1      -2.556   2.106   0.038  0.00  0.00    +0.010 A 
ATOM      7  C   UNL     1      -3.396   3.193   0.057  0.00  0.00    +0.001 A 
ATOM      8  C   UNL     1      -2.917   4.493   0.067  0.00  0.00    +0.002 A 
ATOM      9  C   UNL     1      -1.563   4.782   0.058  0.00  0.00    +0.026 A 
ATOM     10  C   UNL     1      -0.687   3.698   0.038  0.00  0.00    +0.047 A 
ATOM     11  N   UNL     1       0.676   3.622   0.024  0.00  0.00    -0.356 N 
ATOM     12  H   UNL     1       1.278   4.383   0.027  0.00  0.00    +0.166 HD
ATOM     13  C   UNL     1       0.002  -0.004   0.002  0.00  0.00    +0.069 C 
ATOM     14  C   UNL     1       1.369  -0.492  -0.492  0.00  0.00    +0.169 C 
ATOM     15  N   UNL     1       2.410   0.342   0.149  0.00  0.00    -0.265 N 
ATOM     16  C   UNL     1       3.179  -0.471   0.875  0.00  0.00    +0.317 C 
ATOM     17  O   UNL     1       4.161  -0.106   1.491  0.00  0.00    -0.252 OA
ATOM     18  N   UNL     1       2.742  -1.739   0.847  0.00  0.00    -0.192 N 
ATOM     19  C   UNL     1       1.649  -1.872   0.067  0.00  0.00    +0.248 C 
ATOM     20  O   UNL     1       1.021  -2.887  -0.142  0.00  0.00    -0.273 OA
ENDROOT
BRANCH  18  21
ATOM     21  C   UNL     1       3.345  -2.791   1.538  0.00  0.00    +0.058 A 
ATOM     22  C   UNL     1       2.947  -3.093   2.833  0.00  0.00    +0.025 A 
ATOM     23  C   UNL     1       3.541  -4.137   3.514  0.00  0.00    +0.002 A 
ATOM     24  C   UNL     1       4.543  -4.884   2.916  0.00  0.00    +0.001 A 
ATOM     25  C   UNL     1       4.954  -4.595   1.632  0.00  0.00    +0.015 A 
ATOM     26  C   UNL     1       4.359  -3.545   0.930  0.00  0.00    +0.059 A 
BRANCH  26  27
ATOM     27  C   UNL     1       4.794  -3.231  -0.444  0.00  0.00    +0.246 C 
ATOM     28  O   UNL     1       4.273  -2.316  -1.053  0.00  0.00    -0.270 OA
ATOM     29  N   UNL     1       5.769  -3.958  -1.026  0.00  0.00    -0.308 N 
ATOM     30  H   UNL     1       6.184  -4.688  -0.540  0.00  0.00    +0.149 HD
BRANCH  29  31
ATOM     31  C   UNL     1       6.201  -3.645  -2.390  0.00  0.00    +0.073 C 
ATOM     32  C   UNL     1       5.282  -4.350  -3.390  0.00  0.00    +0.022 C 
ATOM     33  C   UNL     1       5.465  -3.729  -4.776  0.00  0.00    +0.002 C 
ATOM     34  C   UNL     1       5.506  -2.205  -4.652  0.00  0.00    +0.000 C 
ATOM     35  C   UNL     1       6.904  -1.701  -5.014  0.00  0.00    +0.000 C 
ATOM     36  C   UNL     1       7.863  -1.982  -3.855  0.00  0.00    +0.000 C 
ATOM     37  C   UNL     1       8.226  -3.468  -3.842  0.00  0.00    +0.002 C 
ATOM     38  C   UNL     1       7.639  -4.127  -2.592  0.00  0.00    +0.022 C 
ENDBRANCH  29  31
ENDBRANCH  26  27
ENDBRANCH  18  21
TORSDOF 3
