REMARK  Name = ZINC40815166
REMARK  9 active torsions:
REMARK  status: ('A' for Active; 'I' for Inactive)
REMARK    1  A    between atoms: C_1  and  C_2
REMARK    2  A    between atoms: C_2  and  C_3
REMARK    3  A    between atoms: C_6  and  N_9
REMARK    4  A    between atoms: C_10  and  C_12
REMARK    5  A    between atoms: C_13  and  C_33
REMARK    6  A    between atoms: N_21  and  N_22
REMARK    7  A    between atoms: N_22  and  S_23
REMARK    8  A    between atoms: S_23  and  C_26
REMARK    9  A    between atoms: C_29  and  C_32
REMARK                            x       y       z     vdW  Elec       q    Type
REMARK                         _______ _______ _______ _____ _____    ______ ____
ROOT
ATOM      1  C   UNL     1       2.815  -2.413   6.976  0.00  0.00    +0.193 A 
ATOM      2  C   UNL     1       2.265  -2.601   8.214  0.00  0.00    +0.009 A 
ATOM      3  C   UNL     1       3.321  -2.952   9.063  0.00  0.00    +0.042 A 
ATOM      4  C   UNL     1       4.471  -2.962   8.310  0.00  0.00    +0.115 A 
ATOM      5  O   UNL     1       4.146  -2.643   7.058  0.00  0.00    -0.454 OA
ATOM      6  C   UNL     1       5.825  -3.292   8.884  0.00  0.00    +0.075 C 
ATOM      7  C   UNL     1       5.797  -3.092  10.402  0.00  0.00    +0.014 C 
ATOM      8  C   UNL     1       4.633  -3.868  11.028  0.00  0.00    +0.058 C 
ATOM      9  C   UNL     1       3.332  -3.276  10.508  0.00  0.00    +0.071 C 
ATOM     10  N   UNL     1       2.306  -3.069  11.275  0.00  0.00    -0.170 NA
ATOM     11  C   UNL     1       0.812  -2.458   8.589  0.00  0.00    +0.048 C 
ENDROOT
BRANCH   1  13
ATOM     12  N   UNL     1       2.745  -1.883   4.597  0.00  0.00    -0.279 N 
ATOM     13  C   UNL     1       2.085  -2.032   5.763  0.00  0.00    +0.284 C 
ATOM     14  O   UNL     1       0.882  -1.851   5.808  0.00  0.00    -0.266 OA
ATOM     15  H   UNL     1       3.689  -2.101   4.543  0.00  0.00    +0.155 HD
BRANCH  12  19
ATOM     16  C   UNL     1       0.734  -0.487   1.228  0.00  0.00    -0.048 A 
ATOM     17  C   UNL     1       1.761  -1.403   1.088  0.00  0.00    +0.005 A 
ATOM     18  C   UNL     1       2.430  -1.867   2.203  0.00  0.00    +0.023 A 
ATOM     19  C   UNL     1       2.071  -1.414   3.466  0.00  0.00    +0.034 A 
ATOM     20  C   UNL     1       1.039  -0.494   3.603  0.00  0.00    +0.023 A 
ATOM     21  C   UNL     1       0.378  -0.029   2.483  0.00  0.00    +0.005 A 
BRANCH  16  23
ATOM     22  C   UNL     1       0.712   1.266  -0.526  0.00  0.00    +0.009 C 
ATOM     23  C   UNL     1       0.007   0.019   0.009  0.00  0.00    +0.032 C 
ENDBRANCH  16  23
ENDBRANCH  12  19
ENDBRANCH   1  13
BRANCH  10  24
ATOM     24  N   UNL     1       2.372  -3.395  12.636  0.00  0.00    -0.136 N 
ATOM     25  H   UNL     1       3.185  -3.775  13.005  0.00  0.00    +0.197 HD
BRANCH  24  26
ATOM     26  S   UNL     1       1.063  -3.131  13.615  0.00  0.00    +0.086 S 
ATOM     27  O   UNL     1       1.384  -3.689  14.882  0.00  0.00    -0.149 OA
ATOM     28  O   UNL     1       0.702  -1.766  13.452  0.00  0.00    -0.149 OA
BRANCH  26  29
ATOM     29  C   UNL     1      -0.271  -4.085  12.969  0.00  0.00    +0.110 A 
ATOM     30  C   UNL     1      -1.118  -3.537  12.024  0.00  0.00    +0.029 A 
ATOM     31  C   UNL     1      -2.165  -4.285  11.518  0.00  0.00    +0.005 A 
ATOM     32  C   UNL     1      -2.363  -5.581  11.955  0.00  0.00    -0.050 A 
ATOM     33  C   UNL     1      -1.515  -6.129  12.899  0.00  0.00    +0.005 A 
ATOM     34  C   UNL     1      -0.466  -5.383  13.403  0.00  0.00    +0.029 A 
ATOM     35  C   UNL     1      -3.504  -6.396  11.404  0.00  0.00    +0.044 C 
ENDBRANCH  26  29
ENDBRANCH  24  26
ENDBRANCH  10  24
TORSDOF 6
