REMARK  Name = ZINC22539546
REMARK  12 active torsions:
REMARK  status: ('A' for Active; 'I' for Inactive)
REMARK    1  A    between atoms: C_1  and  C_2
REMARK    2  A    between atoms: C_4  and  C_35
REMARK    3  A    between atoms: C_5  and  C_9
REMARK    4  A    between atoms: C_7  and  C_8
REMARK    5  A    between atoms: C_9  and  C_11
REMARK    6  A    between atoms: C_9  and  N_12
REMARK    7  A    between atoms: C_13  and  C_15
REMARK    8  A    between atoms: C_15  and  C_17
REMARK    9  A    between atoms: C_15  and  N_24
REMARK   10  A    between atoms: C_17  and  C_18
REMARK   11  A    between atoms: N_24  and  S_25
REMARK   12  A    between atoms: S_25  and  C_28
REMARK                            x       y       z     vdW  Elec       q    Type
REMARK                         _______ _______ _______ _____ _____    ______ ____
ROOT
ATOM      1  C   UNL     1       3.038  -3.985  -3.192  0.00  0.00    +0.166 C 
ENDROOT
BRANCH   1   3
ATOM      2  N   UNL     1       2.688  -2.209  -4.878  0.00  0.00    -0.307 N 
ATOM      3  C   UNL     1       2.600  -3.514  -4.556  0.00  0.00    +0.232 C 
ATOM      4  O   UNL     1       2.170  -4.311  -5.362  0.00  0.00    -0.274 OA
ATOM      5  H   UNL     1       3.078  -1.486  -4.147  0.00  0.00    +0.149 HD
BRANCH   2   6
ATOM      6  C   UNL     1       2.262  -1.752  -6.204  0.00  0.00    +0.100 C 
ATOM      7  C   UNL     1       1.859  -0.278  -6.130  0.00  0.00    +0.033 C 
BRANCH   6  12
ATOM      8  C   UNL     1       6.622  -2.371  -9.945  0.00  0.00    +0.044 C 
ATOM      9  C   UNL     1       5.485  -2.209  -8.970  0.00  0.00    -0.047 A 
ATOM     10  C   UNL     1       4.181  -2.168  -9.428  0.00  0.00    +0.007 A 
ATOM     11  C   UNL     1       3.138  -2.025  -8.533  0.00  0.00    -0.045 A 
ATOM     12  C   UNL     1       3.399  -1.913  -7.179  0.00  0.00    -0.024 A 
ATOM     13  C   UNL     1       4.702  -1.954  -6.721  0.00  0.00    +0.009 A 
ATOM     14  C   UNL     1       5.745  -2.103  -7.616  0.00  0.00    -0.047 A 
ATOM     15  C   UNL     1       7.167  -2.148  -7.117  0.00  0.00    +0.044 C 
ATOM     16  C   UNL     1       1.717  -1.986  -9.031  0.00  0.00    +0.044 C 
ENDBRANCH   6  12
ENDBRANCH   2   6
ENDBRANCH   1   3
BRANCH   1  17
ATOM     17  N   UNL     1       2.845  -5.433  -3.090  0.00  0.00    -0.178 NA
ATOM     18  H   UNL     1       2.839  -6.053  -3.999  0.00  0.00    +0.149 HD
BRANCH  17  19
ATOM     19  S   UNL     1       2.391  -6.108  -1.647  0.00  0.00    +0.059 S 
ATOM     20  O   UNL     1       3.260  -5.575  -0.658  0.00  0.00    -0.153 OA
ATOM     21  O   UNL     1       2.262  -7.505  -1.875  0.00  0.00    -0.153 OA
BRANCH  19  22
ATOM     22  C   UNL     1       0.777  -5.507  -1.276  0.00  0.00    +0.105 A 
ATOM     23  C   UNL     1      -0.336  -6.199  -1.716  0.00  0.00    +0.030 A 
ATOM     24  C   UNL     1      -1.603  -5.729  -1.425  0.00  0.00    +0.022 A 
ATOM     25  C   UNL     1      -1.756  -4.564  -0.693  0.00  0.00    +0.041 A 
ATOM     26  C   UNL     1      -0.642  -3.872  -0.253  0.00  0.00    +0.022 A 
ATOM     27  C   UNL     1       0.624  -4.344  -0.545  0.00  0.00    +0.030 A 
ATOM     28 CL   UNL     1      -3.347  -3.972  -0.327  0.00  0.00    -0.084 Cl
ENDBRANCH  19  22
ENDBRANCH  17  19
ENDBRANCH   1  17
BRANCH   1  29
ATOM     29  C   UNL     1       4.517  -3.652  -2.989  0.00  0.00    +0.065 C 
BRANCH  29  30
ATOM     30  C   UNL     1       4.924  -4.010  -1.582  0.00  0.00    -0.045 A 
ATOM     31  C   UNL     1       4.818  -3.072  -0.572  0.00  0.00    +0.004 A 
ATOM     32  C   UNL     1       5.186  -3.402   0.719  0.00  0.00    +0.000 A 
ATOM     33  C   UNL     1       5.670  -4.666   0.997  0.00  0.00    +0.000 A 
ATOM     34  C   UNL     1       5.782  -5.602  -0.014  0.00  0.00    +0.000 A 
ATOM     35  C   UNL     1       5.408  -5.274  -1.304  0.00  0.00    +0.004 A 
ENDBRANCH  29  30
ENDBRANCH   1  29
TORSDOF 8
