REMARK  Name = ZINC63731423
REMARK  8 active torsions:
REMARK  status: ('A' for Active; 'I' for Inactive)
REMARK    1  A    between atoms: C_1  and  C_2
REMARK    2  A    between atoms: N_6  and  C_26
REMARK    3  A    between atoms: C_7  and  S_13
REMARK    4  A    between atoms: S_13  and  C_14
REMARK    5  A    between atoms: C_14  and  C_15
REMARK    6  A    between atoms: N_17  and  C_18
REMARK    7  A    between atoms: C_18  and  C_19
REMARK    8  A    between atoms: C_19  and  C_20
REMARK                            x       y       z     vdW  Elec       q    Type
REMARK                         _______ _______ _______ _____ _____    ______ ____
ROOT
ATOM      1  C   UNL     1      -0.440   1.767   0.531  0.00  0.00    +0.068 C 
ATOM      2  C   UNL     1      -0.236   0.291   0.305  0.00  0.00    +0.075 C 
ATOM      3  C   UNL     1      -1.202  -0.623   0.172  0.00  0.00    +0.083 C 
ATOM      4  C   UNL     1      -2.679  -0.596   0.148  0.00  0.00    +0.133 C 
ATOM      5  N   UNL     1      -3.402   0.397   0.590  0.00  0.00    -0.285 NA
ATOM      6  N   UNL     1      -3.210  -1.773  -0.410  0.00  0.00    -0.253 N 
ATOM      7  C   UNL     1      -2.607  -3.053  -0.029  0.00  0.00    +0.260 C 
ATOM      8  N   UNL     1      -1.144  -3.042  -0.126  0.00  0.00    -0.230 NA
ATOM      9  C   UNL     1      -0.489  -1.933  -0.010  0.00  0.00    +0.185 C 
ATOM     10  N   UNL     1       0.828  -1.608   0.013  0.00  0.00    -0.129 NA
ATOM     11  N   UNL     1       0.954  -0.337   0.194  0.00  0.00    -0.152 NA
ATOM     12  H   UNL     1      -2.971   1.182   0.964  0.00  0.00    +0.188 HD
ENDROOT
BRANCH   6  13
ATOM     13  C   UNL     1      -4.284  -1.723  -1.304  0.00  0.00    +0.038 A 
ATOM     14  C   UNL     1      -4.759  -0.498  -1.752  0.00  0.00    +0.024 A 
ATOM     15  C   UNL     1      -5.820  -0.452  -2.636  0.00  0.00    +0.017 A 
ATOM     16  C   UNL     1      -6.409  -1.625  -3.074  0.00  0.00    +0.018 A 
ATOM     17  C   UNL     1      -5.937  -2.847  -2.628  0.00  0.00    +0.017 A 
ATOM     18  C   UNL     1      -4.874  -2.899  -1.749  0.00  0.00    +0.024 A 
ATOM     19 BR   UNL     1      -7.862  -1.557  -4.283  0.00  0.00    -0.050 Br
ENDBRANCH   6  13
BRANCH   7  20
ATOM     20  S   UNL     1      -3.075  -3.435   1.681  0.00  0.00    -0.106 S 
BRANCH  20  21
ATOM     21  C   UNL     1      -2.410  -2.045   2.639  0.00  0.00    +0.168 C 
BRANCH  21  22
ATOM     22  C   UNL     1      -2.733  -2.240   4.098  0.00  0.00    +0.223 C 
ATOM     23  O   UNL     1      -3.352  -3.220   4.457  0.00  0.00    -0.275 OA
ATOM     24  N   UNL     1      -2.336  -1.325   5.004  0.00  0.00    -0.314 N 
ATOM     25  H   UNL     1      -1.841  -0.542   4.718  0.00  0.00    +0.149 HD
BRANCH  24  26
ATOM     26  C   UNL     1      -2.650  -1.515   6.423  0.00  0.00    +0.108 C 
BRANCH  26  27
ATOM     27  C   UNL     1      -2.090  -0.343   7.230  0.00  0.00    +0.049 C 
BRANCH  27  28
ATOM     28  C   UNL     1      -2.413  -0.537   8.689  0.00  0.00    -0.072 C 
ATOM     29  C   UNL     1      -1.517  -1.091   9.441  0.00  0.00    -0.028 C 
ATOM     30  C   UNL     1      -1.698  -1.360  10.906  0.00  0.00    +0.027 C 
ATOM     31  C   UNL     1      -2.861  -0.530  11.455  0.00  0.00    +0.004 C 
ATOM     32  C   UNL     1      -4.071  -0.721  10.532  0.00  0.00    +0.005 C 
ATOM     33  C   UNL     1      -3.752  -0.071   9.181  0.00  0.00    +0.030 C 
ENDBRANCH  27  28
ENDBRANCH  26  27
ENDBRANCH  24  26
ENDBRANCH  21  22
ENDBRANCH  20  21
ENDBRANCH   7  20
TORSDOF 7
