REMARK  Name = ZINC27100175
REMARK  12 active torsions:
REMARK  status: ('A' for Active; 'I' for Inactive)
REMARK    1  A    between atoms: C_1  and  C_2
REMARK    2  A    between atoms: C_2  and  O_3
REMARK    3  A    between atoms: O_3  and  C_4
REMARK    4  A    between atoms: C_4  and  C_6
REMARK    5  A    between atoms: C_9  and  O_12
REMARK    6  A    between atoms: O_12  and  C_13
REMARK    7  A    between atoms: C_14  and  C_40
REMARK    8  A    between atoms: C_22  and  O_39
REMARK    9  A    between atoms: C_23  and  C_24
REMARK   10  A    between atoms: C_24  and  N_25
REMARK   11  A    between atoms: C_30  and  C_32
REMARK   12  A    between atoms: C_35  and  C_38
REMARK                            x       y       z     vdW  Elec       q    Type
REMARK                         _______ _______ _______ _____ _____    ______ ____
ROOT
ATOM      1  C   UNL     1       1.750   5.288   4.047  0.00  0.00    +0.213 A 
ATOM      2  C   UNL     1       1.261   5.346   2.792  0.00  0.00    +0.148 A 
ATOM      3  O   UNL     1       0.515   4.370   2.259  0.00  0.00    -0.456 OA
ATOM      4  C   UNL     1       0.194   3.252   2.939  0.00  0.00    +0.144 A 
ATOM      5  C   UNL     1       0.650   3.083   4.260  0.00  0.00    +0.068 A 
ATOM      6  C   UNL     1       1.472   4.150   4.856  0.00  0.00    +0.235 A 
ATOM      7  O   UNL     1       1.897   4.062   5.996  0.00  0.00    -0.283 OA
ATOM      8  C   UNL     1       0.325   1.930   4.974  0.00  0.00    +0.019 A 
ATOM      9  C   UNL     1      -0.439   0.962   4.387  0.00  0.00    +0.046 A 
ATOM     10  C   UNL     1      -0.900   1.123   3.082  0.00  0.00    +0.122 A 
ATOM     11  C   UNL     1      -0.581   2.259   2.357  0.00  0.00    +0.020 A 
ATOM     12  C   UNL     1       1.569   6.560   1.953  0.00  0.00    +0.090 C 
ENDROOT
BRANCH  10  13
ATOM     13  O   UNL     1      -1.663   0.154   2.514  0.00  0.00    -0.506 OA
ATOM     14  H   UNL     1      -2.029   0.276   1.484  0.00  0.00    +0.292 HD
ENDBRANCH  10  13
BRANCH   1  15
ATOM     15  O   UNL     1       2.503   6.310   4.537  0.00  0.00    -0.449 OA
BRANCH  15  19
ATOM     16  C   UNL     1       0.560   9.388   6.483  0.00  0.00    +0.059 A 
ATOM     17  C   UNL     1       1.951   9.415   6.343  0.00  0.00    +0.018 A 
ATOM     18  C   UNL     1       2.595   8.386   5.693  0.00  0.00    +0.047 A 
ATOM     19  C   UNL     1       1.864   7.322   5.177  0.00  0.00    +0.129 A 
ATOM     20  C   UNL     1       0.480   7.294   5.309  0.00  0.00    +0.047 A 
ATOM     21  C   UNL     1      -0.171   8.316   5.962  0.00  0.00    +0.018 A 
BRANCH  16  22
ATOM     22  C   UNL     1      -0.134  10.488   7.179  0.00  0.00    +0.339 C 
ATOM     23  O   UNL     1       0.503  11.418   7.631  0.00  0.00    -0.245 OA
BRANCH  22  24
ATOM     24  O   UNL     1      -1.475  10.460   7.313  0.00  0.00    -0.461 OA
BRANCH  24  26
ATOM     25  C   UNL     1      -3.606  11.370   8.062  0.00  0.00    +0.048 C 
ATOM     26  C   UNL     1      -2.091  11.576   8.009  0.00  0.00    +0.229 C 
ENDBRANCH  24  26
ENDBRANCH  22  24
ENDBRANCH  16  22
ENDBRANCH  15  19
ENDBRANCH   1  15
BRANCH  11  27
ATOM     27  C   UNL     1      -1.079   2.419   0.944  0.00  0.00    -0.035 C 
BRANCH  27  28
ATOM     28  N   UNL     1      -0.173   1.721   0.023  0.00  0.00    +0.387 N 
ATOM     29  C   UNL     1       1.184   2.279   0.096  0.00  0.00    -0.078 C 
ATOM     30  C   UNL     1       2.130   1.438  -0.764  0.00  0.00    -0.019 C 
ATOM     31  C   UNL     1       1.633   1.441  -2.213  0.00  0.00    -0.003 C 
ATOM     32  C   UNL     1       0.201   0.901  -2.255  0.00  0.00    -0.011 C 
ATOM     33  C   UNL     1      -0.689   1.758  -1.351  0.00  0.00    -0.037 C 
ATOM     34  H   UNL     1      -0.119   0.667   0.333  0.00  0.00    -0.080 HD
BRANCH  33  35
ATOM     35  C   UNL     1      -2.095   1.217  -1.374  0.00  0.00    -0.061 A 
ATOM     36  C   UNL     1      -2.390   0.030  -0.731  0.00  0.00    +0.002 A 
ATOM     37  C   UNL     1      -3.681  -0.464  -0.748  0.00  0.00    +0.003 A 
ATOM     38  C   UNL     1      -4.676   0.226  -1.416  0.00  0.00    -0.050 A 
ATOM     39  C   UNL     1      -4.380   1.411  -2.064  0.00  0.00    +0.003 A 
ATOM     40  C   UNL     1      -3.090   1.907  -2.043  0.00  0.00    +0.002 A 
ATOM     41  C   UNL     1      -6.083  -0.314  -1.438  0.00  0.00    +0.044 C 
ENDBRANCH  33  35
ENDBRANCH  27  28
ENDBRANCH  11  27
TORSDOF 9
