REMARK  Name = ZINC36645266
REMARK  8 active torsions:
REMARK  status: ('A' for Active; 'I' for Inactive)
REMARK    1  A    between atoms: C_1  and  C_2
REMARK    2  A    between atoms: C_4  and  C_14
REMARK    3  A    between atoms: N_16  and  C_17
REMARK    4  A    between atoms: C_17  and  C_18
REMARK    5  A    between atoms: C_18  and  C_19
REMARK    6  A    between atoms: C_19  and  N_20
REMARK    7  A    between atoms: N_20  and  C_21
REMARK    8  A    between atoms: N_20  and  C_22
REMARK                            x       y       z     vdW  Elec       q    Type
REMARK                         _______ _______ _______ _____ _____    ______ ____
ROOT
ATOM      1  C   UNL     1      -2.056  -0.278  -1.085  0.00  0.00    +0.266 C 
ATOM      2  O   UNL     1      -2.491  -1.129  -1.831  0.00  0.00    -0.271 OA
ATOM      3  N   UNL     1      -2.076   1.018  -1.456  0.00  0.00    -0.247 N 
ATOM      4  C   UNL     1      -2.668   1.386  -2.654  0.00  0.00    +0.168 A 
ATOM      5  N   UNL     1      -2.780   2.582  -3.183  0.00  0.00    -0.223 NA
ATOM      6  C   UNL     1      -3.389   2.796  -4.370  0.00  0.00    +0.099 A 
ATOM      7  C   UNL     1      -3.901   1.646  -5.012  0.00  0.00    +0.042 A 
ATOM      8  S   UNL     1      -3.467   0.353  -3.874  0.00  0.00    -0.052 S 
ATOM      9  C   UNL     1      -4.545   1.698  -6.223  0.00  0.00    +0.017 A 
ATOM     10  C   UNL     1      -4.710   2.916  -6.857  0.00  0.00    +0.003 A 
ATOM     11  C   UNL     1      -4.221   4.067  -6.256  0.00  0.00    +0.022 A 
ATOM     12  C   UNL     1      -3.575   4.024  -5.047  0.00  0.00    +0.067 A 
ATOM     13 CL   UNL     1      -2.981   5.494  -4.339  0.00  0.00    -0.081 Cl
ENDROOT
BRANCH   1  16
ATOM     14  C   UNL     1      -3.770  -1.345   1.052  0.00  0.00    +0.056 C 
ATOM     15  C   UNL     1      -2.556  -0.462   1.345  0.00  0.00    +0.220 C 
ATOM     16  C   UNL     1      -1.492  -0.668   0.257  0.00  0.00    +0.299 C 
ATOM     17  O   UNL     1      -0.367   0.160   0.569  0.00  0.00    -0.472 OA
ATOM     18  C   UNL     1       0.071   0.139   1.857  0.00  0.00    +0.163 A 
ATOM     19  C   UNL     1       1.341   0.612   2.153  0.00  0.00    +0.049 A 
ATOM     20  C   UNL     1       1.798   0.599   3.457  0.00  0.00    +0.004 A 
ATOM     21  C   UNL     1       0.991   0.116   4.470  0.00  0.00    +0.004 A 
ATOM     22  C   UNL     1      -0.275  -0.359   4.182  0.00  0.00    +0.049 A 
ATOM     23  C   UNL     1      -0.739  -0.351   2.875  0.00  0.00    +0.163 A 
ATOM     24  O   UNL     1      -1.985  -0.828   2.606  0.00  0.00    -0.481 OA
ENDBRANCH   1  16
BRANCH   3  25
ATOM     25  C   UNL     1      -1.472   2.037  -0.594  0.00  0.00    +0.114 C 
BRANCH  25  26
ATOM     26  C   UNL     1      -0.028   2.287  -1.035  0.00  0.00    +0.001 C 
BRANCH  26  27
ATOM     27  C   UNL     1       0.648   3.243  -0.050  0.00  0.00    -0.078 C 
BRANCH  27  28
ATOM     28  N   UNL     1       2.025   3.506  -0.490  0.00  0.00    +0.376 N 
ATOM     29  C   UNL     1       2.001   4.222  -1.772  0.00  0.00    -0.097 C 
ATOM     30  C   UNL     1       2.712   4.326   0.517  0.00  0.00    -0.097 C 
ATOM     31  H   UNL     1       2.515   2.631  -0.602  0.00  0.00    -0.083 HD
ENDBRANCH  27  28
ENDBRANCH  26  27
ENDBRANCH  25  26
ENDBRANCH   3  25
TORSDOF 5
