REMARK  Name = ZINC05486337
REMARK  6 active torsions:
REMARK  status: ('A' for Active; 'I' for Inactive)
REMARK    1  A    between atoms: C_1  and  C_2
REMARK    2  A    between atoms: C_7  and  C_8
REMARK    3  A    between atoms: C_15  and  O_25
REMARK    4  A    between atoms: C_16  and  O_23
REMARK    5  A    between atoms: O_23  and  C_24
REMARK    6  A    between atoms: O_25  and  C_26
REMARK                            x       y       z     vdW  Elec       q    Type
REMARK                         _______ _______ _______ _____ _____    ______ ____
ROOT
ATOM      1  C   UNL     1       5.752   8.366  -4.262  0.00  0.00    +0.044 C 
ATOM      2  C   UNL     1       4.922   7.568  -3.289  0.00  0.00    -0.046 A 
ATOM      3  C   UNL     1       5.375   6.345  -2.841  0.00  0.00    +0.028 A 
ATOM      4  C   UNL     1       4.609   5.590  -1.948  0.00  0.00    +0.053 A 
ATOM      5  C   UNL     1       3.353   6.041  -1.588  0.00  0.00    +0.085 A 
ATOM      6  C   UNL     1       2.923   7.312  -2.001  0.00  0.00    +0.033 A 
ATOM      7  C   UNL     1       3.708   8.064  -2.849  0.00  0.00    -0.045 A 
ATOM      8  C   UNL     1       3.243   9.426  -3.296  0.00  0.00    +0.044 C 
ATOM      9  N   UNL     1       2.455   5.246  -0.974  0.00  0.00    -0.251 NA
ATOM     10  C   UNL     1       2.463   4.181  -0.311  0.00  0.00    +0.066 C 
ATOM     11  C   UNL     1       1.092   3.601   0.045  0.00  0.00    +0.093 C 
ATOM     12  C   UNL     1       1.168   2.097   0.002  0.00  0.00    +0.004 A 
ATOM     13  C   UNL     1      -0.017   1.376   0.010  0.00  0.00    +0.011 A 
ATOM     14  C   UNL     1       0.002  -0.004   0.002  0.00  0.00    +0.050 A 
ATOM     15  C   UNL     1       1.214  -0.678  -0.012  0.00  0.00    +0.165 A 
ATOM     16  C   UNL     1       2.401   0.039  -0.026  0.00  0.00    +0.204 A 
ATOM     17  C   UNL     1       2.381   1.435  -0.027  0.00  0.00    +0.170 A 
ATOM     18  O   UNL     1       3.566   2.086  -0.084  0.00  0.00    -0.477 OA
ATOM     19  C   UNL     1       3.638   3.477   0.260  0.00  0.00    +0.235 C 
ATOM     20  C   UNL     1       5.017   3.967  -0.101  0.00  0.00    +0.152 C 
ATOM     21  N   UNL     1       5.196   4.424  -1.460  0.00  0.00    -0.338 N 
ATOM     22  H   UNL     1       5.747   3.897  -2.059  0.00  0.00    +0.146 HD
ENDROOT
BRANCH  16  23
ATOM     23  O   UNL     1       3.591  -0.621  -0.038  0.00  0.00    -0.488 OA
ATOM     24  C   UNL     1       4.145  -0.936  -1.318  0.00  0.00    +0.277 C 
ENDBRANCH  16  23
BRANCH  15  25
ATOM     25  O   UNL     1       1.239  -2.038  -0.012  0.00  0.00    -0.491 OA
ATOM     26  C   UNL     1      -0.023  -2.709   0.003  0.00  0.00    +0.277 C 
ENDBRANCH  15  25
TORSDOF 2
