REMARK  Name = ZINC67384564
REMARK  6 active torsions:
REMARK  status: ('A' for Active; 'I' for Inactive)
REMARK    1  A    between atoms: C_1  and  C_2
REMARK    2  A    between atoms: C_2  and  C_3
REMARK    3  A    between atoms: C_3  and  O_4
REMARK    4  A    between atoms: O_4  and  C_5
REMARK    5  A    between atoms: N_10  and  C_12
REMARK    6  A    between atoms: C_16  and  N_17
REMARK                            x       y       z     vdW  Elec       q    Type
REMARK                         _______ _______ _______ _____ _____    ______ ____
ROOT
ATOM      1  C   UNL     1       1.387  -2.493  -2.405  0.00  0.00    +0.135 C 
ATOM      2  C   UNL     1       0.363  -2.710  -3.521  0.00  0.00    +0.035 C 
ATOM      3  C   UNL     1       1.064  -3.285  -4.753  0.00  0.00    +0.021 C 
ATOM      4  C   UNL     1       1.685  -4.640  -4.397  0.00  0.00    +0.105 C 
ATOM      5  N   UNL     1       2.561  -4.466  -3.231  0.00  0.00    -0.325 N 
ATOM      6  C   UNL     1       2.013  -3.837  -2.021  0.00  0.00    +0.136 C 
ENDROOT
BRANCH   5   7
ATOM      7  C   UNL     1       3.902  -4.893  -3.271  0.00  0.00    +0.068 A 
ATOM      8  C   UNL     1       4.903  -4.033  -3.693  0.00  0.00    +0.033 A 
ATOM      9  C   UNL     1       6.184  -4.479  -3.719  0.00  0.00    +0.049 A 
ATOM     10  S   UNL     1       6.006  -6.157  -3.137  0.00  0.00    -0.071 S 
ATOM     11  C   UNL     1       4.238  -6.154  -2.891  0.00  0.00    +0.184 A 
BRANCH  11  12
ATOM     12  N   UNL     1       3.363  -7.244  -2.403  0.00  0.00    +0.065 N 
ATOM     13  O   UNL     1       2.172  -7.063  -2.300  0.00  0.00    -0.126 OA
ATOM     14  O   UNL     1       3.839  -8.315  -2.107  0.00  0.00    -0.126 OA
ENDBRANCH  11  12
ENDBRANCH   5   7
BRANCH   1  15
ATOM     15  O   UNL     1       0.738  -1.926  -1.265  0.00  0.00    -0.375 OA
BRANCH  15  16
ATOM     16  C   UNL     1       0.718  -0.497  -1.257  0.00  0.00    +0.160 C 
BRANCH  16  18
ATOM     17  C   UNL     1      -0.019   1.526   0.010  0.00  0.00    +0.006 C 
ATOM     18  C   UNL     1       0.002  -0.004   0.002  0.00  0.00    +0.025 C 
ENDBRANCH  16  18
ENDBRANCH  15  16
ENDBRANCH   1  15
TORSDOF 5
