REMARK  Name = ZINC28060229
REMARK  6 active torsions:
REMARK  status: ('A' for Active; 'I' for Inactive)
REMARK    1  A    between atoms: C_1  and  O_2
REMARK    2  A    between atoms: O_2  and  C_3
REMARK    3  A    between atoms: C_7  and  C_11
REMARK    4  A    between atoms: C_8  and  O_9
REMARK    5  A    between atoms: O_9  and  C_10
REMARK    6  A    between atoms: C_29  and  C_31
REMARK                            x       y       z     vdW  Elec       q    Type
REMARK                         _______ _______ _______ _____ _____    ______ ____
ROOT
ATOM      1  C   UNL     1      -2.971   5.214  -0.589  0.00  0.00    +0.238 C 
ATOM      2  C   UNL     1      -1.733   6.028  -0.288  0.00  0.00    +0.026 C 
ATOM      3  C   UNL     1      -0.583   5.396  -0.044  0.00  0.00    +0.050 C 
ATOM      4  C   UNL     1      -0.574   3.914  -0.070  0.00  0.00    +0.039 A 
ATOM      5  C   UNL     1       0.611   3.195  -0.176  0.00  0.00    +0.033 A 
ATOM      6  C   UNL     1       0.570   1.813  -0.189  0.00  0.00    +0.042 A 
ATOM      7  C   UNL     1      -0.642   1.149  -0.097  0.00  0.00    +0.023 A 
ATOM      8  C   UNL     1      -1.826   1.858   0.001  0.00  0.00    +0.048 A 
ATOM      9  C   UNL     1      -1.799   3.240   0.019  0.00  0.00    +0.131 A 
ATOM     10  O   UNL     1      -2.938   3.972   0.114  0.00  0.00    -0.479 OA
ATOM     11 CL   UNL     1       2.045   0.906  -0.320  0.00  0.00    -0.084 Cl
ATOM     12  N   UNL     1       0.602   6.084   0.242  0.00  0.00    -0.282 N 
ATOM     13  C   UNL     1       0.496   7.431   0.548  0.00  0.00    +0.240 A 
ATOM     14  N   UNL     1       1.349   8.264   1.070  0.00  0.00    -0.092 NA
ATOM     15  N   UNL     1       0.818   9.432   1.187  0.00  0.00    -0.021 NA
ATOM     16  N   UNL     1      -0.400   9.420   0.748  0.00  0.00    -0.042 NA
ATOM     17  N   UNL     1      -0.652   8.120   0.313  0.00  0.00    -0.201 N 
ATOM     18  C   UNL     1      -1.844   7.533  -0.281  0.00  0.00    +0.175 C 
ATOM     19  H   UNL     1       1.566   5.553   0.218  0.00  0.00    +0.155 HD
ENDROOT
BRANCH   1  24
ATOM     20  C   UNL     1      -4.335   4.565  -4.060  0.00  0.00    +0.162 A 
ATOM     21  C   UNL     1      -3.165   4.452  -4.794  0.00  0.00    +0.049 A 
ATOM     22  C   UNL     1      -1.940   4.585  -4.167  0.00  0.00    +0.004 A 
ATOM     23  C   UNL     1      -1.879   4.831  -2.808  0.00  0.00    +0.011 A 
ATOM     24  C   UNL     1      -3.042   4.945  -2.070  0.00  0.00    +0.042 A 
ATOM     25  C   UNL     1      -4.273   4.807  -2.691  0.00  0.00    +0.168 A 
BRANCH  20  27
ATOM     26  C   UNL     1      -5.527   4.180  -6.081  0.00  0.00    +0.277 C 
ATOM     27  O   UNL     1      -5.540   4.434  -4.675  0.00  0.00    -0.491 OA
ENDBRANCH  20  27
BRANCH  25  28
ATOM     28  O   UNL     1      -5.418   4.914  -1.966  0.00  0.00    -0.491 OA
ATOM     29  C   UNL     1      -6.058   6.191  -1.948  0.00  0.00    +0.277 C 
ENDBRANCH  25  28
ENDBRANCH   1  24
BRANCH  18  30
ATOM     30  C   UNL     1      -1.996   8.030  -1.695  0.00  0.00    -0.001 A 
ATOM     31  C   UNL     1      -3.174   8.636  -2.104  0.00  0.00    +0.009 A 
ATOM     32  C   UNL     1      -3.268   9.078  -3.415  0.00  0.00    +0.020 A 
ATOM     33  C   UNL     1      -2.192   8.901  -4.264  0.00  0.00    +0.111 A 
ATOM     34  N   UNL     1      -1.087   8.320  -3.841  0.00  0.00    -0.263 NA
ATOM     35  C   UNL     1      -0.960   7.893  -2.599  0.00  0.00    +0.116 A 
ENDBRANCH  18  30
TORSDOF 4
