REMARK  Name = ZINC02463260
REMARK  9 active torsions:
REMARK  status: ('A' for Active; 'I' for Inactive)
REMARK    1  A    between atoms: C_1  and  C_2
REMARK    2  A    between atoms: C_7  and  C_21
REMARK    3  A    between atoms: C_9  and  C_15
REMARK    4  A    between atoms: C_10  and  C_14
REMARK    5  A    between atoms: C_15  and  O_17
REMARK    6  A    between atoms: O_17  and  C_18
REMARK    7  A    between atoms: C_18  and  C_19
REMARK    8  A    between atoms: C_18  and  C_20
REMARK    9  A    between atoms: C_26  and  N_27
REMARK                            x       y       z     vdW  Elec       q    Type
REMARK                         _______ _______ _______ _____ _____    ______ ____
ROOT
ATOM      1  C   UNL     1      -1.999   8.547  -1.078  0.00  0.00    +0.029 C 
ATOM      2  C   UNL     1      -1.388   7.939   0.187  0.00  0.00    +0.137 C 
ATOM      3  C   UNL     1      -1.469   6.428   0.164  0.00  0.00    +0.235 C 
ATOM      4  O   UNL     1      -2.535   5.850   0.138  0.00  0.00    -0.274 OA
ATOM      5  N   UNL     1      -0.308   5.756   0.175  0.00  0.00    -0.238 N 
ATOM      6  C   UNL     1      -0.184   4.269   0.150  0.00  0.00    +0.154 C 
ATOM      7  C   UNL     1       1.211   3.689   0.173  0.00  0.00    +0.083 C 
ATOM      8  C   UNL     1       2.266   4.554   0.204  0.00  0.00    +0.053 C 
ATOM      9  N   UNL     1       2.062   5.866   0.219  0.00  0.00    -0.230 NA
ATOM     10  C   UNL     1       0.887   6.442   0.206  0.00  0.00    +0.164 C 
ATOM     11  S   UNL     1       0.432   8.167   0.222  0.00  0.00    -0.077 S 
ATOM     12  C   UNL     1       3.674   4.016   0.221  0.00  0.00    +0.066 C 
ENDROOT
BRANCH   6  13
ATOM     13  C   UNL     1      -0.930   3.727   1.343  0.00  0.00    +0.008 A 
ATOM     14  C   UNL     1      -0.947   4.438   2.529  0.00  0.00    +0.008 A 
ATOM     15  C   UNL     1      -1.631   3.942   3.622  0.00  0.00    +0.000 A 
ATOM     16  C   UNL     1      -2.298   2.735   3.530  0.00  0.00    +0.002 A 
ATOM     17  C   UNL     1      -2.281   2.024   2.345  0.00  0.00    +0.033 A 
ATOM     18  C   UNL     1      -1.601   2.523   1.250  0.00  0.00    +0.131 A 
BRANCH  18  19
ATOM     19  N   UNL     1      -1.587   1.764  -0.021  0.00  0.00    +0.057 N 
ATOM     20  O   UNL     1      -2.264   0.758  -0.137  0.00  0.00    -0.126 OA
ATOM     21  O   UNL     1      -0.899   2.146  -0.951  0.00  0.00    -0.126 OA
ENDBRANCH  18  19
ENDBRANCH   6  13
BRANCH   7  22
ATOM     22  C   UNL     1       1.416   2.299   0.158  0.00  0.00    +0.339 C 
ATOM     23  O   UNL     1       1.254   1.648   1.175  0.00  0.00    -0.245 OA
BRANCH  22  24
ATOM     24  O   UNL     1       1.792   1.685  -0.985  0.00  0.00    -0.459 OA
BRANCH  24  25
ATOM     25  C   UNL     1       1.891   0.259  -0.953  0.00  0.00    +0.171 C 
ATOM     26  C   UNL     1       1.646  -0.300  -2.356  0.00  0.00    +0.052 C 
ATOM     27  C   UNL     1       3.288  -0.145  -0.479  0.00  0.00    +0.052 C 
ENDBRANCH  24  25
ENDBRANCH  22  24
ENDBRANCH   7  22
TORSDOF 5
