REMARK  Name = ZINC66214829
REMARK  7 active torsions:
REMARK  status: ('A' for Active; 'I' for Inactive)
REMARK    1  A    between atoms: C_3  and  C_21
REMARK    2  A    between atoms: C_5  and  N_7
REMARK    3  A    between atoms: C_8  and  C_10
REMARK    4  A    between atoms: C_10  and  N_11
REMARK    5  A    between atoms: N_11  and  C_12
REMARK    6  A    between atoms: N_23  and  C_24
REMARK    7  A    between atoms: C_24  and  C_25
REMARK                            x       y       z     vdW  Elec       q    Type
REMARK                         _______ _______ _______ _____ _____    ______ ____
ROOT
ATOM      1  C   UNL     1       0.004   1.380   0.175  0.00  0.00    +0.003 A 
ATOM      2  C   UNL     1       1.174   2.089  -0.011  0.00  0.00    +0.013 A 
ATOM      3  C   UNL     1       2.378   1.410  -0.203  0.00  0.00    +0.038 A 
ATOM      4  C   UNL     1       2.395   0.015  -0.206  0.00  0.00    +0.036 A 
ATOM      5  C   UNL     1       1.215  -0.687  -0.018  0.00  0.00    +0.034 A 
ATOM      6  C   UNL     1       0.021  -0.002   0.172  0.00  0.00    +0.023 A 
ENDROOT
BRANCH   5   7
ATOM      7  N   UNL     1       1.226  -2.087  -0.021  0.00  0.00    -0.284 N 
ATOM      8  C   UNL     1       2.295  -2.753   0.459  0.00  0.00    +0.234 C 
ATOM      9  O   UNL     1       3.205  -2.144   0.980  0.00  0.00    -0.274 OA
ATOM     10  H   UNL     1       0.464  -2.577  -0.367  0.00  0.00    +0.155 HD
BRANCH   8  11
ATOM     11  C   UNL     1       2.359  -4.255   0.348  0.00  0.00    +0.198 C 
BRANCH  11  12
ATOM     12  N   UNL     1       3.611  -4.735   0.938  0.00  0.00    -0.334 N 
ATOM     13  H   UNL     1       4.241  -4.104   1.319  0.00  0.00    +0.147 HD
BRANCH  12  14
ATOM     14  C   UNL     1       3.897  -6.103   0.953  0.00  0.00    +0.048 A 
ATOM     15  C   UNL     1       2.998  -7.008   0.404  0.00  0.00    +0.045 A 
ATOM     16  C   UNL     1       3.283  -8.360   0.420  0.00  0.00    +0.061 A 
ATOM     17  C   UNL     1       4.464  -8.813   0.984  0.00  0.00    +0.061 A 
ATOM     18  C   UNL     1       5.361  -7.915   1.532  0.00  0.00    +0.043 A 
ATOM     19  C   UNL     1       5.084  -6.561   1.513  0.00  0.00    +0.063 A 
ATOM     20 CL   UNL     1       6.214  -5.433   2.194  0.00  0.00    -0.082 Cl
ATOM     21 CL   UNL     1       4.819 -10.513   1.003  0.00  0.00    -0.082 Cl
ATOM     22 CL   UNL     1       2.159  -9.492  -0.267  0.00  0.00    -0.082 Cl
ENDBRANCH  12  14
ENDBRANCH  11  12
ENDBRANCH   8  11
ENDBRANCH   5   7
BRANCH   3  23
ATOM     23  C   UNL     1       3.633   2.167  -0.402  0.00  0.00    +0.244 C 
ATOM     24  O   UNL     1       4.680   1.574  -0.569  0.00  0.00    -0.270 OA
ATOM     25  N   UNL     1       3.614   3.515  -0.399  0.00  0.00    -0.309 N 
ATOM     26  H   UNL     1       2.778   3.988  -0.266  0.00  0.00    +0.149 HD
BRANCH  25  27
ATOM     27  C   UNL     1       4.857   4.265  -0.597  0.00  0.00    +0.136 C 
BRANCH  27  28
ATOM     28  C   UNL     1       4.560   5.765  -0.550  0.00  0.00    +0.135 C 
ATOM     29  C   UNL     1       5.841   6.563  -0.877  0.00  0.00    +0.035 C 
ATOM     30  C   UNL     1       5.747   7.757   0.112  0.00  0.00    +0.031 C 
ATOM     31  C   UNL     1       5.074   7.077   1.331  0.00  0.00    +0.160 C 
ATOM     32  O   UNL     1       4.142   6.136   0.769  0.00  0.00    -0.375 OA
ENDBRANCH  27  28
ENDBRANCH  25  27
ENDBRANCH   3  23
TORSDOF 7
