REMARK  Name = ZINC39211783
REMARK  9 active torsions:
REMARK  status: ('A' for Active; 'I' for Inactive)
REMARK    1  A    between atoms: C_1  and  C_2
REMARK    2  A    between atoms: C_4  and  C_17
REMARK    3  A    between atoms: C_7  and  O_12
REMARK    4  A    between atoms: O_12  and  C_13
REMARK    5  A    between atoms: C_17  and  C_18
REMARK    6  A    between atoms: C_18  and  N_19
REMARK    7  A    between atoms: C_20  and  C_22
REMARK    8  A    between atoms: C_29  and  C_34
REMARK    9  A    between atoms: C_34  and  C_35
REMARK                            x       y       z     vdW  Elec       q    Type
REMARK                         _______ _______ _______ _____ _____    ______ ____
ROOT
ATOM      1  C   UNL     1      -3.174   2.945   0.633  0.00  0.00    +0.109 C 
ENDROOT
BRANCH   1   2
ATOM      2  N   UNL     1      -4.145   2.771   1.716  0.00  0.00    -0.314 N 
ATOM      3  C   UNL     1      -4.410   3.792   2.555  0.00  0.00    +0.227 C 
ATOM      4  O   UNL     1      -3.844   4.855   2.414  0.00  0.00    -0.275 OA
ATOM      5  H   UNL     1      -4.598   1.921   1.828  0.00  0.00    +0.149 HD
BRANCH   3   6
ATOM      6  C   UNL     1      -5.410   3.612   3.668  0.00  0.00    +0.188 C 
ATOM      7  C   UNL     1      -5.513   4.903   4.487  0.00  0.00    +0.063 C 
ATOM      8  C   UNL     1      -4.305   5.042   5.378  0.00  0.00    -0.003 A 
ATOM      9  C   UNL     1      -3.987   6.298   5.870  0.00  0.00    +0.007 A 
ATOM     10  C   UNL     1      -2.893   6.469   6.694  0.00  0.00    +0.001 A 
ATOM     11  C   UNL     1      -2.107   5.384   7.034  0.00  0.00    +0.007 A 
ATOM     12  C   UNL     1      -2.416   4.131   6.546  0.00  0.00    -0.001 A 
ATOM     13  C   UNL     1      -3.515   3.956   5.712  0.00  0.00    +0.138 A 
ATOM     14  O   UNL     1      -3.774   2.707   5.237  0.00  0.00    -0.425 OA
ATOM     15  C   UNL     1      -4.948   2.511   4.602  0.00  0.00    +0.325 C 
ATOM     16  O   UNL     1      -5.600   1.508   4.769  0.00  0.00    -0.250 OA
BRANCH  12  17
ATOM     17  C   UNL     1      -1.559   2.948   6.917  0.00  0.00    +0.065 C 
BRANCH  17  18
ATOM     18  C   UNL     1      -0.527   2.718   5.843  0.00  0.00    -0.030 C 
ATOM     19  C   UNL     1       0.745   2.678   6.155  0.00  0.00    +0.004 C 
ENDBRANCH  17  18
ENDBRANCH  12  17
ENDBRANCH   3   6
ENDBRANCH   1   2
BRANCH   1  20
ATOM     20  C   UNL     1      -3.061   1.645  -0.165  0.00  0.00    +0.056 C 
BRANCH  20  24
ATOM     21  C   UNL     1      -0.013   1.086   0.008  0.00  0.00    +0.063 C 
ATOM     22  C   UNL     1      -0.742   1.585  -1.213  0.00  0.00    +0.017 A 
ATOM     23  H   UNL     1       0.790   1.775  -2.611  0.00  0.00    +0.166 HD
ATOM     24  C   UNL     1      -2.061   1.824  -1.278  0.00  0.00    -0.018 A 
ATOM     25  C   UNL     1      -2.345   2.293  -2.637  0.00  0.00    +0.007 A 
ATOM     26  C   UNL     1      -3.506   2.692  -3.302  0.00  0.00    +0.056 A 
ATOM     27  C   UNL     1      -3.434   3.090  -4.622  0.00  0.00    +0.129 A 
ATOM     28  C   UNL     1      -2.212   3.093  -5.288  0.00  0.00    +0.048 A 
ATOM     29  C   UNL     1      -1.060   2.701  -4.643  0.00  0.00    +0.030 A 
ATOM     30  C   UNL     1      -1.111   2.298  -3.313  0.00  0.00    +0.047 A 
ATOM     31  N   UNL     1      -0.156   1.867  -2.417  0.00  0.00    -0.358 N 
BRANCH  27  32
ATOM     32  O   UNL     1      -4.562   3.479  -5.274  0.00  0.00    -0.420 OA
BRANCH  32  33
ATOM     33  C   UNL     1      -4.417   3.878  -6.639  0.00  0.00    +0.489 C 
ATOM     34  F   UNL     1      -3.543   4.968  -6.716  0.00  0.00    -0.149 F 
ATOM     35  F   UNL     1      -3.901   2.813  -7.384  0.00  0.00    -0.149 F 
ATOM     36 CL   UNL     1      -6.026   4.351  -7.301  0.00  0.00    +0.000 Cl
ENDBRANCH  32  33
ENDBRANCH  27  32
ENDBRANCH  20  24
ENDBRANCH   1  20
TORSDOF 8
