REMARK  Name = ZINC56492401
REMARK  8 active torsions:
REMARK  status: ('A' for Active; 'I' for Inactive)
REMARK    1  A    between atoms: C_1  and  C_2
REMARK    2  A    between atoms: C_2  and  N_3
REMARK    3  A    between atoms: N_3  and  C_4
REMARK    4  A    between atoms: N_3  and  C_13
REMARK    5  A    between atoms: C_4  and  C_5
REMARK    6  A    between atoms: C_7  and  N_10
REMARK    7  A    between atoms: C_13  and  C_14
REMARK    8  A    between atoms: C_14  and  C_16
REMARK                            x       y       z     vdW  Elec       q    Type
REMARK                         _______ _______ _______ _____ _____    ______ ____
ROOT
ATOM      1  C   UNL     1      -1.278  -1.820   0.427  0.00  0.00    -0.042 C 
ENDROOT
BRANCH   1   2
ATOM      2  C   UNL     1      -0.796  -2.042   1.837  0.00  0.00    -0.055 A 
ATOM      3  C   UNL     1       0.557  -2.054   2.123  0.00  0.00    +0.042 A 
ATOM      4  C   UNL     1       0.957  -2.256   3.402  0.00  0.00    +0.164 A 
ATOM      5  S   UNL     1      -0.602  -2.437   4.252  0.00  0.00    -0.073 S 
ATOM      6  C   UNL     1      -1.682  -2.227   2.846  0.00  0.00    +0.049 A 
BRANCH   4   7
ATOM      7  N   UNL     1       2.330  -2.312   3.951  0.00  0.00    +0.063 N 
ATOM      8  O   UNL     1       3.281  -2.166   3.219  0.00  0.00    -0.126 OA
ATOM      9  O   UNL     1       2.502  -2.503   5.133  0.00  0.00    -0.126 OA
ENDBRANCH   4   7
ENDBRANCH   1   2
BRANCH   1  10
ATOM     10  N   UNL     1      -1.464  -0.382   0.193  0.00  0.00    +0.385 N 
ATOM     11  H   UNL     1      -2.094  -0.007   0.887  0.00  0.00    -0.081 HD
BRANCH  10  13
ATOM     12  C   UNL     1      -0.377   1.812   0.168  0.00  0.00    -0.017 C 
ATOM     13  C   UNL     1      -0.167   0.301   0.289  0.00  0.00    -0.081 C 
ENDBRANCH  10  13
BRANCH  10  14
ATOM     14  C   UNL     1      -2.030  -0.173  -1.146  0.00  0.00    -0.048 C 
BRANCH  14  15
ATOM     15  C   UNL     1      -3.424  -0.742  -1.197  0.00  0.00    -0.096 C 
ATOM     16  C   UNL     1      -4.456   0.030  -0.961  0.00  0.00    +0.005 C 
ATOM     17  C   UNL     1      -3.632  -2.200  -1.518  0.00  0.00    +0.036 C 
ENDBRANCH  14  15
ENDBRANCH  10  14
ENDBRANCH   1  10
TORSDOF 6
