REMARK  Name = ZINC16671012
REMARK  7 active torsions:
REMARK  status: ('A' for Active; 'I' for Inactive)
REMARK    1  A    between atoms: C_1  and  C_2
REMARK    2  A    between atoms: C_5  and  S_8
REMARK    3  A    between atoms: S_8  and  N_11
REMARK    4  A    between atoms: N_11  and  N_12
REMARK    5  A    between atoms: C_13  and  C_15
REMARK    6  A    between atoms: C_19  and  C_31
REMARK    7  A    between atoms: C_22  and  C_25
REMARK                            x       y       z     vdW  Elec       q    Type
REMARK                         _______ _______ _______ _____ _____    ______ ____
ROOT
ATOM      1  C   UNL     1       4.098  -5.154   2.826  0.00  0.00    +0.050 C 
ATOM      2  C   UNL     1       5.186  -4.221   2.290  0.00  0.00    +0.019 C 
ATOM      3  C   UNL     1       6.114  -3.809   3.434  0.00  0.00    -0.008 C 
ATOM      4  C   UNL     1       6.763  -5.055   4.039  0.00  0.00    +0.015 C 
ATOM      5  C   UNL     1       5.675  -5.988   4.575  0.00  0.00    -0.002 C 
ATOM      6  C   UNL     1       4.747  -6.400   3.431  0.00  0.00    +0.027 C 
ATOM      7  C   UNL     1       4.865  -5.261   5.651  0.00  0.00    +0.023 C 
ATOM      8  C   UNL     1       4.216  -4.015   5.047  0.00  0.00    -0.002 C 
ATOM      9  C   UNL     1       5.304  -3.082   4.511  0.00  0.00    +0.015 C 
ATOM     10  C   UNL     1       3.288  -4.427   3.902  0.00  0.00    +0.027 C 
ENDROOT
BRANCH   8  11
ATOM     11  C   UNL     1       3.419  -3.300   6.107  0.00  0.00    -0.041 A 
ATOM     12  C   UNL     1       3.372  -3.802   7.394  0.00  0.00    +0.004 A 
ATOM     13  C   UNL     1       2.641  -3.146   8.366  0.00  0.00    +0.000 A 
ATOM     14  C   UNL     1       1.956  -1.987   8.051  0.00  0.00    +0.000 A 
ATOM     15  C   UNL     1       2.003  -1.484   6.764  0.00  0.00    +0.000 A 
ATOM     16  C   UNL     1       2.738  -2.138   5.793  0.00  0.00    +0.004 A 
ENDBRANCH   8  11
BRANCH   5  17
ATOM     17  C   UNL     1       6.314  -7.216   5.171  0.00  0.00    -0.041 A 
ATOM     18  C   UNL     1       6.111  -7.524   6.503  0.00  0.00    +0.004 A 
ATOM     19  C   UNL     1       6.697  -8.650   7.049  0.00  0.00    +0.000 A 
ATOM     20  C   UNL     1       7.487  -9.468   6.263  0.00  0.00    +0.000 A 
ATOM     21  C   UNL     1       7.690  -9.161   4.931  0.00  0.00    +0.000 A 
ATOM     22  C   UNL     1       7.100  -8.037   4.384  0.00  0.00    +0.004 A 
ENDBRANCH   5  17
BRANCH   1  24
ATOM     23  N   UNL     1       2.500  -4.622   1.014  0.00  0.00    -0.231 N 
ATOM     24  C   UNL     1       3.184  -5.560   1.699  0.00  0.00    +0.234 C 
ATOM     25  O   UNL     1       3.064  -6.731   1.407  0.00  0.00    -0.274 OA
ATOM     26  H   UNL     1       2.596  -3.685   1.247  0.00  0.00    +0.171 HD
BRANCH  23  27
ATOM     27  N   UNL     1       1.651  -4.999  -0.034  0.00  0.00    -0.108 NA
ATOM     28  H   UNL     1       1.993  -5.536  -0.767  0.00  0.00    +0.172 HD
BRANCH  27  29
ATOM     29  S   UNL     1       0.063  -4.530  -0.023  0.00  0.00    +0.074 S 
ATOM     30  O   UNL     1      -0.476  -4.950   1.223  0.00  0.00    -0.152 OA
ATOM     31  O   UNL     1      -0.490  -4.937  -1.267  0.00  0.00    -0.152 OA
BRANCH  29  36
ATOM     32  C   UNL     1      -0.018   1.503   0.010  0.00  0.00    +0.044 C 
ATOM     33  C   UNL     1       0.002  -0.004   0.002  0.00  0.00    -0.050 A 
ATOM     34  C   UNL     1       0.006  -0.689  -1.199  0.00  0.00    +0.005 A 
ATOM     35  C   UNL     1       0.025  -2.071  -1.206  0.00  0.00    +0.029 A 
ATOM     36  C   UNL     1       0.040  -2.768  -0.013  0.00  0.00    +0.107 A 
ATOM     37  C   UNL     1       0.037  -2.084   1.188  0.00  0.00    +0.029 A 
ATOM     38  C   UNL     1       0.023  -0.702   1.195  0.00  0.00    +0.005 A 
ENDBRANCH  29  36
ENDBRANCH  27  29
ENDBRANCH  23  27
ENDBRANCH   1  24
TORSDOF 6
