REMARK  Name = ZINC19788539
REMARK  4 active torsions:
REMARK  status: ('A' for Active; 'I' for Inactive)
REMARK    1  A    between atoms: C_1  and  C_2
REMARK    2  A    between atoms: C_8  and  C_12
REMARK    3  A    between atoms: C_14  and  C_17
REMARK    4  A    between atoms: C_18  and  C_27
REMARK                            x       y       z     vdW  Elec       q    Type
REMARK                         _______ _______ _______ _____ _____    ______ ____
ROOT
ATOM      1  C   UNL     1      -2.498  -0.806   0.021  0.00  0.00    +0.279 A 
ATOM      2  N   UNL     1      -3.442  -1.731   0.026  0.00  0.00    -0.186 NA
ATOM      3  C   UNL     1      -4.609  -1.054   0.041  0.00  0.00    +0.204 A 
ATOM      4  N   UNL     1      -4.321   0.222   0.044  0.00  0.00    -0.056 NA
ATOM      5  O   UNL     1      -3.119   0.384   0.039  0.00  0.00    -0.331 OA
ENDROOT
BRANCH   3   6
ATOM      6  C   UNL     1      -5.969  -1.648   0.051  0.00  0.00    +0.047 A 
ATOM      7  C   UNL     1      -6.138  -3.031   0.041  0.00  0.00    +0.049 A 
ATOM      8  N   UNL     1      -7.345  -3.556   0.057  0.00  0.00    -0.259 NA
ATOM      9  C   UNL     1      -8.430  -2.808   0.071  0.00  0.00    +0.113 A 
ATOM     10  C   UNL     1      -8.346  -1.424   0.075  0.00  0.00    -0.043 A 
ATOM     11  C   UNL     1      -7.102  -0.829   0.066  0.00  0.00    -0.034 A 
ATOM     12  C   UNL     1      -6.934   0.666   0.076  0.00  0.00    +0.017 C 
ATOM     13  C   UNL     1      -8.251   1.339  -0.318  0.00  0.00    -0.077 C 
ATOM     14  N   UNL     1      -9.332   0.767   0.500  0.00  0.00    +0.382 N 
ATOM     15  C   UNL     1      -9.613  -0.612   0.086  0.00  0.00    -0.045 C 
ATOM     16  C   UNL     1      -4.930  -3.932   0.016  0.00  0.00    +0.066 C 
ATOM     17  H   UNL     1      -9.032   0.769   1.559  0.00  0.00    -0.085 HD
ATOM     18  H   UNL     1     -10.243   1.371   0.377  0.00  0.00    -0.085 HD
ENDBRANCH   3   6
BRANCH   1  26
ATOM     19  C   UNL     1       1.141   3.591   0.010  0.00  0.00    +0.044 C 
ATOM     20  C   UNL     1       1.161   2.084   0.002  0.00  0.00    -0.050 A 
ATOM     21  C   UNL     1       2.376   1.411  -0.013  0.00  0.00    +0.005 A 
ATOM     22  C   UNL     1       2.418   0.046  -0.021  0.00  0.00    +0.028 A 
ATOM     23  C   UNL     1       1.232  -0.685  -0.013  0.00  0.00    +0.067 A 
ATOM     24  C   UNL     1       0.002  -0.004   0.002  0.00  0.00    +0.032 A 
ATOM     25  C   UNL     1      -0.017   1.392   0.010  0.00  0.00    +0.015 A 
ATOM     26  C   UNL     1      -1.041  -1.037   0.007  0.00  0.00    +0.157 A 
ATOM     27  N   UNL     1      -0.440  -2.205  -0.005  0.00  0.00    -0.168 NA
ATOM     28  N   UNL     1       0.947  -2.027  -0.017  0.00  0.00    -0.276 N 
ATOM     29  H   UNL     1       1.765  -2.763  -0.029  0.00  0.00    +0.189 HD
ENDBRANCH   1  26
TORSDOF 2
