REMARK  Name = ZINC05865426
REMARK  9 active torsions:
REMARK  status: ('A' for Active; 'I' for Inactive)
REMARK    1  A    between atoms: C_1  and  C_2
REMARK    2  A    between atoms: C_2  and  C_3
REMARK    3  A    between atoms: C_3  and  C_4
REMARK    4  A    between atoms: C_4  and  C_5
REMARK    5  A    between atoms: C_5  and  N_6
REMARK    6  A    between atoms: C_15  and  S_16
REMARK    7  A    between atoms: S_16  and  C_17
REMARK    8  A    between atoms: C_17  and  C_19
REMARK    9  A    between atoms: C_17  and  C_20
REMARK                            x       y       z     vdW  Elec       q    Type
REMARK                         _______ _______ _______ _____ _____    ______ ____
ROOT
ATOM      1  N   UNL     1      -0.020   1.094   2.454  0.00  0.00    -0.287 N 
ATOM      2  C   UNL     1       0.963   1.842   2.987  0.00  0.00    +0.263 A 
ATOM      3  O   UNL     1       1.264   2.913   2.490  0.00  0.00    -0.267 OA
ATOM      4  C   UNL     1       1.650   1.362   4.147  0.00  0.00    +0.076 A 
ATOM      5  C   UNL     1       2.739   2.004   4.886  0.00  0.00    -0.023 A 
ATOM      6  C   UNL     1       3.224   1.344   5.957  0.00  0.00    -0.004 A 
ATOM      7  S   UNL     1       2.274  -0.150   6.046  0.00  0.00    -0.073 S 
ATOM      8  C   UNL     1       1.225   0.117   4.639  0.00  0.00    +0.117 A 
ATOM      9  N   UNL     1       0.246  -0.573   4.066  0.00  0.00    -0.216 NA
ATOM     10  C   UNL     1      -0.374  -0.106   3.001  0.00  0.00    +0.173 A 
ATOM     11  C   UNL     1       4.327   1.783   6.871  0.00  0.00    +0.043 C 
ATOM     12  C   UNL     1       5.087   2.933   6.195  0.00  0.00    +0.005 C 
ATOM     13  C   UNL     1       4.071   3.950   5.667  0.00  0.00    +0.005 C 
ATOM     14  C   UNL     1       3.314   3.358   4.478  0.00  0.00    +0.037 C 
ENDROOT
BRANCH   1  15
ATOM     15  C   UNL     1      -0.729   1.579   1.267  0.00  0.00    +0.127 C 
BRANCH  15  16
ATOM     16  C   UNL     1      -0.013   1.086   0.008  0.00  0.00    +0.022 C 
BRANCH  16  17
ATOM     17  C   UNL     1      -0.753   1.593  -1.232  0.00  0.00    +0.001 C 
BRANCH  17  19
ATOM     18  C   UNL     1      -0.777   1.606  -3.730  0.00  0.00    +0.004 C 
ATOM     19  C   UNL     1      -0.037   1.099  -2.490  0.00  0.00    -0.003 C 
ENDBRANCH  17  19
ENDBRANCH  16  17
ENDBRANCH  15  16
ENDBRANCH   1  15
BRANCH  10  20
ATOM     20  S   UNL     1      -1.673  -1.045   2.269  0.00  0.00    -0.075 S 
BRANCH  20  21
ATOM     21  C   UNL     1      -1.690  -2.475   3.379  0.00  0.00    +0.137 C 
ATOM     22  C   UNL     1      -0.370  -3.238   3.249  0.00  0.00    +0.029 C 
BRANCH  21  23
ATOM     23  C   UNL     1      -2.834  -3.383   3.010  0.00  0.00    +0.233 C 
ATOM     24  O   UNL     1      -3.275  -3.375   1.881  0.00  0.00    -0.274 OA
ATOM     25  N   UNL     1      -3.367  -4.205   3.936  0.00  0.00    -0.239 N 
ATOM     26  C   UNL     1      -4.391  -5.018   3.606  0.00  0.00    +0.303 C 
ATOM     27  O   UNL     1      -4.833  -5.010   2.474  0.00  0.00    -0.253 OA
ATOM     28  N   UNL     1      -4.923  -5.840   4.531  0.00  0.00    -0.313 N 
ATOM     29  H   UNL     1      -3.014  -4.212   4.839  0.00  0.00    +0.159 HD
ATOM     30  H   UNL     1      -4.571  -5.847   5.435  0.00  0.00    +0.146 HD
ATOM     31  H   UNL     1      -5.660  -6.425   4.294  0.00  0.00    +0.146 HD
ENDBRANCH  21  23
ENDBRANCH  20  21
ENDBRANCH  10  20
TORSDOF 7
