REMARK  Name = ZINC09831486
REMARK  10 active torsions:
REMARK  status: ('A' for Active; 'I' for Inactive)
REMARK    1  A    between atoms: C_1  and  C_2
REMARK    2  A    between atoms: C_7  and  C_8
REMARK    3  A    between atoms: C_7  and  N_70
REMARK    4  A    between atoms: C_8  and  C_9
REMARK    5  A    between atoms: C_9  and  N_10
REMARK    6  A    between atoms: C_11  and  C_13
REMARK    7  A    between atoms: C_13  and  C_14
REMARK    8  A    between atoms: C_14  and  C_15
REMARK    9  A    between atoms: N_28  and  C_29
REMARK   10  A    between atoms: C_29  and  C_30
REMARK                            x       y       z     vdW  Elec       q    Type
REMARK                         _______ _______ _______ _____ _____    ______ ____
ROOT
ATOM      1  C   UNL     1       2.274  -2.359   1.254  0.00  0.00    +0.140 A 
ATOM      2  N   UNL     1       2.833  -1.238   1.621  0.00  0.00    -0.132 NA
ATOM      3  N   UNL     1       2.127  -0.241   1.223  0.00  0.00    -0.110 NA
ATOM      4  C   UNL     1       1.071  -0.673   0.568  0.00  0.00    +0.240 A 
ATOM      5  N   UNL     1       1.134  -2.037   0.576  0.00  0.00    -0.264 N 
ATOM      6  C   UNL     1       0.150  -2.800  -0.038  0.00  0.00    +0.063 A 
ATOM      7  C   UNL     1       0.210  -4.186  -0.040  0.00  0.00    +0.027 A 
ATOM      8  C   UNL     1      -0.784  -4.916  -0.660  0.00  0.00    +0.002 A 
ATOM      9  C   UNL     1      -1.846  -4.277  -1.282  0.00  0.00    +0.001 A 
ATOM     10  C   UNL     1      -1.922  -2.900  -1.290  0.00  0.00    +0.015 A 
ATOM     11  C   UNL     1      -0.925  -2.151  -0.668  0.00  0.00    +0.064 A 
ATOM     12  C   UNL     1      -0.968  -0.678  -0.654  0.00  0.00    +0.263 A 
ATOM     13  O   UNL     1      -1.883  -0.081  -1.188  0.00  0.00    -0.267 OA
ATOM     14  N   UNL     1       0.025  -0.003  -0.037  0.00  0.00    -0.272 N 
ENDROOT
BRANCH   1  15
ATOM     15  C   UNL     1       2.790  -3.748   1.528  0.00  0.00    +0.086 C 
BRANCH  15  16
ATOM     16  C   UNL     1       3.571  -4.251   0.312  0.00  0.00    +0.103 C 
BRANCH  16  18
ATOM     17  N   UNL     1       4.808  -6.288  -0.350  0.00  0.00    -0.315 N 
ATOM     18  C   UNL     1       4.087  -5.640   0.586  0.00  0.00    +0.213 C 
ATOM     19  O   UNL     1       3.853  -6.175   1.649  0.00  0.00    -0.276 OA
ATOM     20  H   UNL     1       4.994  -5.861  -1.201  0.00  0.00    +0.149 HD
BRANCH  17  21
ATOM     21  C   UNL     1       5.309  -7.639  -0.084  0.00  0.00    +0.102 C 
BRANCH  21  22
ATOM     22  C   UNL     1       6.090  -8.142  -1.300  0.00  0.00    +0.000 C 
BRANCH  22  23
ATOM     23  C   UNL     1       6.614  -9.552  -1.022  0.00  0.00    -0.077 C 
BRANCH  23  30
ATOM     24  C   UNL     1       8.964 -12.200  -5.509  0.00  0.00    +0.007 C 
ATOM     25  C   UNL     1       8.082 -11.865  -4.305  0.00  0.00    -0.018 C 
ATOM     26  C   UNL     1       8.960 -11.674  -3.065  0.00  0.00    -0.016 C 
ATOM     27  C   UNL     1       8.078 -11.279  -1.878  0.00  0.00    -0.079 C 
ATOM     28  C   UNL     1       6.477 -10.208  -3.348  0.00  0.00    -0.079 C 
ATOM     29  C   UNL     1       7.311 -10.570  -4.579  0.00  0.00    -0.016 C 
ATOM     30  N   UNL     1       7.383 -10.014  -2.196  0.00  0.00    +0.380 N 
ATOM     31  H   UNL     1       8.082  -9.302  -2.438  0.00  0.00    -0.082 HD
ENDBRANCH  23  30
ENDBRANCH  22  23
ENDBRANCH  21  22
ENDBRANCH  17  21
ENDBRANCH  16  18
ENDBRANCH  15  16
ENDBRANCH   1  15
BRANCH  14  32
ATOM     32  C   UNL     1      -0.004   1.461  -0.015  0.00  0.00    +0.163 C 
BRANCH  32  33
ATOM     33  C   UNL     1      -0.747   1.930   1.210  0.00  0.00    -0.027 A 
ATOM     34  C   UNL     1      -2.112   2.140   1.151  0.00  0.00    +0.007 A 
ATOM     35  C   UNL     1      -2.794   2.565   2.276  0.00  0.00    +0.020 A 
ATOM     36  C   UNL     1      -2.110   2.791   3.457  0.00  0.00    +0.041 A 
ATOM     37  C   UNL     1      -0.743   2.586   3.513  0.00  0.00    +0.020 A 
ATOM     38  C   UNL     1      -0.062   2.156   2.389  0.00  0.00    +0.007 A 
ATOM     39 CL   UNL     1      -2.966   3.330   4.867  0.00  0.00    -0.084 Cl
ENDBRANCH  32  33
ENDBRANCH  14  32
TORSDOF 9
