REMARK  Name = ZINC38621131
REMARK  9 active torsions:
REMARK  status: ('A' for Active; 'I' for Inactive)
REMARK    1  A    between atoms: C_5  and  N_7
REMARK    2  A    between atoms: N_10  and  C_13
REMARK    3  A    between atoms: C_13  and  C_15
REMARK    4  A    between atoms: C_13  and  C_30
REMARK    5  A    between atoms: C_15  and  N_16
REMARK    6  A    between atoms: C_17  and  C_19
REMARK    7  A    between atoms: N_21  and  C_22
REMARK    8  A    between atoms: C_22  and  C_23
REMARK    9  A    between atoms: C_23  and  C_24
REMARK                            x       y       z     vdW  Elec       q    Type
REMARK                         _______ _______ _______ _____ _____    ______ ____
ROOT
ATOM      1  C   UNL     1      -0.647  -5.833  -0.045  0.00  0.00    +0.104 C 
ENDROOT
BRANCH   1   2
ATOM      2  C   UNL     1      -0.451  -6.551  -1.356  0.00  0.00    -0.025 A 
ATOM      3  C   UNL     1       0.821  -6.695  -1.879  0.00  0.00    +0.009 A 
ATOM      4  C   UNL     1       1.006  -7.353  -3.081  0.00  0.00    +0.050 A 
ATOM      5  C   UNL     1      -0.083  -7.868  -3.765  0.00  0.00    +0.166 A 
ATOM      6  C   UNL     1      -1.364  -7.722  -3.238  0.00  0.00    +0.167 A 
ATOM      7  C   UNL     1      -1.541  -7.067  -2.030  0.00  0.00    +0.054 A 
ATOM      8  O   UNL     1      -2.255  -8.309  -4.089  0.00  0.00    -0.453 OA
ATOM      9  C   UNL     1      -1.554  -8.456  -5.338  0.00  0.00    +0.466 C 
ATOM     10  O   UNL     1      -0.172  -8.546  -4.946  0.00  0.00    -0.453 OA
ENDBRANCH   1   2
BRANCH   1  14
ATOM     11  N   UNL     1       1.058  -2.006   0.200  0.00  0.00    -0.325 N 
ATOM     12  C   UNL     1       1.174  -2.867   1.387  0.00  0.00    +0.120 C 
ATOM     13  C   UNL     1       0.111  -3.966   1.297  0.00  0.00    +0.104 C 
ATOM     14  N   UNL     1       0.239  -4.663   0.010  0.00  0.00    -0.291 NA
ATOM     15  C   UNL     1      -0.017  -3.755  -1.115  0.00  0.00    +0.104 C 
ATOM     16  C   UNL     1       1.035  -2.647  -1.124  0.00  0.00    +0.120 C 
BRANCH  11  21
ATOM     17  C   UNL     1      -0.362   1.364   0.576  0.00  0.00    +0.002 A 
ATOM     18  C   UNL     1       0.786   2.134   0.576  0.00  0.00    +0.003 A 
ATOM     19  C   UNL     1       2.026   1.534   0.452  0.00  0.00    +0.040 A 
ATOM     20  C   UNL     1       2.120   0.160   0.327  0.00  0.00    +0.144 A 
ATOM     21  C   UNL     1       0.967  -0.617   0.326  0.00  0.00    +0.065 A 
ATOM     22  C   UNL     1      -0.275  -0.009   0.451  0.00  0.00    +0.026 A 
ATOM     23  F   UNL     1       3.331  -0.426   0.206  0.00  0.00    -0.204 F 
ENDBRANCH  11  21
ENDBRANCH   1  14
BRANCH   1  24
ATOM     24  C   UNL     1      -0.314  -6.781   1.109  0.00  0.00    +0.128 C 
BRANCH  24  25
ATOM     25  N   UNL     1      -1.256  -7.903   1.107  0.00  0.00    -0.306 N 
ATOM     26  C   UNL     1      -1.208  -8.824   2.090  0.00  0.00    +0.299 C 
ATOM     27  O   UNL     1      -0.385  -8.724   2.976  0.00  0.00    -0.265 OA
ATOM     28  H   UNL     1      -1.913  -7.983   0.399  0.00  0.00    +0.149 HD
BRANCH  26  29
ATOM     29  C   UNL     1      -2.169  -9.969   2.088  0.00  0.00    +0.299 C 
ATOM     30  O   UNL     1      -2.991 -10.069   1.202  0.00  0.00    -0.265 OA
ATOM     31  N   UNL     1      -2.121 -10.890   3.071  0.00  0.00    -0.307 N 
ATOM     32  H   UNL     1      -1.464 -10.810   3.779  0.00  0.00    +0.149 HD
BRANCH  31  33
ATOM     33  C   UNL     1      -3.063 -12.012   3.069  0.00  0.00    +0.109 C 
BRANCH  33  34
ATOM     34  C   UNL     1      -2.796 -12.904   4.284  0.00  0.00    +0.049 C 
BRANCH  34  35
ATOM     35  C   UNL     1      -3.765 -14.058   4.282  0.00  0.00    -0.072 C 
ATOM     36  C   UNL     1      -3.377 -15.175   3.756  0.00  0.00    -0.028 C 
ATOM     37  C   UNL     1      -4.231 -16.407   3.672  0.00  0.00    +0.027 C 
ATOM     38  C   UNL     1      -5.411 -16.297   4.639  0.00  0.00    +0.004 C 
ATOM     39  C   UNL     1      -6.085 -14.935   4.430  0.00  0.00    +0.005 C 
ATOM     40  C   UNL     1      -5.118 -13.843   4.895  0.00  0.00    +0.030 C 
ENDBRANCH  34  35
ENDBRANCH  33  34
ENDBRANCH  31  33
ENDBRANCH  26  29
ENDBRANCH  24  25
ENDBRANCH   1  24
TORSDOF 9
