REMARK  Name = ZINC34689639
REMARK  8 active torsions:
REMARK  status: ('A' for Active; 'I' for Inactive)
REMARK    1  A    between atoms: C_2  and  C_3
REMARK    2  A    between atoms: C_3  and  N_4
REMARK    3  A    between atoms: N_7  and  C_10
REMARK    4  A    between atoms: C_13  and  N_16
REMARK    5  A    between atoms: C_17  and  C_19
REMARK    6  A    between atoms: C_19  and  S_20
REMARK    7  A    between atoms: S_20  and  C_21
REMARK    8  A    between atoms: C_24  and  C_26
REMARK                            x       y       z     vdW  Elec       q    Type
REMARK                         _______ _______ _______ _____ _____    ______ ____
ROOT
ATOM      1  N   UNL     1       6.756   7.008  -3.657  0.00  0.00    -0.285 N 
ATOM      2  C   UNL     1       6.947   6.821  -4.978  0.00  0.00    +0.228 C 
ATOM      3  O   UNL     1       6.362   5.929  -5.556  0.00  0.00    -0.275 OA
ATOM      4  H   UNL     1       7.162   7.767  -3.211  0.00  0.00    +0.155 HD
ENDROOT
BRANCH   1   8
ATOM      5  C   UNL     1       4.419   4.318  -1.488  0.00  0.00    +0.030 A 
ATOM      6  C   UNL     1       5.207   3.864  -2.538  0.00  0.00    +0.025 A 
ATOM      7  C   UNL     1       5.981   4.755  -3.256  0.00  0.00    +0.025 A 
ATOM      8  C   UNL     1       5.970   6.104  -2.929  0.00  0.00    +0.034 A 
ATOM      9  C   UNL     1       5.183   6.558  -1.879  0.00  0.00    +0.025 A 
ATOM     10  C   UNL     1       4.404   5.669  -1.165  0.00  0.00    +0.025 A 
BRANCH   5  14
ATOM     11  N   UNL     1       2.955   1.526   1.170  0.00  0.00    -0.289 NA
ATOM     12  C   UNL     1       3.204   2.913   1.585  0.00  0.00    +0.104 C 
ATOM     13  C   UNL     1       2.880   3.856   0.422  0.00  0.00    +0.120 C 
ATOM     14  N   UNL     1       3.635   3.416  -0.761  0.00  0.00    -0.327 N 
ATOM     15  C   UNL     1       3.545   2.003  -1.159  0.00  0.00    +0.120 C 
ATOM     16  C   UNL     1       3.843   1.133   0.067  0.00  0.00    +0.104 C 
BRANCH  11  17
ATOM     17  C   UNL     1       3.089   0.604   2.306  0.00  0.00    +0.173 C 
BRANCH  17  19
ATOM     18  C   UNL     1       1.179   1.098   4.070  0.00  0.00    +0.005 C 
ATOM     19  C   UNL     1       2.026   0.879   3.288  0.00  0.00    -0.090 C 
ENDBRANCH  17  19
ENDBRANCH  11  17
ENDBRANCH   5  14
ENDBRANCH   1   8
BRANCH   2  20
ATOM     20  C   UNL     1       7.889   7.720  -5.737  0.00  0.00    +0.175 C 
BRANCH  20  21
ATOM     21  S   UNL     1       7.931   7.218  -7.480  0.00  0.00    -0.056 S 
BRANCH  21  22
ATOM     22  C   UNL     1       9.059   8.350  -8.222  0.00  0.00    +0.278 A 
ATOM     23  N   UNL     1       9.706   9.316  -7.612  0.00  0.00    -0.101 NA
ATOM     24  N   UNL     1      10.442   9.942  -8.461  0.00  0.00    -0.106 NA
ATOM     25  C   UNL     1      10.296   9.401  -9.646  0.00  0.00    +0.250 A 
ATOM     26  O   UNL     1       9.422   8.378  -9.519  0.00  0.00    -0.411 OA
BRANCH  25  27
ATOM     27  C   UNL     1      10.968   9.828 -10.890  0.00  0.00    +0.052 A 
ATOM     28  C   UNL     1      10.713   9.160 -12.090  0.00  0.00    +0.014 A 
ATOM     29  C   UNL     1      11.343   9.564 -13.248  0.00  0.00    +0.001 A 
ATOM     30  C   UNL     1      12.228  10.627 -13.224  0.00  0.00    +0.001 A 
ATOM     31  C   UNL     1      12.487  11.293 -12.040  0.00  0.00    +0.016 A 
ATOM     32  C   UNL     1      11.858  10.905 -10.874  0.00  0.00    +0.030 A 
ATOM     33 BR   UNL     1      12.207  11.821  -9.257  0.00  0.00    -0.050 Br
ENDBRANCH  25  27
ENDBRANCH  21  22
ENDBRANCH  20  21
ENDBRANCH   2  20
TORSDOF 8
