REMARK  Name = ZINC36500651
REMARK  9 active torsions:
REMARK  status: ('A' for Active; 'I' for Inactive)
REMARK    1  A    between atoms: C_3  and  O_35
REMARK    2  A    between atoms: C_4  and  C_8
REMARK    3  A    between atoms: C_5  and  O_7
REMARK    4  A    between atoms: N_10  and  C_11
REMARK    5  A    between atoms: N_10  and  C_17
REMARK    6  A    between atoms: C_11  and  C_12
REMARK    7  A    between atoms: C_17  and  C_19
REMARK    8  A    between atoms: C_17  and  C_26
REMARK    9  A    between atoms: N_28  and  C_29
REMARK                            x       y       z     vdW  Elec       q    Type
REMARK                         _______ _______ _______ _____ _____    ______ ____
ROOT
ATOM      1  C   UNL     1       4.072  -0.255   0.228  0.00  0.00    +0.255 C 
ATOM      2  O   UNL     1       4.911   0.610   0.391  0.00  0.00    -0.270 OA
ATOM      3  N   UNL     1       4.422  -1.441  -0.309  0.00  0.00    -0.274 N 
ENDROOT
BRANCH   1   7
ATOM      4  C   UNL     1       0.035   0.461   1.349  0.00  0.00    +0.007 A 
ATOM      5  C   UNL     1       0.459   0.775   0.071  0.00  0.00    +0.046 A 
ATOM      6  C   UNL     1       1.772   0.545  -0.305  0.00  0.00    +0.133 A 
ATOM      7  C   UNL     1       2.674  -0.007   0.616  0.00  0.00    +0.119 A 
ATOM      8  C   UNL     1       2.234  -0.321   1.910  0.00  0.00    +0.133 A 
ATOM      9  C   UNL     1       0.916  -0.084   2.265  0.00  0.00    +0.046 A 
BRANCH   8  10
ATOM     10  O   UNL     1       3.095  -0.856   2.811  0.00  0.00    -0.506 OA
ATOM     11  H   UNL     1       3.565  -0.200   3.344  0.00  0.00    +0.292 HD
ENDBRANCH   8  10
BRANCH   6  12
ATOM     12  O   UNL     1       2.185   0.854  -1.560  0.00  0.00    -0.506 OA
ATOM     13  H   UNL     1       2.524   1.755  -1.653  0.00  0.00    +0.292 HD
ENDBRANCH   6  12
ENDBRANCH   1   7
BRANCH   3  14
ATOM     14  C   UNL     1       3.411  -2.483  -0.505  0.00  0.00    +0.183 C 
BRANCH  14  15
ATOM     15  C   UNL     1       2.610  -2.178  -1.745  0.00  0.00    +0.122 A 
ATOM     16  C   UNL     1       2.806  -2.718  -2.961  0.00  0.00    +0.046 A 
ATOM     17  C   UNL     1       1.837  -2.153  -3.821  0.00  0.00    +0.041 A 
ATOM     18  C   UNL     1       1.106  -1.302  -3.080  0.00  0.00    +0.195 A 
ATOM     19  O   UNL     1       1.575  -1.325  -1.821  0.00  0.00    -0.466 OA
ENDBRANCH  14  15
ENDBRANCH   3  14
BRANCH   3  20
ATOM     20  C   UNL     1       5.813  -1.688  -0.695  0.00  0.00    +0.193 C 
BRANCH  20  21
ATOM     21  C   UNL     1       6.199  -0.750  -1.810  0.00  0.00    -0.018 A 
ATOM     22  C   UNL     1       5.368  -0.597  -2.903  0.00  0.00    +0.007 A 
ATOM     23  C   UNL     1       5.721   0.264  -3.925  0.00  0.00    +0.020 A 
ATOM     24  C   UNL     1       6.908   0.972  -3.854  0.00  0.00    +0.041 A 
ATOM     25  C   UNL     1       7.740   0.818  -2.759  0.00  0.00    +0.020 A 
ATOM     26  C   UNL     1       7.382  -0.038  -1.735  0.00  0.00    +0.007 A 
ATOM     27 CL   UNL     1       7.353   2.052  -5.138  0.00  0.00    -0.084 Cl
ENDBRANCH  20  21
BRANCH  20  28
ATOM     28  C   UNL     1       5.958  -3.113  -1.165  0.00  0.00    +0.238 C 
ATOM     29  O   UNL     1       5.152  -3.581  -1.941  0.00  0.00    -0.273 OA
ATOM     30  N   UNL     1       6.984  -3.867  -0.723  0.00  0.00    -0.311 N 
ATOM     31  H   UNL     1       7.629  -3.493  -0.102  0.00  0.00    +0.149 HD
BRANCH  30  32
ATOM     32  C   UNL     1       7.126  -5.252  -1.180  0.00  0.00    +0.073 C 
ATOM     33  C   UNL     1       6.267  -6.167  -0.305  0.00  0.00    +0.022 C 
ATOM     34  C   UNL     1       6.415  -7.614  -0.782  0.00  0.00    +0.002 C 
ATOM     35  C   UNL     1       7.881  -8.038  -0.678  0.00  0.00    +0.000 C 
ATOM     36  C   UNL     1       8.739  -7.122  -1.554  0.00  0.00    +0.002 C 
ATOM     37  C   UNL     1       8.592  -5.676  -1.077  0.00  0.00    +0.022 C 
ENDBRANCH  30  32
ENDBRANCH  20  28
ENDBRANCH   3  20
TORSDOF 9
