REMARK  Name = ZINC17250670
REMARK  7 active torsions:
REMARK  status: ('A' for Active; 'I' for Inactive)
REMARK    1  A    between atoms: C_1  and  C_2
REMARK    2  A    between atoms: N_5  and  S_11
REMARK    3  A    between atoms: C_7  and  C_10
REMARK    4  A    between atoms: S_11  and  C_14
REMARK    5  A    between atoms: C_18  and  C_20
REMARK    6  A    between atoms: N_24  and  N_25
REMARK    7  A    between atoms: C_26  and  C_27
REMARK                            x       y       z     vdW  Elec       q    Type
REMARK                         _______ _______ _______ _____ _____    ______ ____
ROOT
ATOM      1  C   UNL     1      -1.152  -3.408  -2.154  0.00  0.00    +0.106 A 
ATOM      2  C   UNL     1      -1.135  -2.614  -3.287  0.00  0.00    +0.028 A 
ATOM      3  C   UNL     1      -0.296  -2.923  -4.342  0.00  0.00    +0.003 A 
ATOM      4  C   UNL     1       0.531  -4.025  -4.271  0.00  0.00    +0.010 A 
ATOM      5  C   UNL     1       0.519  -4.830  -3.131  0.00  0.00    +0.001 A 
ATOM      6  C   UNL     1      -0.326  -4.510  -2.067  0.00  0.00    +0.038 A 
ENDROOT
BRANCH   5   7
ATOM      7  C   UNL     1       1.402  -6.013  -3.048  0.00  0.00    +0.055 A 
ATOM      8  C   UNL     1       1.387  -6.795  -1.947  0.00  0.00    +0.075 A 
ATOM      9  S   UNL     1       2.600  -8.040  -2.358  0.00  0.00    -0.056 S 
ATOM     10  C   UNL     1       3.045  -7.427  -3.975  0.00  0.00    +0.192 A 
ATOM     11  N   UNL     1       3.922  -7.912  -4.842  0.00  0.00    -0.124 NA
ATOM     12  N   UNL     1       2.234  -6.324  -4.086  0.00  0.00    -0.332 N 
ATOM     13  H   UNL     1       2.254  -5.774  -4.885  0.00  0.00    +0.168 HD
BRANCH  11  14
ATOM     14  N   UNL     1       4.593  -8.975  -4.554  0.00  0.00    -0.155 NA
ATOM     15  C   UNL     1       5.458  -9.454  -5.409  0.00  0.00    +0.143 C 
BRANCH  15  16
ATOM     16  C   UNL     1       6.223 -10.666  -5.081  0.00  0.00    -0.005 A 
ATOM     17  C   UNL     1       6.024 -11.313  -3.857  0.00  0.00    +0.011 A 
ATOM     18  C   UNL     1       6.745 -12.449  -3.556  0.00  0.00    +0.020 A 
ATOM     19  C   UNL     1       7.665 -12.950  -4.463  0.00  0.00    +0.041 A 
ATOM     20  C   UNL     1       7.868 -12.314  -5.677  0.00  0.00    +0.020 A 
ATOM     21  C   UNL     1       7.150 -11.181  -5.994  0.00  0.00    +0.011 A 
ATOM     22 CL   UNL     1       8.569 -14.380  -4.075  0.00  0.00    -0.084 Cl
ENDBRANCH  15  16
ENDBRANCH  11  14
ENDBRANCH   5   7
BRANCH   1  23
ATOM     23  S   UNL     1      -2.225  -3.006  -0.815  0.00  0.00    +0.061 S 
ATOM     24  O   UNL     1      -2.443  -4.211  -0.094  0.00  0.00    -0.153 OA
ATOM     25  O   UNL     1      -3.290  -2.243  -1.363  0.00  0.00    -0.153 OA
BRANCH  23  29
ATOM     26  C   UNL     1      -0.019   1.526   0.010  0.00  0.00    +0.039 C 
ATOM     27  C   UNL     1       0.002  -0.004   0.002  0.00  0.00    +0.131 C 
ATOM     28  C   UNL     1      -1.436  -0.536   0.015  0.00  0.00    +0.140 C 
ATOM     29  N   UNL     1      -1.389  -1.995   0.196  0.00  0.00    -0.172 NA
ATOM     30  C   UNL     1      -0.578  -2.530   1.302  0.00  0.00    +0.140 C 
ATOM     31  C   UNL     1       0.818  -1.901   1.226  0.00  0.00    +0.131 C 
ATOM     32  O   UNL     1       0.691  -0.479   1.161  0.00  0.00    -0.371 OA
ATOM     33  C   UNL     1       1.621  -2.288   2.469  0.00  0.00    +0.039 C 
ENDBRANCH  23  29
ENDBRANCH   1  23
TORSDOF 5
