REMARK  Name = ZINC08442318
REMARK  8 active torsions:
REMARK  status: ('A' for Active; 'I' for Inactive)
REMARK    1  A    between atoms: C_1  and  C_2
REMARK    2  A    between atoms: C_2  and  O_3
REMARK    3  A    between atoms: O_3  and  C_4
REMARK    4  A    between atoms: C_4  and  C_6
REMARK    5  A    between atoms: C_6  and  C_31
REMARK    6  A    between atoms: C_11  and  C_28
REMARK    7  A    between atoms: C_14  and  C_25
REMARK    8  A    between atoms: C_16  and  C_18
REMARK                            x       y       z     vdW  Elec       q    Type
REMARK                         _______ _______ _______ _____ _____    ______ ____
ROOT
ATOM      1  C   UNL     1       1.266  -0.075  -0.896  0.00  0.00    +0.184 C 
ATOM      2  C   UNL     1       2.019   1.227  -0.576  0.00  0.00    +0.128 C 
ATOM      3  C   UNL     1       3.179   0.967   0.352  0.00  0.00    -0.002 C 
ATOM      4  C   UNL     1       3.494   1.882   1.264  0.00  0.00    +0.012 C 
ATOM      5  C   UNL     1       2.735   3.145   1.379  0.00  0.00    +0.050 C 
ATOM      6  C   UNL     1       1.484   3.226   0.811  0.00  0.00    +0.084 C 
ATOM      7  N   UNL     1       1.075   2.107   0.142  0.00  0.00    -0.314 N 
ATOM      8  C   UNL     1      -0.266   1.525   0.052  0.00  0.00    +0.169 C 
ATOM      9  C   UNL     1       0.002  -0.004   0.002  0.00  0.00    +0.081 C 
ENDROOT
BRANCH   9  10
ATOM     10  C   UNL     1       0.286  -0.547   1.379  0.00  0.00    -0.039 A 
ATOM     11  C   UNL     1       1.151   0.126   2.222  0.00  0.00    +0.004 A 
ATOM     12  C   UNL     1       1.408  -0.369   3.487  0.00  0.00    +0.001 A 
ATOM     13  C   UNL     1       0.809  -1.543   3.905  0.00  0.00    +0.014 A 
ATOM     14  C   UNL     1      -0.052  -2.219   3.059  0.00  0.00    +0.014 A 
ATOM     15  C   UNL     1      -0.313  -1.720   1.796  0.00  0.00    +0.018 A 
ATOM     16  I   UNL     1      -0.960  -3.998   3.692  0.00  0.00    -0.044 I 
ENDBRANCH   9  10
BRANCH   8  17
ATOM     17  C   UNL     1      -1.081   1.881   1.268  0.00  0.00    +0.232 C 
ATOM     18  O   UNL     1      -0.536   2.334   2.252  0.00  0.00    -0.274 OA
ATOM     19  N   UNL     1      -2.416   1.696   1.263  0.00  0.00    -0.328 N 
ATOM     20  H   UNL     1      -2.852   1.333   0.476  0.00  0.00    +0.145 HD
ATOM     21  H   UNL     1      -2.941   1.925   2.046  0.00  0.00    +0.145 HD
ENDBRANCH   8  17
BRANCH   5  22
ATOM     22  C   UNL     1       3.307   4.295   2.086  0.00  0.00    +0.243 C 
ATOM     23  O   UNL     1       2.674   5.331   2.175  0.00  0.00    -0.270 OA
ATOM     24  N   UNL     1       4.533   4.205   2.639  0.00  0.00    -0.325 N 
ATOM     25  H   UNL     1       5.037   3.380   2.568  0.00  0.00    +0.145 HD
ATOM     26  H   UNL     1       4.911   4.966   3.107  0.00  0.00    +0.145 HD
ENDBRANCH   5  22
BRANCH   1  27
ATOM     27  C   UNL     1       2.105  -1.274  -0.534  0.00  0.00    +0.330 C 
ATOM     28  O   UNL     1       1.750  -2.015   0.352  0.00  0.00    -0.249 OA
BRANCH  27  29
ATOM     29  O   UNL     1       3.247  -1.518  -1.195  0.00  0.00    -0.464 OA
BRANCH  29  31
ATOM     30  C   UNL     1       5.264  -2.803  -1.654  0.00  0.00    +0.048 C 
ATOM     31  C   UNL     1       4.004  -2.690  -0.793  0.00  0.00    +0.229 C 
ENDBRANCH  29  31
ENDBRANCH  27  29
ENDBRANCH   1  27
BRANCH   1  32
ATOM     32  C   UNL     1       0.888  -0.118  -2.318  0.00  0.00    +0.084 C 
ATOM     33  N   UNL     1       0.596  -0.151  -3.415  0.00  0.00    -0.195 NA
ENDBRANCH   1  32
TORSDOF 7
