REMARK  Name = ZINC63453479
REMARK  11 active torsions:
REMARK  status: ('A' for Active; 'I' for Inactive)
REMARK    1  A    between atoms: C_1  and  C_2
REMARK    2  A    between atoms: C_4  and  N_8
REMARK    3  A    between atoms: C_9  and  C_11
REMARK    4  A    between atoms: C_11  and  N_12
REMARK    5  A    between atoms: N_21  and  C_24
REMARK    6  A    between atoms: C_24  and  C_25
REMARK    7  A    between atoms: C_25  and  C_26
REMARK    8  A    between atoms: C_26  and  C_27
REMARK    9  A    between atoms: N_29  and  C_30
REMARK   10  A    between atoms: C_30  and  C_31
REMARK   11  A    between atoms: C_31  and  C_32
REMARK                            x       y       z     vdW  Elec       q    Type
REMARK                         _______ _______ _______ _____ _____    ______ ____
ROOT
ATOM      1  N   UNL     1      -2.281  -6.274   1.955  0.00  0.00    -0.284 N 
ATOM      2  C   UNL     1      -3.615  -6.485   1.639  0.00  0.00    +0.059 A 
ATOM      3  C   UNL     1      -4.541  -5.454   1.668  0.00  0.00    +0.027 A 
ATOM      4  C   UNL     1      -5.860  -5.707   1.347  0.00  0.00    +0.002 A 
ATOM      5  C   UNL     1      -6.269  -6.985   0.995  0.00  0.00    +0.001 A 
ATOM      6  C   UNL     1      -5.362  -8.023   0.961  0.00  0.00    +0.015 A 
ATOM      7  C   UNL     1      -4.029  -7.781   1.282  0.00  0.00    +0.063 A 
ATOM      8  C   UNL     1      -3.018  -8.854   1.261  0.00  0.00    +0.264 A 
ATOM      9  O   UNL     1      -3.323  -9.992   0.959  0.00  0.00    -0.267 OA
ATOM     10  N   UNL     1      -1.745  -8.541   1.586  0.00  0.00    -0.260 N 
ATOM     11  C   UNL     1      -1.399  -7.287   1.915  0.00  0.00    +0.333 A 
ATOM     12  O   UNL     1      -0.238  -7.058   2.195  0.00  0.00    -0.246 OA
ENDROOT
BRANCH   1  13
ATOM     13  C   UNL     1      -1.828  -4.931   2.329  0.00  0.00    +0.222 C 
BRANCH  13  15
ATOM     14  N   UNL     1      -0.946  -2.918   1.194  0.00  0.00    -0.288 N 
ATOM     15  C   UNL     1      -1.402  -4.182   1.093  0.00  0.00    +0.235 C 
ATOM     16  O   UNL     1      -1.470  -4.717   0.006  0.00  0.00    -0.274 OA
ATOM     17  H   UNL     1      -0.891  -2.491   2.063  0.00  0.00    +0.151 HD
BRANCH  14  21
ATOM     18  C   UNL     1      -0.018   1.503   0.010  0.00  0.00    +0.067 C 
ATOM     19  C   UNL     1       0.002  -0.004   0.002  0.00  0.00    +0.060 C 
ATOM     20  C   UNL     1      -1.086  -0.777   0.003  0.00  0.00    +0.045 C 
ATOM     21  C   UNL     1      -0.531  -2.190  -0.007  0.00  0.00    +0.239 C 
ATOM     22  N   UNL     1       0.926  -1.973  -0.013  0.00  0.00    -0.160 NA
ATOM     23  N   UNL     1       1.125  -0.756  -0.013  0.00  0.00    -0.157 NA
ENDBRANCH  14  21
ENDBRANCH  13  15
ENDBRANCH   1  13
BRANCH  10  24
ATOM     24  C   UNL     1      -0.722  -9.589   1.574  0.00  0.00    +0.130 C 
BRANCH  24  25
ATOM     25  C   UNL     1      -0.084  -9.664   0.185  0.00  0.00    +0.031 C 
BRANCH  25  26
ATOM     26  C   UNL     1       0.984 -10.759   0.173  0.00  0.00    +0.097 C 
BRANCH  26  27
ATOM     27  C   UNL     1       1.612 -10.832  -1.195  0.00  0.00    +0.213 C 
ATOM     28  O   UNL     1       1.242 -10.082  -2.073  0.00  0.00    -0.276 OA
ATOM     29  N   UNL     1       2.586 -11.730  -1.442  0.00  0.00    -0.315 N 
ATOM     30  H   UNL     1       2.882 -12.330  -0.740  0.00  0.00    +0.149 HD
BRANCH  29  31
ATOM     31  C   UNL     1       3.197 -11.801  -2.772  0.00  0.00    +0.109 C 
BRANCH  31  32
ATOM     32  C   UNL     1       4.265 -12.896  -2.785  0.00  0.00    +0.054 C 
BRANCH  32  33
ATOM     33  C   UNL     1       4.894 -12.969  -4.153  0.00  0.00    -0.046 A 
ATOM     34  C   UNL     1       4.354 -13.799  -5.117  0.00  0.00    +0.005 A 
ATOM     35  C   UNL     1       4.929 -13.866  -6.372  0.00  0.00    +0.020 A 
ATOM     36  C   UNL     1       6.046 -13.103  -6.662  0.00  0.00    +0.041 A 
ATOM     37  C   UNL     1       6.586 -12.273  -5.696  0.00  0.00    +0.020 A 
ATOM     38  C   UNL     1       6.006 -12.202  -4.444  0.00  0.00    +0.005 A 
ATOM     39 CL   UNL     1       6.771 -13.188  -8.238  0.00  0.00    -0.084 Cl
ENDBRANCH  32  33
ENDBRANCH  31  32
ENDBRANCH  29  31
ENDBRANCH  26  27
ENDBRANCH  25  26
ENDBRANCH  24  25
ENDBRANCH  10  24
TORSDOF 10
