REMARK  Name = ZINC35636092
REMARK  8 active torsions:
REMARK  status: ('A' for Active; 'I' for Inactive)
REMARK    1  A    between atoms: C_1  and  C_2
REMARK    2  A    between atoms: C_2  and  N_3
REMARK    3  A    between atoms: C_6  and  C_11
REMARK    4  A    between atoms: C_15  and  N_17
REMARK    5  A    between atoms: N_22  and  C_24
REMARK    6  A    between atoms: C_24  and  C_26
REMARK    7  A    between atoms: C_24  and  C_33
REMARK    8  A    between atoms: C_26  and  C_27
REMARK                            x       y       z     vdW  Elec       q    Type
REMARK                         _______ _______ _______ _____ _____    ______ ____
ROOT
ATOM      1  N   UNL     1      -2.156  -0.420  -0.108  0.00  0.00    -0.257 N 
ATOM      2  C   UNL     1      -2.548  -0.688   1.172  0.00  0.00    +0.042 C 
ATOM      3  C   UNL     1      -3.748  -1.245   1.433  0.00  0.00    +0.058 C 
ATOM      4  C   UNL     1      -4.648  -1.564   0.257  0.00  0.00    +0.142 C 
ATOM      5  N   UNL     1      -4.134  -1.237  -1.084  0.00  0.00    -0.288 N 
ATOM      6  C   UNL     1      -2.912  -0.676  -1.184  0.00  0.00    +0.307 C 
ATOM      7  O   UNL     1      -2.481  -0.399  -2.286  0.00  0.00    -0.252 OA
ATOM      8  C   UNL     1      -3.915  -1.420   2.822  0.00  0.00    +0.247 C 
ATOM      9  O   UNL     1      -4.906  -1.902   3.341  0.00  0.00    -0.270 OA
ATOM     10  N   UNL     1      -2.837  -0.986   3.500  0.00  0.00    -0.280 N 
ATOM     11  C   UNL     1      -1.874  -0.482   2.510  0.00  0.00    +0.160 C 
ATOM     12  H   UNL     1      -4.663  -1.417  -1.876  0.00  0.00    +0.151 HD
ENDROOT
BRANCH   4  13
ATOM     13  C   UNL     1      -5.946  -0.822   0.450  0.00  0.00    -0.020 A 
ATOM     14  C   UNL     1      -6.030   0.519   0.124  0.00  0.00    +0.006 A 
ATOM     15  C   UNL     1      -7.220   1.200   0.301  0.00  0.00    +0.003 A 
ATOM     16  C   UNL     1      -8.326   0.540   0.803  0.00  0.00    +0.033 A 
ATOM     17  C   UNL     1      -8.242  -0.801   1.127  0.00  0.00    +0.127 A 
ATOM     18  C   UNL     1      -7.053  -1.483   0.947  0.00  0.00    +0.038 A 
BRANCH  17  19
ATOM     19  N   UNL     1      -9.426  -1.508   1.665  0.00  0.00    +0.056 N 
ATOM     20  O   UNL     1     -10.466  -0.912   1.821  0.00  0.00    -0.126 OA
ATOM     21  O   UNL     1      -9.352  -2.681   1.949  0.00  0.00    -0.126 OA
ENDBRANCH  17  19
ENDBRANCH   4  13
BRANCH   1  23
ATOM     22  C   UNL     1      -0.968   1.710  -0.288  0.00  0.00    +0.025 C 
ATOM     23  C   UNL     1      -0.838   0.186  -0.317  0.00  0.00    +0.111 C 
ENDBRANCH   1  23
BRANCH  10  24
ATOM     24  C   UNL     1      -2.657  -1.009   4.954  0.00  0.00    +0.167 C 
BRANCH  24  25
ATOM     25  C   UNL     1      -3.741  -0.191   5.608  0.00  0.00    +0.237 C 
ATOM     26  O   UNL     1      -4.778   0.024   5.018  0.00  0.00    -0.274 OA
ATOM     27  N   UNL     1      -3.556   0.303   6.848  0.00  0.00    -0.296 N 
ATOM     28  C   UNL     1      -2.263   0.160   7.536  0.00  0.00    +0.136 C 
ATOM     29  C   UNL     1      -1.837   1.538   8.055  0.00  0.00    +0.179 C 
ATOM     30  O   UNL     1      -2.904   2.103   8.820  0.00  0.00    -0.377 OA
ATOM     31  C   UNL     1      -4.100   2.339   8.073  0.00  0.00    +0.179 C 
ATOM     32  C   UNL     1      -4.640   1.007   7.552  0.00  0.00    +0.136 C 
ENDBRANCH  24  25
BRANCH  24  33
ATOM     33  C   UNL     1      -2.737  -2.453   5.454  0.00  0.00    +0.067 C 
BRANCH  33  34
ATOM     34  C   UNL     1      -1.568  -3.237   4.915  0.00  0.00    -0.045 A 
ATOM     35  C   UNL     1      -1.674  -3.890   3.702  0.00  0.00    +0.004 A 
ATOM     36  C   UNL     1      -0.602  -4.609   3.207  0.00  0.00    +0.000 A 
ATOM     37  C   UNL     1       0.577  -4.674   3.926  0.00  0.00    +0.000 A 
ATOM     38  C   UNL     1       0.683  -4.020   5.139  0.00  0.00    +0.000 A 
ATOM     39  C   UNL     1      -0.387  -3.298   5.632  0.00  0.00    +0.004 A 
ENDBRANCH  33  34
ENDBRANCH  24  33
ENDBRANCH  10  24
TORSDOF 7
