REMARK  Name = ZINC09078286
REMARK  10 active torsions:
REMARK  status: ('A' for Active; 'I' for Inactive)
REMARK    1  A    between atoms: C_1  and  C_2
REMARK    2  A    between atoms: C_2  and  O_3
REMARK    3  A    between atoms: O_3  and  C_4
REMARK    4  A    between atoms: C_4  and  C_6
REMARK    5  A    between atoms: C_6  and  N_7
REMARK    6  A    between atoms: C_11  and  S_29
REMARK    7  A    between atoms: N_16  and  C_17
REMARK    8  A    between atoms: C_17  and  C_19
REMARK    9  A    between atoms: C_21  and  N_26
REMARK   10  A    between atoms: S_29  and  C_32
REMARK                            x       y       z     vdW  Elec       q    Type
REMARK                         _______ _______ _______ _____ _____    ______ ____
ROOT
ATOM      1  N   UNL     1      -3.687   7.002  -0.075  0.00  0.00    -0.310 N 
ATOM      2  C   UNL     1      -4.968   7.224  -0.544  0.00  0.00    +0.058 A 
ATOM      3  C   UNL     1      -5.561   8.441  -0.918  0.00  0.00    +0.029 A 
ATOM      4  C   UNL     1      -6.861   8.483  -1.361  0.00  0.00    +0.029 A 
ATOM      5  C   UNL     1      -7.625   7.332  -1.454  0.00  0.00    +0.089 A 
ATOM      6  C   UNL     1      -7.067   6.119  -1.092  0.00  0.00    +0.044 A 
ATOM      7  C   UNL     1      -5.767   6.076  -0.648  0.00  0.00    +0.041 A 
ATOM      8  S   UNL     1      -4.687   4.779  -0.098  0.00  0.00    -0.052 S 
ATOM      9  C   UNL     1      -3.284   5.741   0.236  0.00  0.00    +0.167 A 
ATOM     10  N   UNL     1      -2.101   5.343   0.692  0.00  0.00    -0.152 NA
ENDROOT
BRANCH   5  11
ATOM     11  S   UNL     1      -9.291   7.412  -2.025  0.00  0.00    -0.006 S 
ATOM     12  O   UNL     1      -9.930   6.287  -1.437  0.00  0.00    -0.170 OA
ATOM     13  O   UNL     1      -9.717   8.731  -1.715  0.00  0.00    -0.170 OA
ATOM     14  C   UNL     1      -9.178   7.198  -3.822  0.00  0.00    +0.200 C 
ENDBRANCH   5  11
BRANCH  10  15
ATOM     15  C   UNL     1      -1.885   4.049   0.951  0.00  0.00    +0.271 C 
ATOM     16  O   UNL     1      -2.774   3.235   0.768  0.00  0.00    -0.268 OA
BRANCH  15  17
ATOM     17  C   UNL     1      -0.567   3.605   1.459  0.00  0.00    +0.059 A 
ATOM     18  C   UNL     1       0.452   4.535   1.669  0.00  0.00    +0.047 A 
ATOM     19  C   UNL     1       1.677   4.115   2.142  0.00  0.00    +0.127 A 
ATOM     20  C   UNL     1       1.899   2.776   2.409  0.00  0.00    +0.034 A 
ATOM     21  C   UNL     1       0.894   1.848   2.203  0.00  0.00    +0.023 A 
ATOM     22  C   UNL     1      -0.337   2.254   1.724  0.00  0.00    +0.053 A 
ATOM     23 CL   UNL     1      -1.595   1.089   1.459  0.00  0.00    -0.083 Cl
BRANCH  19  24
ATOM     24  N   UNL     1       2.759   5.101   2.364  0.00  0.00    +0.056 N 
ATOM     25  O   UNL     1       3.843   4.732   2.781  0.00  0.00    -0.126 OA
ATOM     26  O   UNL     1       2.566   6.280   2.130  0.00  0.00    -0.126 OA
ENDBRANCH  19  24
ENDBRANCH  15  17
ENDBRANCH  10  15
BRANCH   1  27
ATOM     27  C   UNL     1      -2.760   8.126   0.082  0.00  0.00    +0.244 C 
BRANCH  27  28
ATOM     28  C   UNL     1      -1.983   7.961   1.362  0.00  0.00    +0.327 C 
ATOM     29  O   UNL     1      -2.292   7.098   2.149  0.00  0.00    -0.249 OA
BRANCH  28  30
ATOM     30  O   UNL     1      -0.948   8.773   1.629  0.00  0.00    -0.464 OA
BRANCH  30  32
ATOM     31  C   UNL     1       0.894   9.570   3.008  0.00  0.00    +0.048 C 
ATOM     32  C   UNL     1      -0.245   8.556   2.881  0.00  0.00    +0.229 C 
ENDBRANCH  30  32
ENDBRANCH  28  30
ENDBRANCH  27  28
ENDBRANCH   1  27
TORSDOF 8
