REMARK  Name = ZINC09354189
REMARK  15 active torsions:
REMARK  status: ('A' for Active; 'I' for Inactive)
REMARK    1  A    between atoms: C_1  and  C_2
REMARK    2  A    between atoms: C_2  and  N_72
REMARK    3  A    between atoms: C_3  and  C_4
REMARK    4  A    between atoms: C_3  and  N_72
REMARK    5  A    between atoms: C_5  and  C_6
REMARK    6  A    between atoms: C_5  and  N_72
REMARK    7  A    between atoms: C_6  and  N_7
REMARK    8  A    between atoms: C_8  and  C_32
REMARK    9  A    between atoms: C_11  and  C_12
REMARK   10  A    between atoms: C_11  and  O_27
REMARK   11  A    between atoms: C_15  and  O_19
REMARK   12  A    between atoms: C_17  and  C_18
REMARK   13  A    between atoms: O_19  and  C_20
REMARK   14  A    between atoms: C_20  and  C_21
REMARK   15  A    between atoms: C_35  and  O_38
REMARK                            x       y       z     vdW  Elec       q    Type
REMARK                         _______ _______ _______ _____ _____    ______ ____
ROOT
ATOM      1  N   UNL     1      -0.745   5.022   1.835  0.00  0.00    -0.285 N 
ATOM      2  C   UNL     1      -0.982   3.581   1.958  0.00  0.00    +0.144 C 
ATOM      3  C   UNL     1      -0.929   3.012   0.559  0.00  0.00    +0.071 C 
ATOM      4  C   UNL     1      -1.097   1.691   0.193  0.00  0.00    +0.133 C 
ATOM      5  C   UNL     1      -0.668   4.096  -0.293  0.00  0.00    +0.249 C 
ATOM      6  O   UNL     1      -0.548   4.039  -1.504  0.00  0.00    -0.282 OA
ATOM      7  C   UNL     1      -0.566   5.326   0.538  0.00  0.00    +0.288 C 
ATOM      8  O   UNL     1      -0.349   6.440   0.108  0.00  0.00    -0.266 OA
ENDROOT
BRANCH   4   9
ATOM      9  C   UNL     1      -1.042   1.307  -1.226  0.00  0.00    +0.020 A 
ATOM     10  C   UNL     1       0.120   1.542  -1.972  0.00  0.00    +0.015 A 
ATOM     11  C   UNL     1       0.167   1.182  -3.299  0.00  0.00    +0.046 A 
ATOM     12  C   UNL     1      -0.938   0.587  -3.900  0.00  0.00    +0.121 A 
ATOM     13  C   UNL     1      -2.091   0.346  -3.162  0.00  0.00    +0.049 A 
ATOM     14  C   UNL     1      -2.150   0.708  -1.835  0.00  0.00    -0.036 A 
ATOM     15  C   UNL     1      -3.403   0.452  -1.038  0.00  0.00    +0.044 C 
BRANCH  12  16
ATOM     16  O   UNL     1      -0.887   0.234  -5.209  0.00  0.00    -0.487 OA
BRANCH  16  17
ATOM     17  C   UNL     1       0.330   0.504  -5.907  0.00  0.00    +0.264 C 
BRANCH  17  18
ATOM     18  C   UNL     1       0.201   0.047  -7.338  0.00  0.00    -0.010 A 
ATOM     19  C   UNL     1       0.562  -1.240  -7.688  0.00  0.00    +0.007 A 
ATOM     20  C   UNL     1       0.439  -1.661  -8.999  0.00  0.00    +0.000 A 
ATOM     21  C   UNL     1      -0.035  -0.790  -9.962  0.00  0.00    +0.000 A 
ATOM     22  C   UNL     1      -0.391   0.500  -9.613  0.00  0.00    +0.000 A 
ATOM     23  C   UNL     1      -0.273   0.918  -8.301  0.00  0.00    +0.007 A 
ENDBRANCH  17  18
ENDBRANCH  16  17
ENDBRANCH  12  16
ENDBRANCH   4   9
BRANCH   2  24
ATOM     24  C   UNL     1      -2.338   3.330   2.566  0.00  0.00    -0.022 A 
ATOM     25  C   UNL     1      -3.409   4.133   2.218  0.00  0.00    +0.009 A 
ATOM     26  C   UNL     1      -4.654   3.901   2.770  0.00  0.00    +0.046 A 
ATOM     27  C   UNL     1      -4.827   2.870   3.681  0.00  0.00    +0.117 A 
ATOM     28  C   UNL     1      -3.750   2.070   4.032  0.00  0.00    +0.046 A 
ATOM     29  C   UNL     1      -2.508   2.301   3.474  0.00  0.00    +0.009 A 
BRANCH  27  30
ATOM     30  O   UNL     1      -6.050   2.643   4.229  0.00  0.00    -0.507 OA
ATOM     31  H   UNL     1      -6.210   3.130   5.049  0.00  0.00    +0.292 HD
ENDBRANCH  27  30
ENDBRANCH   2  24
BRANCH   4  32
ATOM     32  O   UNL     1      -1.312   0.751   1.138  0.00  0.00    -0.506 OA
ATOM     33  H   UNL     1      -1.411  -0.144   0.703  0.00  0.00    +0.292 HD
ENDBRANCH   4  32
BRANCH   1  34
ATOM     34  C   UNL     1      -0.708   5.977   2.945  0.00  0.00    +0.090 C 
BRANCH  34  35
ATOM     35  C   UNL     1       0.723   6.088   3.475  0.00  0.00    -0.060 C 
BRANCH  35  36
ATOM     36  N   UNL     1       0.748   7.070   4.579  0.00  0.00    +0.380 N 
ATOM     37  H   UNL     1       0.303   7.939   4.263  0.00  0.00    -0.082 HD
BRANCH  36  39
ATOM     38  C   UNL     1       0.645   5.255   6.255  0.00  0.00    -0.017 C 
ATOM     39  C   UNL     1      -0.001   6.543   5.740  0.00  0.00    -0.082 C 
ENDBRANCH  36  39
BRANCH  36  40
ATOM     40  C   UNL     1       2.144   7.359   4.968  0.00  0.00    -0.082 C 
ATOM     41  C   UNL     1       2.155   8.565   5.908  0.00  0.00    -0.017 C 
ENDBRANCH  36  40
ENDBRANCH  35  36
ENDBRANCH  34  35
ENDBRANCH   1  34
TORSDOF 12
