REMARK  Name = ZINC16570941
REMARK  6 active torsions:
REMARK  status: ('A' for Active; 'I' for Inactive)
REMARK    1  A    between atoms: C_1  and  C_2
REMARK    2  A    between atoms: C_3  and  C_14
REMARK    3  A    between atoms: C_4  and  O_13
REMARK    4  A    between atoms: N_5  and  C_7
REMARK    5  A    between atoms: C_15  and  N_30
REMARK    6  A    between atoms: N_18  and  C_21
REMARK                            x       y       z     vdW  Elec       q    Type
REMARK                         _______ _______ _______ _____ _____    ______ ____
ROOT
ATOM      1  C   UNL     1       0.032  -0.415   2.526  0.00  0.00    +0.080 C 
ATOM      2  C   UNL     1      -1.071  -0.184   3.334  0.00  0.00    +0.122 C 
ATOM      3  C   UNL     1      -0.541   0.215   4.651  0.00  0.00    +0.275 C 
ATOM      4  O   UNL     1      -1.208   0.498   5.626  0.00  0.00    -0.268 OA
ATOM      5  N   UNL     1       0.801   0.219   4.594  0.00  0.00    -0.201 N 
ATOM      6  C   UNL     1       1.222  -0.142   3.369  0.00  0.00    +0.260 C 
ATOM      7  O   UNL     1       2.380  -0.232   3.014  0.00  0.00    -0.269 OA
ENDROOT
BRANCH   5   8
ATOM      8  C   UNL     1       1.646   0.554   5.663  0.00  0.00    +0.048 A 
ATOM      9  C   UNL     1       3.023   0.525   5.494  0.00  0.00    +0.028 A 
ATOM     10  C   UNL     1       3.857   0.855   6.546  0.00  0.00    +0.051 A 
ATOM     11  C   UNL     1       3.320   1.216   7.772  0.00  0.00    +0.166 A 
ATOM     12  C   UNL     1       1.938   1.246   7.943  0.00  0.00    +0.168 A 
ATOM     13  C   UNL     1       1.104   0.920   6.887  0.00  0.00    +0.073 A 
ATOM     14  O   UNL     1       1.666   1.628   9.225  0.00  0.00    -0.453 OA
ATOM     15  C   UNL     1       2.893   1.435   9.953  0.00  0.00    +0.466 C 
ATOM     16  O   UNL     1       3.913   1.579   8.947  0.00  0.00    -0.453 OA
ENDBRANCH   5   8
BRANCH   1  19
ATOM     17  C   UNL     1       0.062  -3.414   1.489  0.00  0.00    +0.068 C 
ATOM     18  C   UNL     1       0.037  -2.169   0.639  0.00  0.00    +0.072 A 
ATOM     19  C   UNL     1       0.024  -0.838   1.118  0.00  0.00    +0.073 A 
ATOM     20  C   UNL     1       0.002  -0.004   0.002  0.00  0.00    +0.224 A 
ATOM     21  N   UNL     1      -0.003  -0.801  -1.089  0.00  0.00    -0.200 N 
ATOM     22  N   UNL     1       0.024  -2.134  -0.664  0.00  0.00    -0.168 NA
BRANCH  21  23
ATOM     23  C   UNL     1      -0.029  -0.366  -2.421  0.00  0.00    +0.069 A 
ATOM     24  C   UNL     1      -0.743   0.773  -2.768  0.00  0.00    +0.028 A 
ATOM     25  C   UNL     1      -0.762   1.202  -4.080  0.00  0.00    +0.002 A 
ATOM     26  C   UNL     1      -0.079   0.492  -5.051  0.00  0.00    +0.000 A 
ATOM     27  C   UNL     1       0.629  -0.646  -4.710  0.00  0.00    +0.002 A 
ATOM     28  C   UNL     1       0.656  -1.077  -3.398  0.00  0.00    +0.028 A 
ENDBRANCH  21  23
BRANCH  20  29
ATOM     29  O   UNL     1      -0.016   1.349   0.009  0.00  0.00    -0.492 OA
ATOM     30  H   UNL     1       0.862   1.755   0.003  0.00  0.00    +0.294 HD
ENDBRANCH  20  29
ENDBRANCH   1  19
BRANCH   2  31
ATOM     31  N   UNL     1      -2.392  -0.304   2.980  0.00  0.00    -0.318 N 
ATOM     32  C   UNL     1      -2.894   0.513   2.062  0.00  0.00    +0.091 A 
ATOM     33  C   UNL     1      -4.216   0.416   1.681  0.00  0.00    +0.018 A 
ATOM     34  C   UNL     1      -5.024  -0.544   2.274  0.00  0.00    +0.003 A 
ATOM     35  C   UNL     1      -4.468  -1.380   3.233  0.00  0.00    +0.018 A 
ATOM     36  C   UNL     1      -3.138  -1.233   3.567  0.00  0.00    +0.091 A 
ENDBRANCH   2  31
TORSDOF 5
