REMARK  Name = ZINC12573844
REMARK  8 active torsions:
REMARK  status: ('A' for Active; 'I' for Inactive)
REMARK    1  A    between atoms: C_4  and  C_7
REMARK    2  A    between atoms: C_7  and  N_61
REMARK    3  A    between atoms: C_13  and  C_15
REMARK    4  A    between atoms: C_15  and  C_16
REMARK    5  A    between atoms: N_18  and  C_19
REMARK    6  A    between atoms: C_19  and  C_20
REMARK    7  A    between atoms: C_20  and  C_21
REMARK    8  A    between atoms: C_20  and  C_27
REMARK                            x       y       z     vdW  Elec       q    Type
REMARK                         _______ _______ _______ _____ _____    ______ ____
ROOT
ATOM      1  C   UNL     1      -1.156  -5.285  -0.443  0.00  0.00    +0.212 C 
ATOM      2  O   UNL     1      -0.318  -4.409  -0.463  0.00  0.00    -0.276 OA
ATOM      3  N   UNL     1      -1.784  -5.590   0.710  0.00  0.00    -0.314 N 
ATOM      4  H   UNL     1      -2.455  -6.291   0.726  0.00  0.00    +0.149 HD
ENDROOT
BRANCH   1   5
ATOM      5  C   UNL     1      -1.496  -6.032  -1.707  0.00  0.00    +0.089 C 
BRANCH   5  11
ATOM      6  C   UNL     1       1.704  -5.076  -3.422  0.00  0.00    -0.058 C 
ATOM      7  C   UNL     1       1.530  -3.561  -3.301  0.00  0.00    +0.085 C 
ATOM      8  N   UNL     1       0.112  -3.215  -3.347  0.00  0.00    -0.318 N 
ATOM      9  C   UNL     1      -0.861  -4.105  -3.124  0.00  0.00    +0.200 C 
ATOM     10  O   UNL     1      -2.013  -3.726  -3.152  0.00  0.00    -0.278 OA
ATOM     11  C   UNL     1      -0.587  -5.555  -2.841  0.00  0.00    +0.028 C 
ATOM     12  H   UNL     1      -0.135  -2.299  -3.549  0.00  0.00    +0.149 HD
ATOM     13  N   UNL     1       0.820  -5.719  -2.429  0.00  0.00    +0.391 N 
ATOM     14  H   UNL     1       0.957  -5.269  -1.517  0.00  0.00    -0.080 HD
BRANCH  13  15
ATOM     15  C   UNL     1       1.149  -7.158  -2.312  0.00  0.00    -0.042 C 
BRANCH  15  19
ATOM     16  C   UNL     1       5.330  -7.580  -1.540  0.00  0.00    +0.000 A 
ATOM     17  C   UNL     1       4.443  -7.447  -0.489  0.00  0.00    +0.000 A 
ATOM     18  C   UNL     1       3.090  -7.311  -0.738  0.00  0.00    +0.002 A 
ATOM     19  C   UNL     1       2.624  -7.306  -2.040  0.00  0.00    -0.064 A 
ATOM     20  C   UNL     1       3.511  -7.438  -3.092  0.00  0.00    +0.002 A 
ATOM     21  C   UNL     1       4.864  -7.574  -2.842  0.00  0.00    +0.000 A 
ENDBRANCH  15  19
ENDBRANCH  13  15
ENDBRANCH   5  11
ENDBRANCH   1   5
BRANCH   3  22
ATOM     22  C   UNL     1      -1.454  -4.864   1.938  0.00  0.00    +0.117 C 
BRANCH  22  23
ATOM     23  C   UNL     1      -2.303  -5.402   3.092  0.00  0.00    +0.066 C 
BRANCH  23  24
ATOM     24  C   UNL     1      -1.930  -6.836   3.364  0.00  0.00    -0.038 A 
ATOM     25  C   UNL     1      -2.913  -7.807   3.419  0.00  0.00    +0.004 A 
ATOM     26  C   UNL     1      -2.570  -9.124   3.664  0.00  0.00    +0.000 A 
ATOM     27  C   UNL     1      -1.247  -9.468   3.864  0.00  0.00    +0.000 A 
ATOM     28  C   UNL     1      -0.265  -8.496   3.815  0.00  0.00    +0.000 A 
ATOM     29  C   UNL     1      -0.607  -7.180   3.565  0.00  0.00    +0.004 A 
ENDBRANCH  23  24
BRANCH  23  30
ATOM     30  C   UNL     1      -2.053  -4.575   4.327  0.00  0.00    -0.038 A 
ATOM     31  C   UNL     1      -0.760  -4.364   4.768  0.00  0.00    +0.004 A 
ATOM     32  C   UNL     1      -0.531  -3.602   5.898  0.00  0.00    +0.000 A 
ATOM     33  C   UNL     1      -1.595  -3.058   6.593  0.00  0.00    +0.000 A 
ATOM     34  C   UNL     1      -2.889  -3.274   6.155  0.00  0.00    +0.000 A 
ATOM     35  C   UNL     1      -3.118  -4.032   5.022  0.00  0.00    +0.004 A 
ENDBRANCH  23  30
ENDBRANCH  22  23
ENDBRANCH   3  22
TORSDOF 8
