REMARK  Name = ZINC06193750
REMARK  12 active torsions:
REMARK  status: ('A' for Active; 'I' for Inactive)
REMARK    1  A    between atoms: C_1  and  C_2
REMARK    2  A    between atoms: C_2  and  N_68
REMARK    3  A    between atoms: C_3  and  C_4
REMARK    4  A    between atoms: C_3  and  N_68
REMARK    5  A    between atoms: C_10  and  C_12
REMARK    6  A    between atoms: C_10  and  C_27
REMARK    7  A    between atoms: C_10  and  N_68
REMARK    8  A    between atoms: C_16  and  O_24
REMARK    9  A    between atoms: O_24  and  C_25
REMARK   10  A    between atoms: C_25  and  C_26
REMARK   11  A    between atoms: N_31  and  C_32
REMARK   12  A    between atoms: C_32  and  C_33
REMARK                            x       y       z     vdW  Elec       q    Type
REMARK                         _______ _______ _______ _____ _____    ______ ____
ROOT
ATOM      1  C   UNL     1      -6.191  -6.910  -0.752  0.00  0.00    +0.039 C 
ENDROOT
BRANCH   1   2
ATOM      2  C   UNL     1      -4.728  -6.556  -0.684  0.00  0.00    +0.011 A 
ATOM      3  C   UNL     1      -4.335  -5.270  -0.855  0.00  0.00    +0.017 A 
ATOM      4  C   UNL     1      -2.906  -4.959  -0.782  0.00  0.00    +0.002 A 
ATOM      5  C   UNL     1      -2.442  -3.650  -0.950  0.00  0.00    +0.055 A 
ATOM      6  C   UNL     1      -1.088  -3.392  -0.876  0.00  0.00    +0.121 A 
ATOM      7  C   UNL     1      -0.187  -4.427  -0.640  0.00  0.00    +0.047 A 
ATOM      8  C   UNL     1      -0.632  -5.719  -0.468  0.00  0.00    +0.030 A 
ATOM      9  C   UNL     1      -1.992  -6.001  -0.539  0.00  0.00    +0.049 A 
ATOM     10  N   UNL     1      -2.457  -7.290  -0.373  0.00  0.00    -0.322 N 
ATOM     11  H   UNL     1      -1.807  -8.030  -0.200  0.00  0.00    +0.169 HD
ATOM     12  C   UNL     1      -3.771  -7.565  -0.442  0.00  0.00    +0.251 A 
ATOM     13  O   UNL     1      -4.146  -8.715  -0.291  0.00  0.00    -0.268 OA
BRANCH   6  14
ATOM     14  O   UNL     1      -0.632  -2.121  -1.038  0.00  0.00    -0.492 OA
BRANCH  14  15
ATOM     15  C   UNL     1       0.780  -1.923  -0.949  0.00  0.00    +0.225 C 
ATOM     16  C   UNL     1       1.102  -0.442  -1.156  0.00  0.00    +0.048 C 
ENDBRANCH  14  15
ENDBRANCH   6  14
ENDBRANCH   1   2
BRANCH   1  17
ATOM     17  C   UNL     1      -6.653  -7.399   0.596  0.00  0.00    +0.143 A 
ATOM     18  N   UNL     1      -6.546  -8.618   1.065  0.00  0.00    -0.115 NA
ATOM     19  N   UNL     1      -7.054  -8.636   2.248  0.00  0.00    -0.023 NA
ATOM     20  N   UNL     1      -7.491  -7.462   2.543  0.00  0.00    -0.044 NA
ATOM     21  N   UNL     1      -7.262  -6.671   1.550  0.00  0.00    -0.228 N 
BRANCH  21  22
ATOM     22  C   UNL     1      -7.601  -5.248   1.474  0.00  0.00    +0.178 C 
BRANCH  22  23
ATOM     23  C   UNL     1      -9.046  -5.093   0.995  0.00  0.00    +0.140 C 
ATOM     24  C   UNL     1      -9.404  -3.595   0.887  0.00  0.00    +0.035 C 
ATOM     25  C   UNL     1     -10.866  -3.567   1.411  0.00  0.00    +0.031 C 
ATOM     26  C   UNL     1     -10.815  -4.681   2.486  0.00  0.00    +0.160 C 
ATOM     27  O   UNL     1      -9.940  -5.684   1.946  0.00  0.00    -0.375 OA
ENDBRANCH  22  23
ENDBRANCH  21  22
ENDBRANCH   1  17
BRANCH   1  28
ATOM     28  N   UNL     1      -6.383  -7.991  -1.742  0.00  0.00    +0.392 N 
ATOM     29  H   UNL     1      -6.028  -8.870  -1.349  0.00  0.00    -0.080 HD
BRANCH  28  31
ATOM     30  C   UNL     1      -8.478  -8.938  -0.912  0.00  0.00    -0.017 C 
ATOM     31  C   UNL     1      -7.821  -8.148  -2.046  0.00  0.00    -0.080 C 
ENDBRANCH  28  31
BRANCH  28  32
ATOM     32  C   UNL     1      -5.637  -7.681  -2.979  0.00  0.00    -0.042 C 
BRANCH  32  33
ATOM     33  C   UNL     1      -5.684  -8.882  -3.889  0.00  0.00    -0.064 A 
ATOM     34  C   UNL     1      -4.782  -9.916  -3.716  0.00  0.00    +0.002 A 
ATOM     35  C   UNL     1      -4.829 -11.020  -4.547  0.00  0.00    +0.000 A 
ATOM     36  C   UNL     1      -5.771 -11.085  -5.558  0.00  0.00    +0.000 A 
ATOM     37  C   UNL     1      -6.668 -10.049  -5.734  0.00  0.00    +0.000 A 
ATOM     38  C   UNL     1      -6.625  -8.947  -4.899  0.00  0.00    +0.002 A 
ENDBRANCH  32  33
ENDBRANCH  28  32
ENDBRANCH   1  28
TORSDOF 10
