REMARK  Name = ZINC12562609
REMARK  5 active torsions:
REMARK  status: ('A' for Active; 'I' for Inactive)
REMARK    1  A    between atoms: C_1  and  C_2
REMARK    2  A    between atoms: C_8  and  N_10
REMARK    3  A    between atoms: C_11  and  C_13
REMARK    4  A    between atoms: C_13  and  S_14
REMARK    5  A    between atoms: S_14  and  C_15
REMARK                            x       y       z     vdW  Elec       q    Type
REMARK                         _______ _______ _______ _____ _____    ______ ____
ROOT
ATOM      1  C   UNL     1      -1.383  -2.364   0.003  0.00  0.00    +0.169 A 
ATOM      2  N   UNL     1      -2.344  -3.339   0.013  0.00  0.00    -0.318 N 
ATOM      3  H   UNL     1      -3.334  -3.194   0.024  0.00  0.00    +0.169 HD
ATOM      4  C   UNL     1      -1.700  -4.554   0.004  0.00  0.00    +0.167 A 
ATOM      5  C   UNL     1      -0.325  -4.268  -0.018  0.00  0.00    +0.173 A 
ATOM      6  N   UNL     1      -0.194  -2.915  -0.017  0.00  0.00    -0.215 NA
ATOM      7  C   UNL     1       0.578  -5.340  -0.019  0.00  0.00    +0.280 A 
ATOM      8  N   UNL     1       0.097  -6.577  -0.012  0.00  0.00    -0.293 N 
ATOM      9  C   UNL     1      -1.210  -6.804   0.003  0.00  0.00    +0.195 A 
ATOM     10  N   UNL     1      -2.096  -5.822   0.011  0.00  0.00    -0.197 NA
ATOM     11  N   UNL     1      -1.662  -8.115   0.010  0.00  0.00    -0.329 N 
ATOM     12  O   UNL     1       1.915  -5.118  -0.035  0.00  0.00    -0.265 OA
ATOM     13  H   UNL     1      -1.333  -8.585  -0.809  0.00  0.00    +0.145 HD
ATOM     14  H   UNL     1      -2.614  -8.300   0.020  0.00  0.00    +0.145 HD
ATOM     15  H   UNL     1       0.730  -7.351  -0.017  0.00  0.00    +0.172 HD
ENDROOT
BRANCH   1  16
ATOM     16  S   UNL     1      -1.696  -0.631   0.015  0.00  0.00    -0.078 S 
BRANCH  16  17
ATOM     17  C   UNL     1       0.002  -0.004   0.002  0.00  0.00    +0.173 C 
BRANCH  17  19
ATOM     18  N   UNL     1       1.139   2.192   0.003  0.00  0.00    -0.312 N 
ATOM     19  C   UNL     1      -0.018   1.503   0.010  0.00  0.00    +0.224 C 
ATOM     20  O   UNL     1      -1.077   2.095   0.018  0.00  0.00    -0.275 OA
ATOM     21  H   UNL     1       1.986   1.719  -0.008  0.00  0.00    +0.149 HD
BRANCH  18  28
ATOM     22  C   UNL     1       2.533   3.688  -2.049  0.00  0.00    +0.009 C 
ATOM     23  C   UNL     1       2.414   4.188  -0.608  0.00  0.00    +0.006 C 
ATOM     24  C   UNL     1       3.610   3.690   0.205  0.00  0.00    +0.005 C 
ATOM     25  C   UNL     1       3.491   4.191   1.646  0.00  0.00    +0.000 C 
ATOM     26  C   UNL     1       2.197   3.659   2.265  0.00  0.00    +0.002 C 
ATOM     27  C   UNL     1       1.001   4.158   1.452  0.00  0.00    +0.022 C 
ATOM     28  C   UNL     1       1.120   3.657   0.011  0.00  0.00    +0.076 C 
ENDBRANCH  18  28
ENDBRANCH  17  19
ENDBRANCH  16  17
ENDBRANCH   1  16
TORSDOF 4
