REMARK  Name = ZINC29775569
REMARK  6 active torsions:
REMARK  status: ('A' for Active; 'I' for Inactive)
REMARK    1  A    between atoms: C_1  and  C_2
REMARK    2  A    between atoms: C_8  and  C_10
REMARK    3  A    between atoms: C_10  and  N_11
REMARK    4  A    between atoms: C_16  and  C_23
REMARK    5  A    between atoms: C_19  and  C_21
REMARK    6  A    between atoms: C_19  and  C_22
REMARK                            x       y       z     vdW  Elec       q    Type
REMARK                         _______ _______ _______ _____ _____    ______ ____
ROOT
ATOM      1  N   UNL     1      -0.882   1.510   1.543  0.00  0.00    -0.215 N 
ATOM      2  C   UNL     1      -2.190   1.839   1.583  0.00  0.00    +0.247 C 
ATOM      3  O   UNL     1      -3.019   1.660   0.717  0.00  0.00    -0.273 OA
ATOM      4  C   UNL     1      -2.404   2.477   2.937  0.00  0.00    +0.113 C 
ATOM      5  C   UNL     1      -3.404   1.671   3.758  0.00  0.00    +0.038 C 
ATOM      6  C   UNL     1      -3.577   2.319   5.134  0.00  0.00    -0.011 C 
ATOM      7  C   UNL     1      -4.074   3.756   4.960  0.00  0.00    +0.009 C 
ATOM      8  C   UNL     1      -3.052   4.558   4.153  0.00  0.00    -0.032 C 
ATOM      9  C   UNL     1      -2.877   3.917   2.773  0.00  0.00    +0.041 C 
ATOM     10  C   UNL     1      -1.710   4.560   4.888  0.00  0.00    +0.011 C 
ATOM     11  C   UNL     1      -3.547   5.996   3.989  0.00  0.00    +0.011 C 
ATOM     12  C   UNL     1      -4.596   1.521   5.949  0.00  0.00    +0.007 C 
ATOM     13  N   UNL     1      -1.076   2.440   3.562  0.00  0.00    -0.285 N 
ATOM     14  C   UNL     1      -0.252   1.856   2.672  0.00  0.00    +0.310 C 
ATOM     15  O   UNL     1       0.932   1.665   2.870  0.00  0.00    -0.252 OA
ATOM     16  H   UNL     1      -0.933   2.849   4.573  0.00  0.00    +0.151 HD
ENDROOT
BRANCH   1  17
ATOM     17  C   UNL     1      -0.232   0.859   0.403  0.00  0.00    +0.214 C 
BRANCH  17  25
ATOM     18  C   UNL     1       0.401  -6.947  -0.551  0.00  0.00    +0.053 C 
ATOM     19  C   UNL     1       0.234  -5.473  -0.286  0.00  0.00    +0.008 A 
ATOM     20  C   UNL     1      -0.361  -4.844   0.756  0.00  0.00    +0.124 A 
ATOM     21  N   UNL     1      -0.383  -3.526   0.765  0.00  0.00    -0.233 NA
ATOM     22  C   UNL     1       0.160  -2.827  -0.213  0.00  0.00    +0.165 A 
ATOM     23  S   UNL     1       0.759  -4.072  -1.264  0.00  0.00    -0.057 S 
ATOM     24  N   UNL     1       0.229  -1.447  -0.366  0.00  0.00    -0.263 N 
ATOM     25  C   UNL     1      -0.307  -0.637   0.569  0.00  0.00    +0.237 C 
ATOM     26  O   UNL     1      -0.851  -1.113   1.544  0.00  0.00    -0.274 OA
ATOM     27  H   UNL     1       0.722  -1.016  -1.250  0.00  0.00    +0.157 HD
ENDBRANCH  17  25
ENDBRANCH   1  17
TORSDOF 2
