REMARK  Name = ZINC38806385
REMARK  13 active torsions:
REMARK  status: ('A' for Active; 'I' for Inactive)
REMARK    1  A    between atoms: C_1  and  C_2
REMARK    2  A    between atoms: C_2  and  O_3
REMARK    3  A    between atoms: O_3  and  C_4
REMARK    4  A    between atoms: C_4  and  C_6
REMARK    5  A    between atoms: C_10  and  N_11
REMARK    6  A    between atoms: C_12  and  C_14
REMARK    7  A    between atoms: N_16  and  C_21
REMARK    8  A    between atoms: C_18  and  O_19
REMARK    9  A    between atoms: O_19  and  C_20
REMARK   10  A    between atoms: C_22  and  C_28
REMARK   11  A    between atoms: C_22  and  C_29
REMARK   12  A    between atoms: C_24  and  C_26
REMARK   13  A    between atoms: C_24  and  C_27
REMARK                            x       y       z     vdW  Elec       q    Type
REMARK                         _______ _______ _______ _____ _____    ______ ____
ROOT
ATOM      1  C   UNL     1      -2.842  -2.416   0.016  0.00  0.00    +0.091 A 
ATOM      2  C   UNL     1      -3.559  -2.713  -1.204  0.00  0.00    -0.024 A 
ATOM      3  C   UNL     1      -4.792  -3.240  -1.020  0.00  0.00    -0.016 A 
ATOM      4  S   UNL     1      -4.970  -3.338   0.736  0.00  0.00    -0.079 S 
ATOM      5  C   UNL     1      -3.489  -2.706   1.212  0.00  0.00    +0.087 A 
ATOM      6  C   UNL     1      -5.756  -3.630  -2.090  0.00  0.00    -0.041 C 
ATOM      7  N   UNL     1      -5.157  -3.586  -3.423  0.00  0.00    +0.389 N 
ATOM      8  C   UNL     1      -3.703  -3.602  -3.488  0.00  0.00    -0.069 C 
ATOM      9  C   UNL     1      -3.072  -2.498  -2.628  0.00  0.00    +0.024 C 
ATOM     10  C   UNL     1      -3.146  -4.961  -3.057  0.00  0.00    -0.010 C 
ATOM     11  C   UNL     1      -3.279  -3.360  -4.949  0.00  0.00    -0.010 C 
ATOM     12  C   UNL     1      -6.945  -2.651  -2.051  0.00  0.00    -0.005 C 
ATOM     13  C   UNL     1      -6.297  -5.037  -1.800  0.00  0.00    -0.005 C 
ATOM     14  H   UNL     1      -5.513  -4.377  -3.965  0.00  0.00    -0.084 HD
ATOM     15  H   UNL     1      -5.495  -2.751  -3.904  0.00  0.00    -0.084 HD
ENDROOT
BRANCH   5  16
ATOM     16  N   UNL     1      -3.018  -2.516   2.501  0.00  0.00    -0.275 N 
ATOM     17  C   UNL     1      -3.785  -2.856   3.556  0.00  0.00    +0.255 C 
ATOM     18  O   UNL     1      -4.891  -3.330   3.376  0.00  0.00    -0.270 OA
ATOM     19  H   UNL     1      -2.136  -2.139   2.644  0.00  0.00    +0.156 HD
BRANCH  17  20
ATOM     20  C   UNL     1      -3.284  -2.655   4.925  0.00  0.00    +0.117 A 
ATOM     21  C   UNL     1      -2.059  -2.125   5.282  0.00  0.00    +0.125 A 
ATOM     22  N   UNL     1      -1.998  -2.114   6.622  0.00  0.00    -0.270 N 
ATOM     23  N   UNL     1      -3.192  -2.640   7.127  0.00  0.00    -0.133 NA
ATOM     24  C   UNL     1      -3.971  -2.961   6.127  0.00  0.00    +0.246 A 
ATOM     25  C   UNL     1      -0.870  -1.632   7.422  0.00  0.00    +0.172 C 
BRANCH  24  26
ATOM     26  O   UNL     1      -5.215  -3.497   6.222  0.00  0.00    -0.478 OA
ATOM     27  C   UNL     1      -5.723  -3.728   7.537  0.00  0.00    +0.279 C 
ENDBRANCH  24  26
ENDBRANCH  17  20
ENDBRANCH   5  16
BRANCH   1  28
ATOM     28  C   UNL     1      -1.497  -1.838   0.006  0.00  0.00    +0.342 C 
ATOM     29  O   UNL     1      -0.522  -2.566  -0.007  0.00  0.00    -0.245 OA
BRANCH  28  30
ATOM     30  O   UNL     1      -1.339  -0.499   0.012  0.00  0.00    -0.461 OA
BRANCH  30  32
ATOM     31  C   UNL     1      -0.019   1.526   0.010  0.00  0.00    +0.048 C 
ATOM     32  C   UNL     1       0.002  -0.004   0.002  0.00  0.00    +0.229 C 
ENDBRANCH  30  32
ENDBRANCH  28  30
ENDBRANCH   1  28
TORSDOF 6
