REMARK  Name = ZINC06301547
REMARK  12 active torsions:
REMARK  status: ('A' for Active; 'I' for Inactive)
REMARK    1  A    between atoms: C_1  and  C_2
REMARK    2  A    between atoms: C_4  and  C_37
REMARK    3  A    between atoms: C_7  and  C_14
REMARK    4  A    between atoms: C_14  and  N_68
REMARK    5  A    between atoms: C_15  and  C_16
REMARK    6  A    between atoms: C_15  and  N_68
REMARK    7  A    between atoms: N_20  and  C_21
REMARK    8  A    between atoms: C_21  and  C_22
REMARK    9  A    between atoms: C_25  and  O_28
REMARK   10  A    between atoms: O_28  and  C_29
REMARK   11  A    between atoms: C_30  and  C_31
REMARK   12  A    between atoms: C_30  and  N_68
REMARK                            x       y       z     vdW  Elec       q    Type
REMARK                         _______ _______ _______ _____ _____    ______ ____
ROOT
ATOM      1  N   UNL     1       2.921  -0.779  -7.593  0.00  0.00    +0.389 N 
ATOM      2  H   UNL     1       2.805  -1.311  -8.463  0.00  0.00    -0.081 HD
ENDROOT
BRANCH   1   3
ATOM      3  C   UNL     1       3.389   0.584  -7.922  0.00  0.00    -0.037 C 
BRANCH   3  10
ATOM      4  C   UNL     1      -1.589   3.903 -13.198  0.00  0.00    +0.044 C 
ATOM      5  C   UNL     1      -0.777   3.384 -12.039  0.00  0.00    -0.048 A 
ATOM      6  C   UNL     1      -1.122   3.744 -10.743  0.00  0.00    +0.007 A 
ATOM      7  C   UNL     1      -0.399   3.285  -9.678  0.00  0.00    -0.041 A 
ATOM      8  C   UNL     1       0.699   2.445  -9.896  0.00  0.00    +0.002 A 
ATOM      9  C   UNL     1       1.495   1.936  -8.778  0.00  0.00    +0.017 A 
ATOM     10  C   UNL     1       2.548   1.126  -9.049  0.00  0.00    +0.001 A 
ATOM     11  C   UNL     1       2.864   0.793 -10.384  0.00  0.00    +0.251 A 
ATOM     12  O   UNL     1       3.818   0.068 -10.606  0.00  0.00    -0.268 OA
ATOM     13  N   UNL     1       2.135   1.252 -11.417  0.00  0.00    -0.322 N 
ATOM     14  H   UNL     1       2.377   1.001 -12.322  0.00  0.00    +0.169 HD
ATOM     15  C   UNL     1       1.052   2.079 -11.208  0.00  0.00    +0.050 A 
ATOM     16  C   UNL     1       0.301   2.559 -12.277  0.00  0.00    +0.029 A 
ATOM     17  C   UNL     1      -0.783   3.681  -8.276  0.00  0.00    +0.044 C 
ENDBRANCH   3  10
ENDBRANCH   1   3
BRANCH   1  18
ATOM     18  C   UNL     1       1.619  -0.711  -6.895  0.00  0.00    +0.001 C 
BRANCH  18  19
ATOM     19  C   UNL     1       1.062  -2.105  -6.769  0.00  0.00    +0.135 A 
ATOM     20  N   UNL     1       0.296  -2.723  -7.634  0.00  0.00    -0.115 NA
ATOM     21  N   UNL     1       0.031  -3.894  -7.166  0.00  0.00    -0.023 NA
ATOM     22  N   UNL     1       0.613  -4.041  -6.027  0.00  0.00    -0.044 NA
ATOM     23  N   UNL     1       1.254  -2.958  -5.745  0.00  0.00    -0.227 N 
BRANCH  23  24
ATOM     24  C   UNL     1       2.047  -2.705  -4.540  0.00  0.00    +0.182 C 
BRANCH  24  25
ATOM     25  C   UNL     1       1.167  -2.099  -3.477  0.00  0.00    -0.026 A 
ATOM     26  C   UNL     1       0.498  -2.917  -2.586  0.00  0.00    +0.009 A 
ATOM     27  C   UNL     1      -0.310  -2.363  -1.611  0.00  0.00    +0.046 A 
ATOM     28  C   UNL     1      -0.449  -0.985  -1.527  0.00  0.00    +0.120 A 
ATOM     29  C   UNL     1       0.219  -0.167  -2.426  0.00  0.00    +0.046 A 
ATOM     30  C   UNL     1       1.030  -0.725  -3.395  0.00  0.00    +0.009 A 
BRANCH  28  31
ATOM     31  O   UNL     1      -1.243  -0.438  -0.569  0.00  0.00    -0.495 OA
ATOM     32  C   UNL     1      -1.339   0.987  -0.542  0.00  0.00    +0.277 C 
ENDBRANCH  28  31
ENDBRANCH  24  25
ENDBRANCH  23  24
ENDBRANCH  18  19
ENDBRANCH   1  18
BRANCH   1  33
ATOM     33  C   UNL     1       3.916  -1.463  -6.740  0.00  0.00    -0.046 C 
BRANCH  33  34
ATOM     34  C   UNL     1       5.114  -1.858  -7.605  0.00  0.00    +0.102 C 
ATOM     35  C   UNL     1       6.104  -2.720  -6.790  0.00  0.00    +0.032 C 
ATOM     36  C   UNL     1       7.495  -2.261  -7.283  0.00  0.00    +0.030 C 
ATOM     37  C   UNL     1       7.181  -1.177  -8.337  0.00  0.00    +0.160 C 
ATOM     38  O   UNL     1       5.870  -0.686  -7.983  0.00  0.00    -0.378 OA
ENDBRANCH  33  34
ENDBRANCH   1  33
TORSDOF 9
