REMARK  Name = ZINC63351578
REMARK  6 active torsions:
REMARK  status: ('A' for Active; 'I' for Inactive)
REMARK    1  A    between atoms: C_1  and  O_2
REMARK    2  A    between atoms: O_2  and  C_3
REMARK    3  A    between atoms: C_5  and  C_10
REMARK    4  A    between atoms: C_8  and  O_9
REMARK    5  A    between atoms: N_11  and  N_12
REMARK    6  A    between atoms: C_32  and  C_34
REMARK                            x       y       z     vdW  Elec       q    Type
REMARK                         _______ _______ _______ _____ _____    ______ ____
ROOT
ATOM      1  N   UNL     1      -7.186   0.354   0.161  0.00  0.00    -0.183 N 
ATOM      2  C   UNL     1      -7.183   1.828   0.161  0.00  0.00    +0.230 C 
ATOM      3  C   UNL     1      -8.278   2.311  -0.767  0.00  0.00    +0.236 C 
ATOM      4  O   UNL     1      -8.091   3.218  -1.550  0.00  0.00    -0.274 OA
ATOM      5  N   UNL     1      -9.492   1.674  -0.680  0.00  0.00    -0.279 N 
ATOM      6  C   UNL     1      -9.592   0.666   0.353  0.00  0.00    +0.169 C 
ATOM      7  C   UNL     1      -8.403  -0.257   0.273  0.00  0.00    +0.256 C 
ATOM      8  O   UNL     1      -8.519  -1.464   0.309  0.00  0.00    -0.272 OA
ATOM      9  C   UNL     1     -10.891  -0.084   0.496  0.00  0.00    +0.065 C 
ATOM     10  C   UNL     1     -11.794   0.230  -0.665  0.00  0.00    -0.034 C 
ATOM     11  C   UNL     1     -12.599  -0.528  -1.397  0.00  0.00    -0.001 A 
ATOM     12  C   UNL     1     -12.942  -1.957  -1.315  0.00  0.00    +0.010 A 
ATOM     13  C   UNL     1     -13.813  -2.419  -2.251  0.00  0.00    +0.001 A 
ATOM     14  C   UNL     1     -14.372  -1.613  -3.247  0.00  0.00    +0.002 A 
ATOM     15  C   UNL     1     -14.116  -0.288  -3.394  0.00  0.00    +0.026 A 
ATOM     16  C   UNL     1     -13.216   0.314  -2.466  0.00  0.00    +0.043 A 
ATOM     17  N   UNL     1     -12.809   1.543  -2.369  0.00  0.00    -0.375 N 
ATOM     18  C   UNL     1     -11.905   1.650  -1.216  0.00  0.00    +0.131 C 
ATOM     19  C   UNL     1     -10.505   2.047  -1.657  0.00  0.00    +0.133 C 
ATOM     20  H   UNL     1     -13.059   2.270  -2.961  0.00  0.00    +0.160 HD
ENDROOT
BRANCH  19  21
ATOM     21  C   UNL     1     -10.437   3.535  -1.890  0.00  0.00    -0.025 A 
ATOM     22  C   UNL     1     -10.218   4.392  -0.828  0.00  0.00    +0.005 A 
ATOM     23  C   UNL     1     -10.156   5.756  -1.042  0.00  0.00    +0.000 A 
ATOM     24  C   UNL     1     -10.313   6.263  -2.318  0.00  0.00    +0.000 A 
ATOM     25  C   UNL     1     -10.531   5.407  -3.380  0.00  0.00    +0.000 A 
ATOM     26  C   UNL     1     -10.589   4.042  -3.167  0.00  0.00    +0.005 A 
ENDBRANCH  19  21
BRANCH   1  28
ATOM     27  C   UNL     1      -4.855   0.225   0.047  0.00  0.00    +0.138 C 
ATOM     28  N   UNL     1      -6.001  -0.384   0.045  0.00  0.00    -0.184 NA
BRANCH  27  31
ATOM     29  C   UNL     1      -1.201  -0.641   0.025  0.00  0.00    +0.162 A 
ATOM     30  C   UNL     1      -2.370   0.097   0.037  0.00  0.00    +0.058 A 
ATOM     31  C   UNL     1      -3.605  -0.557   0.034  0.00  0.00    -0.002 A 
ATOM     32  C   UNL     1      -3.652  -1.953   0.020  0.00  0.00    +0.013 A 
ATOM     33  C   UNL     1      -2.482  -2.683   0.009  0.00  0.00    +0.050 A 
ATOM     34  C   UNL     1      -1.256  -2.033   0.006  0.00  0.00    +0.158 A 
BRANCH  29  36
ATOM     35  C   UNL     1      -0.016   1.421   0.048  0.00  0.00    +0.277 C 
ATOM     36  O   UNL     1       0.003  -0.008   0.027  0.00  0.00    -0.491 OA
ENDBRANCH  29  36
BRANCH  34  37
ATOM     37  O   UNL     1      -0.105  -2.757  -0.011  0.00  0.00    -0.503 OA
ATOM     38  H   UNL     1       0.233  -2.979   0.867  0.00  0.00    +0.292 HD
ENDBRANCH  34  37
ENDBRANCH  27  31
ENDBRANCH   1  28
TORSDOF 5
