REMARK  Name = ZINC09777313
REMARK  8 active torsions:
REMARK  status: ('A' for Active; 'I' for Inactive)
REMARK    1  A    between atoms: C_1  and  C_2
REMARK    2  A    between atoms: C_5  and  N_8
REMARK    3  A    between atoms: C_9  and  C_11
REMARK    4  A    between atoms: N_22  and  C_34
REMARK    5  A    between atoms: C_23  and  C_25
REMARK    6  A    between atoms: N_27  and  C_28
REMARK    7  A    between atoms: C_34  and  C_35
REMARK    8  A    between atoms: C_35  and  C_36
REMARK                            x       y       z     vdW  Elec       q    Type
REMARK                         _______ _______ _______ _____ _____    ______ ____
ROOT
ATOM      1  C   UNL     1      -7.368  -0.762   2.117  0.00  0.00    +0.123 C 
ATOM      2  C   UNL     1      -7.024  -1.912   3.119  0.00  0.00    +0.155 C 
ATOM      3  C   UNL     1      -7.104  -3.226   2.334  0.00  0.00    +0.004 C 
ATOM      4  C   UNL     1      -6.010  -3.261   1.533  0.00  0.00    +0.009 C 
ATOM      5  C   UNL     1      -5.325  -1.969   1.806  0.00  0.00    +0.127 C 
ATOM      6  C   UNL     1      -6.186  -0.835   1.135  0.00  0.00    +0.128 C 
ATOM      7  C   UNL     1      -5.233   0.325   1.210  0.00  0.00    +0.223 C 
ATOM      8  O   UNL     1      -5.551   1.495   1.233  0.00  0.00    -0.275 OA
ATOM      9  N   UNL     1      -3.959  -0.144   1.245  0.00  0.00    -0.286 N 
ATOM     10  C   UNL     1      -3.945  -1.623   1.343  0.00  0.00    +0.198 C 
ATOM     11  O   UNL     1      -5.564  -1.732   3.219  0.00  0.00    -0.358 OA
ENDROOT
BRANCH   1  13
ATOM     12  N   UNL     1      -8.160   1.572   2.323  0.00  0.00    -0.285 N 
ATOM     13  C   UNL     1      -7.406   0.571   2.818  0.00  0.00    +0.224 C 
ATOM     14  O   UNL     1      -6.756   0.744   3.828  0.00  0.00    -0.275 OA
ATOM     15  H   UNL     1      -8.732   1.414   1.555  0.00  0.00    +0.155 HD
BRANCH  12  20
ATOM     16  C   UNL     1      -7.999   6.707   4.729  0.00  0.00    +0.044 C 
ATOM     17  C   UNL     1      -8.041   5.343   4.090  0.00  0.00    -0.050 A 
ATOM     18  C   UNL     1      -8.191   5.227   2.720  0.00  0.00    +0.005 A 
ATOM     19  C   UNL     1      -8.230   3.979   2.131  0.00  0.00    +0.023 A 
ATOM     20  C   UNL     1      -8.120   2.838   2.916  0.00  0.00    +0.033 A 
ATOM     21  C   UNL     1      -7.976   2.958   4.292  0.00  0.00    +0.023 A 
ATOM     22  C   UNL     1      -7.931   4.210   4.874  0.00  0.00    +0.005 A 
ENDBRANCH  12  20
ENDBRANCH   1  13
BRANCH  10  23
ATOM     23  C   UNL     1      -3.665  -2.240  -0.003  0.00  0.00    +0.237 C 
ATOM     24  O   UNL     1      -3.821  -1.587  -1.013  0.00  0.00    -0.274 OA
ATOM     25  N   UNL     1      -3.241  -3.517  -0.084  0.00  0.00    -0.311 N 
ATOM     26  H   UNL     1      -3.116  -4.038   0.724  0.00  0.00    +0.149 HD
BRANCH  25  27
ATOM     27  C   UNL     1      -2.969  -4.116  -1.393  0.00  0.00    +0.073 C 
ATOM     28  C   UNL     1      -4.269  -4.665  -1.983  0.00  0.00    +0.022 C 
ATOM     29  C   UNL     1      -3.985  -5.290  -3.350  0.00  0.00    +0.002 C 
ATOM     30  C   UNL     1      -2.978  -6.430  -3.189  0.00  0.00    +0.000 C 
ATOM     31  C   UNL     1      -1.677  -5.882  -2.599  0.00  0.00    +0.002 C 
ATOM     32  C   UNL     1      -1.961  -5.256  -1.233  0.00  0.00    +0.022 C 
ENDBRANCH  25  27
ENDBRANCH  10  23
BRANCH   9  33
ATOM     33  C   UNL     1      -2.762   0.699   1.198  0.00  0.00    +0.113 C 
BRANCH  33  34
ATOM     34  C   UNL     1      -2.334   0.896  -0.258  0.00  0.00    +0.049 C 
BRANCH  34  35
ATOM     35  C   UNL     1      -1.102   1.762  -0.306  0.00  0.00    -0.072 C 
ATOM     36  C   UNL     1       0.051   1.176  -0.358  0.00  0.00    -0.028 C 
ATOM     37  C   UNL     1       1.363   1.903  -0.407  0.00  0.00    +0.027 C 
ATOM     38  C   UNL     1       1.141   3.364  -0.804  0.00  0.00    +0.004 C 
ATOM     39  C   UNL     1       0.028   3.943   0.079  0.00  0.00    +0.005 C 
ATOM     40  C   UNL     1      -1.288   3.251  -0.286  0.00  0.00    +0.030 C 
ENDBRANCH  34  35
ENDBRANCH  33  34
ENDBRANCH   9  33
TORSDOF 7
