REMARK  Name = ZINC06410049
REMARK  10 active torsions:
REMARK  status: ('A' for Active; 'I' for Inactive)
REMARK    1  A    between atoms: C_1  and  C_2
REMARK    2  A    between atoms: C_7  and  C_14
REMARK    3  A    between atoms: C_14  and  C_16
REMARK    4  A    between atoms: C_14  and  N_65
REMARK    5  A    between atoms: N_20  and  C_21
REMARK    6  A    between atoms: C_21  and  C_22
REMARK    7  A    between atoms: C_28  and  C_29
REMARK    8  A    between atoms: C_28  and  N_65
REMARK    9  A    between atoms: C_34  and  C_35
REMARK   10  A    between atoms: C_34  and  N_65
REMARK                            x       y       z     vdW  Elec       q    Type
REMARK                         _______ _______ _______ _____ _____    ______ ____
ROOT
ATOM      1  C   UNL     1      -0.208   0.625   0.541  0.00  0.00    +0.040 C 
ENDROOT
BRANCH   1   8
ATOM      2  C   UNL     1       7.760   0.381   0.804  0.00  0.00    +0.044 C 
ATOM      3  C   UNL     1       6.265   0.194   0.752  0.00  0.00    -0.048 A 
ATOM      4  C   UNL     1       5.734  -1.089   0.721  0.00  0.00    +0.004 A 
ATOM      5  C   UNL     1       4.383  -1.281   0.674  0.00  0.00    +0.010 A 
ATOM      6  C   UNL     1       3.526  -0.175   0.658  0.00  0.00    -0.001 A 
ATOM      7  C   UNL     1       2.072  -0.344   0.607  0.00  0.00    +0.017 A 
ATOM      8  C   UNL     1       1.291   0.764   0.593  0.00  0.00    +0.011 A 
ATOM      9  C   UNL     1       1.878   2.047   0.620  0.00  0.00    +0.251 A 
ATOM     10  O   UNL     1       1.158   3.030   0.601  0.00  0.00    -0.268 OA
ATOM     11  N   UNL     1       3.211   2.213   0.672  0.00  0.00    -0.322 N 
ATOM     12  H   UNL     1       3.581   3.109   0.694  0.00  0.00    +0.169 HD
ATOM     13  C   UNL     1       4.060   1.127   0.689  0.00  0.00    +0.049 A 
ATOM     14  C   UNL     1       5.440   1.297   0.736  0.00  0.00    +0.029 A 
ENDBRANCH   1   8
BRANCH   1  15
ATOM     15  C   UNL     1      -0.724   1.221  -0.743  0.00  0.00    +0.143 A 
ATOM     16  N   UNL     1      -0.797   2.495  -1.041  0.00  0.00    -0.115 NA
ATOM     17  N   UNL     1      -1.291   2.599  -2.226  0.00  0.00    -0.023 NA
ATOM     18  N   UNL     1      -1.535   1.424  -2.693  0.00  0.00    -0.044 NA
ATOM     19  N   UNL     1      -1.194   0.547  -1.810  0.00  0.00    -0.228 N 
BRANCH  19  20
ATOM     20  C   UNL     1      -1.301  -0.907  -1.942  0.00  0.00    +0.178 C 
BRANCH  20  21
ATOM     21  C   UNL     1      -2.655  -1.370  -1.400  0.00  0.00    +0.140 C 
ATOM     22  C   UNL     1      -2.727  -2.913  -1.418  0.00  0.00    +0.035 C 
ATOM     23  C   UNL     1      -4.193  -3.170  -1.859  0.00  0.00    +0.031 C 
ATOM     24  C   UNL     1      -4.423  -1.979  -2.824  0.00  0.00    +0.160 C 
ATOM     25  O   UNL     1      -3.708  -0.879  -2.239  0.00  0.00    -0.375 OA
ENDBRANCH  20  21
ENDBRANCH  19  20
ENDBRANCH   1  15
BRANCH   1  26
ATOM     26  N   UNL     1      -0.798   1.359   1.681  0.00  0.00    +0.397 N 
ATOM     27  H   UNL     1      -0.542   2.350   1.607  0.00  0.00    -0.079 HD
BRANCH  26  28
ATOM     28  C   UNL     1      -2.271   1.240   1.651  0.00  0.00    -0.001 C 
BRANCH  28  29
ATOM     29  C   UNL     1      -2.820   2.291   0.721  0.00  0.00    +0.089 A 
ATOM     30  C   UNL     1      -3.379   2.064  -0.481  0.00  0.00    +0.042 A 
ATOM     31  C   UNL     1      -3.754   3.323  -1.003  0.00  0.00    +0.041 A 
ATOM     32  C   UNL     1      -3.393   4.245  -0.093  0.00  0.00    +0.195 A 
ATOM     33  O   UNL     1      -2.828   3.614   0.950  0.00  0.00    -0.470 OA
ENDBRANCH  28  29
ENDBRANCH  26  28
BRANCH  26  34
ATOM     34  C   UNL     1      -0.274   0.821   2.954  0.00  0.00    -0.034 C 
BRANCH  34  35
ATOM     35  C   UNL     1       0.883   1.680   3.396  0.00  0.00    -0.027 A 
ATOM     36  C   UNL     1       0.865   2.923   3.936  0.00  0.00    +0.009 A 
ATOM     37  C   UNL     1       2.063   3.525   4.272  0.00  0.00    +0.008 A 
ATOM     38  C   UNL     1       3.221   2.858   4.042  0.00  0.00    +0.045 A 
ATOM     39  S   UNL     1       2.632   1.328   3.336  0.00  0.00    -0.103 S 
ENDBRANCH  34  35
ENDBRANCH  26  34
ENDBRANCH   1  26
TORSDOF 9
