REMARK  Name = ZINC39011964
REMARK  9 active torsions:
REMARK  status: ('A' for Active; 'I' for Inactive)
REMARK    1  A    between atoms: C_1  and  C_2
REMARK    2  A    between atoms: C_2  and  N_3
REMARK    3  A    between atoms: C_4  and  C_6
REMARK    4  A    between atoms: C_8  and  N_17
REMARK    5  A    between atoms: C_18  and  C_20
REMARK    6  A    between atoms: C_23  and  C_25
REMARK    7  A    between atoms: C_28  and  C_33
REMARK    8  A    between atoms: C_29  and  C_32
REMARK    9  A    between atoms: C_30  and  O_31
REMARK                            x       y       z     vdW  Elec       q    Type
REMARK                         _______ _______ _______ _____ _____    ______ ____
ROOT
ATOM      1  N   UNL     1       1.701  -1.486  -5.019  0.00  0.00    -0.297 N 
ATOM      2  C   UNL     1       1.395  -1.895  -6.266  0.00  0.00    +0.261 C 
ATOM      3  O   UNL     1       0.355  -2.492  -6.473  0.00  0.00    -0.269 OA
ATOM      4  H   UNL     1       2.530  -1.011  -4.854  0.00  0.00    +0.150 HD
ENDROOT
BRANCH   1   6
ATOM      5  C   UNL     1       1.532  -2.285  -2.665  0.00  0.00    +0.132 C 
ATOM      6  C   UNL     1       0.781  -1.760  -3.912  0.00  0.00    +0.152 C 
ATOM      7  S   UNL     1      -0.265  -3.238  -4.250  0.00  0.00    -0.106 S 
ATOM      8  C   UNL     1       0.717  -4.450  -3.398  0.00  0.00    -0.013 C 
ATOM      9  C   UNL     1       1.585  -3.792  -2.643  0.00  0.00    -0.046 C 
ATOM     10  C   UNL     1       2.601  -4.540  -1.783  0.00  0.00    +0.032 C 
ATOM     11  C   UNL     1       2.129  -5.980  -1.588  0.00  0.00    +0.005 C 
ATOM     12  C   UNL     1       1.825  -6.607  -2.952  0.00  0.00    +0.005 C 
ATOM     13  C   UNL     1       0.575  -5.941  -3.522  0.00  0.00    +0.042 C 
BRANCH   5  15
ATOM     14  N   UNL     1       0.688  -0.476  -1.203  0.00  0.00    -0.315 N 
ATOM     15  C   UNL     1       0.827  -1.799  -1.425  0.00  0.00    +0.223 C 
ATOM     16  O   UNL     1       0.384  -2.597  -0.627  0.00  0.00    -0.275 OA
ATOM     17  H   UNL     1       1.042   0.162  -1.842  0.00  0.00    +0.149 HD
BRANCH  14  19
ATOM     18  C   UNL     1      -0.019   1.526   0.010  0.00  0.00    +0.024 C 
ATOM     19  C   UNL     1       0.002  -0.004   0.002  0.00  0.00    +0.101 C 
ENDBRANCH  14  19
ENDBRANCH   5  15
ENDBRANCH   1   6
BRANCH   2  20
ATOM     20  C   UNL     1       2.316  -1.621  -7.373  0.00  0.00    +0.131 C 
ATOM     21  N   UNL     1       3.466  -1.002  -7.317  0.00  0.00    -0.148 NA
ATOM     22  N   UNL     1       4.066  -0.901  -8.438  0.00  0.00    -0.153 NA
ATOM     23  C   UNL     1       3.417  -1.438  -9.447  0.00  0.00    +0.080 C 
ATOM     24  C   UNL     1       2.144  -2.001  -8.835  0.00  0.00    +0.120 C 
BRANCH  23  25
ATOM     25  C   UNL     1       3.831  -1.489 -10.851  0.00  0.00    +0.040 A 
ATOM     26  C   UNL     1       3.009  -2.100 -11.808  0.00  0.00    +0.013 A 
ATOM     27  C   UNL     1       3.406  -2.143 -13.125  0.00  0.00    +0.004 A 
ATOM     28  C   UNL     1       4.615  -1.585 -13.511  0.00  0.00    -0.044 A 
ATOM     29  C   UNL     1       5.436  -0.979 -12.580  0.00  0.00    -0.005 A 
ATOM     30  C   UNL     1       5.054  -0.919 -11.249  0.00  0.00    +0.129 A 
ATOM     31  C   UNL     1       6.748  -0.376 -13.014  0.00  0.00    +0.048 C 
ATOM     32  C   UNL     1       5.037  -1.640 -14.957  0.00  0.00    +0.044 C 
BRANCH  30  33
ATOM     33  O   UNL     1       5.857  -0.320 -10.335  0.00  0.00    -0.506 OA
ATOM     34  H   UNL     1       6.497  -0.916  -9.923  0.00  0.00    +0.292 HD
ENDBRANCH  30  33
ENDBRANCH  23  25
ENDBRANCH   2  20
TORSDOF 6
