REMARK  Name = ZINC09558548
REMARK  11 active torsions:
REMARK  status: ('A' for Active; 'I' for Inactive)
REMARK    1  A    between atoms: C_1  and  C_2
REMARK    2  A    between atoms: C_4  and  C_18
REMARK    3  A    between atoms: C_5  and  C_17
REMARK    4  A    between atoms: N_6  and  C_7
REMARK    5  A    between atoms: C_10  and  S_13
REMARK    6  A    between atoms: S_13  and  N_16
REMARK    7  A    between atoms: C_18  and  C_20
REMARK    8  A    between atoms: C_20  and  O_21
REMARK    9  A    between atoms: O_21  and  C_22
REMARK   10  A    between atoms: C_22  and  C_24
REMARK   11  A    between atoms: C_25  and  C_26
REMARK                            x       y       z     vdW  Elec       q    Type
REMARK                         _______ _______ _______ _____ _____    ______ ____
ROOT
ATOM      1  C   UNL     1     -13.504  -3.373   0.062  0.00  0.00    +0.064 C 
ATOM      2  C   UNL     1     -12.683  -2.109   0.065  0.00  0.00    +0.022 A 
ATOM      3  C   UNL     1     -11.341  -2.052   0.058  0.00  0.00    +0.034 A 
ATOM      4  C   UNL     1     -10.986  -0.626   0.065  0.00  0.00    +0.042 A 
ATOM      5  C   UNL     1     -12.184   0.063   0.082  0.00  0.00    +0.032 A 
ATOM      6  N   UNL     1     -13.186  -0.837   0.076  0.00  0.00    -0.317 N 
ATOM      7  C   UNL     1     -12.342   1.562   0.100  0.00  0.00    +0.064 C 
ENDROOT
BRANCH   6   8
ATOM      8  C   UNL     1     -14.550  -0.516   0.086  0.00  0.00    +0.047 A 
ATOM      9  C   UNL     1     -15.116   0.149  -0.994  0.00  0.00    +0.028 A 
ATOM     10  C   UNL     1     -16.461   0.460  -0.984  0.00  0.00    +0.030 A 
ATOM     11  C   UNL     1     -17.243   0.118   0.104  0.00  0.00    +0.105 A 
ATOM     12  C   UNL     1     -16.682  -0.540   1.183  0.00  0.00    +0.030 A 
ATOM     13  C   UNL     1     -15.338  -0.858   1.177  0.00  0.00    +0.028 A 
BRANCH  11  14
ATOM     14  S   UNL     1     -18.958   0.522   0.116  0.00  0.00    +0.056 S 
ATOM     15  O   UNL     1     -19.355   0.650  -1.242  0.00  0.00    -0.153 OA
ATOM     16  O   UNL     1     -19.584  -0.389   1.010  0.00  0.00    -0.153 OA
BRANCH  14  17
ATOM     17  N   UNL     1     -19.102   2.026   0.795  0.00  0.00    -0.204 NA
ATOM     18  H   UNL     1     -19.828   2.611   0.527  0.00  0.00    +0.144 HD
ATOM     19  H   UNL     1     -18.461   2.321   1.461  0.00  0.00    +0.144 HD
ENDBRANCH  14  17
ENDBRANCH  11  14
ENDBRANCH   6   8
BRANCH   4  20
ATOM     20  C   UNL     1      -9.639  -0.053   0.060  0.00  0.00    +0.202 C 
ATOM     21  O   UNL     1      -9.492   1.151   0.067  0.00  0.00    -0.288 OA
BRANCH  20  22
ATOM     22  C   UNL     1      -8.434  -0.959   0.047  0.00  0.00    +0.311 C 
BRANCH  22  23
ATOM     23  O   UNL     1      -7.244  -0.169   0.045  0.00  0.00    -0.453 OA
BRANCH  23  24
ATOM     24  C   UNL     1      -6.068  -0.832   0.033  0.00  0.00    +0.332 C 
ATOM     25  O   UNL     1      -6.056  -2.048   0.025  0.00  0.00    -0.246 OA
BRANCH  24  26
ATOM     26  C   UNL     1      -4.848  -0.110   0.031  0.00  0.00    +0.092 C 
ATOM     27  C   UNL     1      -3.671  -0.774   0.019  0.00  0.00    +0.015 C 
BRANCH  27  28
ATOM     28  C   UNL     1      -2.406  -0.026   0.016  0.00  0.00    -0.021 A 
ATOM     29  C   UNL     1      -2.417   1.373   0.026  0.00  0.00    +0.012 A 
ATOM     30  C   UNL     1      -1.229   2.070   0.019  0.00  0.00    +0.050 A 
ATOM     31  C   UNL     1      -0.017   1.389   0.010  0.00  0.00    +0.162 A 
ATOM     32  C   UNL     1       0.002  -0.004   0.002  0.00  0.00    +0.163 A 
ATOM     33  C   UNL     1      -1.186  -0.711   0.004  0.00  0.00    +0.057 A 
ATOM     34  O   UNL     1       1.181  -0.684  -0.007  0.00  0.00    -0.485 OA
ATOM     35  C   UNL     1       2.347   0.055  -0.387  0.00  0.00    +0.270 C 
ATOM     36  C   UNL     1       2.334   1.392   0.366  0.00  0.00    +0.270 C 
ATOM     37  O   UNL     1       1.143   2.099   0.002  0.00  0.00    -0.485 OA
ENDBRANCH  27  28
ENDBRANCH  24  26
ENDBRANCH  23  24
ENDBRANCH  22  23
ENDBRANCH  20  22
ENDBRANCH   4  20
TORSDOF 9
