REMARK  Name = ZINC67292856
REMARK  4 active torsions:
REMARK  status: ('A' for Active; 'I' for Inactive)
REMARK    1  A    between atoms: C_6  and  N_7
REMARK    2  A    between atoms: C_9  and  C_19
REMARK    3  A    between atoms: N_21  and  C_22
REMARK    4  A    between atoms: C_22  and  C_23
REMARK                            x       y       z     vdW  Elec       q    Type
REMARK                         _______ _______ _______ _____ _____    ______ ____
ROOT
ATOM      1  N   UNL     1      -1.170  -0.715   0.012  0.00  0.00    -0.325 N 
ATOM      2  C   UNL     1      -2.139  -0.363   0.828  0.00  0.00    +0.212 A 
ATOM      3  C   UNL     1      -3.454  -1.034   0.782  0.00  0.00    +0.097 A 
ATOM      4  C   UNL     1      -4.198  -1.048   1.954  0.00  0.00    +0.030 A 
ATOM      5  C   UNL     1      -3.615  -0.397   3.130  0.00  0.00    +0.020 A 
ATOM      6  C   UNL     1      -4.164  -0.592   4.402  0.00  0.00    +0.031 A 
ATOM      7  C   UNL     1      -3.595   0.029   5.492  0.00  0.00    +0.042 A 
ATOM      8  C   UNL     1      -2.482   0.845   5.333  0.00  0.00    +0.023 A 
ATOM      9  C   UNL     1      -1.930   1.046   4.084  0.00  0.00    +0.048 A 
ATOM     10  C   UNL     1      -2.489   0.433   2.973  0.00  0.00    +0.138 A 
ATOM     11  O   UNL     1      -1.960   0.625   1.743  0.00  0.00    -0.439 OA
ATOM     12 CL   UNL     1      -4.272  -0.208   7.073  0.00  0.00    -0.084 Cl
ATOM     13  H   UNL     1      -1.283  -1.479  -0.575  0.00  0.00    +0.169 HD
ENDROOT
BRANCH   1  19
ATOM     14  C   UNL     1      -0.033   1.393  -0.019  0.00  0.00    +0.029 A 
ATOM     15  C   UNL     1       1.147   2.109  -0.041  0.00  0.00    +0.051 A 
ATOM     16  C   UNL     1       2.365   1.447  -0.053  0.00  0.00    +0.166 A 
ATOM     17  C   UNL     1       2.403   0.053  -0.043  0.00  0.00    +0.168 A 
ATOM     18  C   UNL     1       1.225  -0.670  -0.021  0.00  0.00    +0.075 A 
ATOM     19  C   UNL     1      -0.002  -0.003  -0.009  0.00  0.00    +0.046 A 
ATOM     20  O   UNL     1       3.708  -0.347  -0.058  0.00  0.00    -0.453 OA
ATOM     21  C   UNL     1       4.459   0.803  -0.491  0.00  0.00    +0.466 C 
ATOM     22  O   UNL     1       3.648   1.917  -0.074  0.00  0.00    -0.453 OA
ENDBRANCH   1  19
BRANCH   3  23
ATOM     23  C   UNL     1      -3.953  -1.663  -0.453  0.00  0.00    +0.249 C 
ATOM     24  O   UNL     1      -3.244  -1.712  -1.440  0.00  0.00    -0.270 OA
ATOM     25  N   UNL     1      -5.196  -2.183  -0.490  0.00  0.00    -0.309 N 
ATOM     26  H   UNL     1      -5.788  -2.078   0.271  0.00  0.00    +0.149 HD
BRANCH  25  27
ATOM     27  C   UNL     1      -5.653  -2.906  -1.679  0.00  0.00    +0.136 C 
BRANCH  27  28
ATOM     28  C   UNL     1      -7.088  -3.389  -1.462  0.00  0.00    +0.135 C 
ATOM     29  C   UNL     1      -7.536  -4.255  -2.659  0.00  0.00    +0.035 C 
ATOM     30  C   UNL     1      -9.012  -3.814  -2.851  0.00  0.00    +0.031 C 
ATOM     31  C   UNL     1      -8.926  -2.318  -2.460  0.00  0.00    +0.160 C 
ATOM     32  O   UNL     1      -7.972  -2.265  -1.384  0.00  0.00    -0.375 OA
ENDBRANCH  27  28
ENDBRANCH  25  27
ENDBRANCH   3  23
TORSDOF 4
