REMARK  Name = ZINC37146540
REMARK  6 active torsions:
REMARK  status: ('A' for Active; 'I' for Inactive)
REMARK    1  A    between atoms: C_1  and  C_2
REMARK    2  A    between atoms: C_2  and  O_3
REMARK    3  A    between atoms: O_3  and  C_4
REMARK    4  A    between atoms: C_4  and  C_6
REMARK    5  A    between atoms: N_11  and  C_13
REMARK    6  A    between atoms: C_18  and  C_20
REMARK                            x       y       z     vdW  Elec       q    Type
REMARK                         _______ _______ _______ _____ _____    ______ ____
ROOT
ATOM      1  C   UNL     1       1.770  -2.368  -2.395  0.00  0.00    +0.081 C 
ATOM      2  C   UNL     1       3.172  -1.882  -2.771  0.00  0.00    +0.011 C 
ATOM      3  C   UNL     1       3.575  -2.503  -4.112  0.00  0.00    -0.018 C 
ATOM      4  C   UNL     1       3.500  -4.027  -4.005  0.00  0.00    -0.078 C 
ATOM      5  N   UNL     1       2.129  -4.430  -3.670  0.00  0.00    +0.383 N 
ATOM      6  C   UNL     1       1.760  -3.898  -2.352  0.00  0.00    -0.064 C 
ATOM      7  H   UNL     1       1.494  -4.070  -4.366  0.00  0.00    -0.081 HD
ENDROOT
BRANCH   5   8
ATOM      8  C   UNL     1       2.043  -5.897  -3.645  0.00  0.00    -0.051 C 
ATOM      9  C   UNL     1       2.566  -6.479  -4.974  0.00  0.00    -0.014 C 
ATOM     10  C   UNL     1       1.637  -7.687  -5.251  0.00  0.00    -0.000 C 
ATOM     11  C   UNL     1       0.256  -7.172  -4.777  0.00  0.00    +0.016 C 
ATOM     12  C   UNL     1       0.575  -6.337  -3.518  0.00  0.00    +0.078 C 
BRANCH  12  13
ATOM     13  C   UNL     1      -0.303  -5.157  -3.460  0.00  0.00    +0.064 C 
ATOM     14  N   UNL     1      -0.980  -4.245  -3.415  0.00  0.00    -0.196 NA
ENDBRANCH  12  13
ENDBRANCH   5   8
BRANCH   1  15
ATOM     15  C   UNL     1       1.395  -1.825  -1.041  0.00  0.00    +0.308 C 
ATOM     16  O   UNL     1       1.143  -2.582  -0.134  0.00  0.00    -0.251 OA
BRANCH  15  17
ATOM     17  O   UNL     1       1.339  -0.498  -0.842  0.00  0.00    -0.465 OA
BRANCH  17  19
ATOM     18  C   UNL     1       0.968   1.477   0.500  0.00  0.00    +0.048 C 
ATOM     19  C   UNL     1       0.977  -0.053   0.466  0.00  0.00    +0.229 C 
ENDBRANCH  17  19
ENDBRANCH  15  17
ENDBRANCH   1  15
TORSDOF 5
