REMARK  Name = ZINC02153348
REMARK  6 active torsions:
REMARK  status: ('A' for Active; 'I' for Inactive)
REMARK    1  A    between atoms: C_6  and  C_7
REMARK    2  A    between atoms: N_8  and  N_9
REMARK    3  A    between atoms: C_10  and  C_12
REMARK    4  A    between atoms: C_12  and  N_13
REMARK    5  A    between atoms: C_15  and  C_18
REMARK    6  A    between atoms: C_18  and  N_19
REMARK                            x       y       z     vdW  Elec       q    Type
REMARK                         _______ _______ _______ _____ _____    ______ ____
ROOT
ATOM      1  C   UNL     1       0.530   5.210   4.304  0.00  0.00    +0.265 C 
ENDROOT
BRANCH   1   2
ATOM      2  N   UNL     1       1.294   4.533   3.254  0.00  0.00    -0.154 N 
ATOM      3  N   UNL     1       0.860   4.259   2.072  0.00  0.00    -0.133 NA
ATOM      4  C   UNL     1       1.822   3.652   1.420  0.00  0.00    +0.194 A 
ATOM      5  N   UNL     1       2.863   3.575   2.248  0.00  0.00    -0.111 NA
ATOM      6  N   UNL     1       2.510   4.122   3.362  0.00  0.00    -0.046 NA
BRANCH   4   7
ATOM      7  C   UNL     1       1.763   3.144   0.002  0.00  0.00    +0.204 C 
BRANCH   7   8
ATOM      8  N   UNL     1       1.290   1.758  -0.001  0.00  0.00    -0.313 N 
ATOM      9  C   UNL     1       2.060   0.648  -0.014  0.00  0.00    +0.202 A 
ATOM     10  N   UNL     1       1.284  -0.401  -0.012  0.00  0.00    -0.223 NA
ATOM     11  C   UNL     1       0.002  -0.004   0.002  0.00  0.00    +0.166 A 
ATOM     12  C   UNL     1      -0.016   1.345   0.009  0.00  0.00    +0.148 A 
ATOM     13 CL   UNL     1      -1.424   2.361   0.022  0.00  0.00    -0.061 Cl
ATOM     14 CL   UNL     1      -1.388  -1.044   0.011  0.00  0.00    -0.059 Cl
ENDBRANCH   7   8
ENDBRANCH   4   7
ENDBRANCH   1   2
BRANCH   1  16
ATOM     15  N   UNL     1       0.124   7.528   5.063  0.00  0.00    -0.205 N 
ATOM     16  C   UNL     1       0.735   6.699   4.195  0.00  0.00    +0.255 C 
ATOM     17  O   UNL     1       1.449   7.150   3.325  0.00  0.00    -0.272 OA
ATOM     18  H   UNL     1      -0.524   7.119   5.852  0.00  0.00    +0.177 HD
BRANCH  15  20
ATOM     19  C   UNL     1      -0.274   9.712   5.798  0.00  0.00    +0.138 C 
ATOM     20  N   UNL     1       0.314   8.913   4.962  0.00  0.00    -0.188 NA
BRANCH  19  26
ATOM     21  C   UNL     1       0.754  11.692   4.694  0.00  0.00    +0.011 A 
ATOM     22  C   UNL     1       0.933  13.056   4.596  0.00  0.00    +0.020 A 
ATOM     23  C   UNL     1       0.303  13.906   5.489  0.00  0.00    +0.041 A 
ATOM     24  C   UNL     1      -0.513  13.393   6.484  0.00  0.00    +0.020 A 
ATOM     25  C   UNL     1      -0.705  12.032   6.590  0.00  0.00    +0.011 A 
ATOM     26  C   UNL     1      -0.073  11.169   5.691  0.00  0.00    -0.005 A 
ATOM     27 CL   UNL     1       0.539  15.621   5.363  0.00  0.00    -0.084 Cl
ENDBRANCH  19  26
ENDBRANCH  15  20
ENDBRANCH   1  16
TORSDOF 6
