REMARK  Name = ZINC39678316
REMARK  9 active torsions:
REMARK  status: ('A' for Active; 'I' for Inactive)
REMARK    1  A    between atoms: C_1  and  C_2
REMARK    2  A    between atoms: C_3  and  C_12
REMARK    3  A    between atoms: C_7  and  O_8
REMARK    4  A    between atoms: O_8  and  C_9
REMARK    5  A    between atoms: C_9  and  C_11
REMARK    6  A    between atoms: C_16  and  C_25
REMARK    7  A    between atoms: N_27  and  C_28
REMARK    8  A    between atoms: C_28  and  C_29
REMARK    9  A    between atoms: C_34  and  N_35
REMARK                            x       y       z     vdW  Elec       q    Type
REMARK                         _______ _______ _______ _____ _____    ______ ____
ROOT
ATOM      1  C   UNL     1      -0.485   0.256  -3.274  0.00  0.00    +0.247 C 
ATOM      2  O   UNL     1      -0.444   1.453  -3.482  0.00  0.00    -0.270 OA
ATOM      3  N   UNL     1      -0.745  -0.595  -4.286  0.00  0.00    -0.296 N 
ATOM      4  C   UNL     1      -0.968  -2.058  -4.208  0.00  0.00    +0.121 C 
ATOM      5  C   UNL     1      -2.103  -2.335  -5.220  0.00  0.00    +0.100 C 
ATOM      6  C   UNL     1      -2.034  -1.165  -6.216  0.00  0.00    -0.004 C 
ATOM      7  C   UNL     1      -0.879  -0.278  -5.728  0.00  0.00    +0.115 C 
ATOM      8  C   UNL     1      -3.340  -0.377  -6.197  0.00  0.00    -0.010 C 
ATOM      9  C   UNL     1      -3.268   0.745  -7.237  0.00  0.00    -0.082 C 
ATOM     10  N   UNL     1      -3.040   0.169  -8.567  0.00  0.00    +0.379 N 
ATOM     11  C   UNL     1      -1.738  -0.509  -8.603  0.00  0.00    -0.082 C 
ATOM     12  C   UNL     1      -1.745  -1.684  -7.621  0.00  0.00    -0.010 C 
ATOM     13  H   UNL     1      -3.770  -0.497  -8.774  0.00  0.00    -0.086 HD
ATOM     14  H   UNL     1      -3.054   0.904  -9.258  0.00  0.00    -0.086 HD
ENDROOT
BRANCH   1  17
ATOM     15  C   UNL     1      -1.435   1.751  -0.986  0.00  0.00    +0.048 C 
ATOM     16  C   UNL     1      -0.705   0.446  -0.800  0.00  0.00    +0.004 A 
ATOM     17  C   UNL     1      -0.251  -0.266  -1.910  0.00  0.00    +0.043 A 
ATOM     18  C   UNL     1       0.426  -1.474  -1.730  0.00  0.00    +0.013 A 
ATOM     19  C   UNL     1       0.643  -1.958  -0.456  0.00  0.00    +0.004 A 
ATOM     20  C   UNL     1       0.192  -1.251   0.643  0.00  0.00    +0.047 A 
ATOM     21  C   UNL     1      -0.477  -0.046   0.474  0.00  0.00    +0.135 A 
BRANCH  21  22
ATOM     22  O   UNL     1      -0.913   0.647   1.558  0.00  0.00    -0.426 OA
BRANCH  22  23
ATOM     23  C   UNL     1      -0.208   1.722   1.944  0.00  0.00    +0.309 C 
ATOM     24  O   UNL     1       0.832   1.993   1.392  0.00  0.00    -0.251 OA
ATOM     25  C   UNL     1      -0.714   2.592   3.066  0.00  0.00    +0.136 C 
ENDBRANCH  22  23
ENDBRANCH  21  22
ENDBRANCH   1  17
BRANCH   5  26
ATOM     26  C   UNL     1      -1.867  -3.644  -5.927  0.00  0.00    +0.218 C 
ATOM     27  O   UNL     1      -0.804  -3.857  -6.472  0.00  0.00    -0.275 OA
ATOM     28  N   UNL     1      -2.837  -4.579  -5.954  0.00  0.00    -0.311 N 
ATOM     29  H   UNL     1      -3.687  -4.410  -5.519  0.00  0.00    +0.149 HD
BRANCH  28  30
ATOM     30  C   UNL     1      -2.608  -5.853  -6.642  0.00  0.00    +0.141 C 
BRANCH  30  31
ATOM     31  C   UNL     1      -3.839  -6.715  -6.526  0.00  0.00    -0.009 A 
ATOM     32  C   UNL     1      -3.893  -7.720  -5.580  0.00  0.00    +0.007 A 
ATOM     33  C   UNL     1      -5.021  -8.511  -5.473  0.00  0.00    +0.000 A 
ATOM     34  C   UNL     1      -6.100  -8.300  -6.313  0.00  0.00    +0.002 A 
ATOM     35  C   UNL     1      -6.053  -7.296  -7.260  0.00  0.00    +0.023 A 
ATOM     36  C   UNL     1      -4.923  -6.496  -7.367  0.00  0.00    +0.034 A 
BRANCH  36  37
ATOM     37  N   UNL     1      -4.874  -5.476  -8.320  0.00  0.00    -0.330 N 
ATOM     38  C   UNL     1      -4.366  -5.741  -9.674  0.00  0.00    +0.105 C 
ATOM     39  C   UNL     1      -5.415  -5.285 -10.692  0.00  0.00    +0.019 C 
ATOM     40  C   UNL     1      -5.772  -3.821 -10.430  0.00  0.00    +0.003 C 
ATOM     41  C   UNL     1      -6.369  -3.682  -9.028  0.00  0.00    +0.019 C 
ATOM     42  C   UNL     1      -5.336  -4.121  -7.992  0.00  0.00    +0.105 C 
ENDBRANCH  36  37
ENDBRANCH  30  31
ENDBRANCH  28  30
ENDBRANCH   5  26
TORSDOF 7
