REMARK  Name = ZINC38732925
REMARK  3 active torsions:
REMARK  status: ('A' for Active; 'I' for Inactive)
REMARK    1  A    between atoms: C_13  and  C_15
REMARK    2  A    between atoms: C_21  and  C_23
REMARK    3  A    between atoms: N_25  and  C_26
REMARK                            x       y       z     vdW  Elec       q    Type
REMARK                         _______ _______ _______ _____ _____    ______ ____
ROOT
ATOM      1  C   UNL     1       0.201  -6.640   1.164  0.00  0.00    +0.091 C 
ATOM      2  C   UNL     1      -0.654  -6.216   2.360  0.00  0.00    +0.040 C 
ATOM      3  C   UNL     1      -1.814  -7.154   2.525  0.00  0.00    -0.030 C 
ATOM      4  C   UNL     1      -1.880  -8.328   1.982  0.00  0.00    -0.030 C 
ATOM      5  C   UNL     1      -0.811  -8.910   1.105  0.00  0.00    +0.040 C 
ATOM      6  C   UNL     1       0.499  -8.140   1.283  0.00  0.00    +0.091 C 
ENDROOT
BRANCH   1  19
ATOM      7  C   UNL     1       2.666   1.062  -1.290  0.00  0.00    +0.005 A 
ATOM      8  C   UNL     1       1.445   1.665  -1.560  0.00  0.00    +0.018 A 
ATOM      9  C   UNL     1       0.296   0.900  -1.549  0.00  0.00    +0.084 A 
ATOM     10  N   UNL     1       0.346  -0.393  -1.286  0.00  0.00    -0.350 N 
ATOM     11  C   UNL     1       1.491  -1.004  -1.023  0.00  0.00    +0.099 A 
ATOM     12  C   UNL     1       2.687  -0.294  -1.018  0.00  0.00    +0.042 A 
ATOM     13  N   UNL     1       1.497  -2.367  -0.751  0.00  0.00    -0.314 N 
ATOM     14  C   UNL     1       2.765  -3.090  -0.584  0.00  0.00    +0.125 C 
ATOM     15  C   UNL     1       2.749  -3.800   0.775  0.00  0.00    +0.126 C 
ATOM     16  N   UNL     1       1.488  -4.544   0.902  0.00  0.00    -0.298 N 
ATOM     17  C   UNL     1       0.219  -3.820   0.735  0.00  0.00    +0.126 C 
ATOM     18  C   UNL     1       0.235  -3.109  -0.619  0.00  0.00    +0.125 C 
ATOM     19  C   UNL     1       1.494  -5.865   1.166  0.00  0.00    +0.220 C 
ATOM     20  O   UNL     1       2.540  -6.431   1.405  0.00  0.00    -0.275 OA
ATOM     21  H   UNL     1      -0.476  -0.907  -1.285  0.00  0.00    +0.166 HD
ENDBRANCH   1  19
BRANCH   6  22
ATOM     22  C   UNL     1       1.480  -8.548   0.214  0.00  0.00    +0.221 C 
ATOM     23  O   UNL     1       1.902  -7.722  -0.569  0.00  0.00    -0.275 OA
ATOM     24  N   UNL     1       1.888  -9.829   0.127  0.00  0.00    -0.285 N 
ATOM     25  H   UNL     1       1.605 -10.475   0.793  0.00  0.00    +0.155 HD
BRANCH  24  26
ATOM     26  C   UNL     1       2.720 -10.229  -0.925  0.00  0.00    +0.037 A 
ATOM     27  C   UNL     1       3.669  -9.351  -1.425  0.00  0.00    +0.023 A 
ATOM     28  C   UNL     1       4.488  -9.747  -2.464  0.00  0.00    +0.002 A 
ATOM     29  C   UNL     1       4.354 -11.012  -3.000  0.00  0.00    +0.004 A 
ATOM     30  C   UNL     1       3.403 -11.896  -2.504  0.00  0.00    -0.042 A 
ATOM     31  C   UNL     1       2.592 -11.510  -1.461  0.00  0.00    -0.023 A 
ATOM     32  C   UNL     1       1.556 -12.423  -0.860  0.00  0.00    +0.037 C 
ATOM     33  C   UNL     1       1.248 -13.583  -1.804  0.00  0.00    +0.005 C 
ATOM     34  C   UNL     1       2.574 -14.232  -2.221  0.00  0.00    +0.005 C 
ATOM     35  C   UNL     1       3.310 -13.256  -3.144  0.00  0.00    +0.035 C 
ENDBRANCH  24  26
ENDBRANCH   6  22
TORSDOF 3
