REMARK  Name = ZINC18263229
REMARK  8 active torsions:
REMARK  status: ('A' for Active; 'I' for Inactive)
REMARK    1  A    between atoms: C_1  and  C_2
REMARK    2  A    between atoms: C_4  and  C_30
REMARK    3  A    between atoms: C_6  and  S_10
REMARK    4  A    between atoms: C_7  and  C_8
REMARK    5  A    between atoms: S_10  and  C_11
REMARK    6  A    between atoms: C_11  and  C_13
REMARK    7  A    between atoms: C_11  and  C_14
REMARK    8  A    between atoms: C_20  and  C_25
REMARK                            x       y       z     vdW  Elec       q    Type
REMARK                         _______ _______ _______ _____ _____    ______ ____
ROOT
ATOM      1  C   UNL     1      -2.143   1.058   1.278  0.00  0.00    +0.124 A 
ATOM      2  N   UNL     1      -3.144   1.835   0.791  0.00  0.00    -0.309 N 
ATOM      3  H   UNL     1      -2.936   2.716   0.443  0.00  0.00    +0.170 HD
ATOM      4  C   UNL     1      -4.420   1.406   0.783  0.00  0.00    +0.260 A 
ATOM      5  O   UNL     1      -5.308   2.116   0.343  0.00  0.00    -0.267 OA
ATOM      6  C   UNL     1      -4.718   0.105   1.298  0.00  0.00    +0.083 A 
ATOM      7  C   UNL     1      -6.005  -0.576   1.396  0.00  0.00    +0.039 A 
ATOM      8  C   UNL     1      -6.042  -1.825   1.927  0.00  0.00    +0.059 A 
ATOM      9  S   UNL     1      -4.336  -2.153   2.327  0.00  0.00    -0.076 S 
ATOM     10  C   UNL     1      -3.620  -0.626   1.779  0.00  0.00    +0.116 A 
ATOM     11  N   UNL     1      -2.383  -0.136   1.749  0.00  0.00    -0.225 NA
ENDROOT
BRANCH   7  12
ATOM     12  C   UNL     1      -7.242   0.080   0.927  0.00  0.00    +0.136 A 
ATOM     13  C   UNL     1      -8.166  -0.464   0.090  0.00  0.00    +0.050 A 
ATOM     14  C   UNL     1      -9.176   0.504  -0.085  0.00  0.00    +0.042 A 
ATOM     15  C   UNL     1      -8.818   1.583   0.638  0.00  0.00    +0.196 A 
ATOM     16  O   UNL     1      -7.649   1.323   1.249  0.00  0.00    -0.463 OA
ENDBRANCH   7  12
BRANCH   1  17
ATOM     17  C   UNL     1      -0.729   1.579   1.267  0.00  0.00    +0.116 C 
ATOM     18  C   UNL     1      -0.013   1.086   0.008  0.00  0.00    +0.027 C 
BRANCH  17  19
ATOM     19  S   UNL     1       0.147   0.980   2.733  0.00  0.00    -0.094 S 
BRANCH  19  25
ATOM     20  C   UNL     1       5.021   2.204   4.329  0.00  0.00    +0.045 C 
ATOM     21  C   UNL     1       3.898   2.357   3.336  0.00  0.00    -0.029 A 
ATOM     22  C   UNL     1       4.033   3.185   2.235  0.00  0.00    +0.027 A 
ATOM     23  C   UNL     1       2.985   3.305   1.340  0.00  0.00    +0.040 A 
ATOM     24  N   UNL     1       1.857   2.644   1.515  0.00  0.00    -0.244 NA
ATOM     25  C   UNL     1       1.675   1.838   2.550  0.00  0.00    +0.115 A 
ATOM     26  C   UNL     1       2.692   1.668   3.506  0.00  0.00    +0.086 A 
ATOM     27  C   UNL     1       3.135   4.208   0.143  0.00  0.00    +0.065 C 
BRANCH  26  28
ATOM     28  C   UNL     1       2.498   0.802   4.630  0.00  0.00    +0.102 C 
ATOM     29  N   UNL     1       2.345   0.116   5.522  0.00  0.00    -0.191 NA
ENDBRANCH  26  28
ENDBRANCH  19  25
ENDBRANCH  17  19
ENDBRANCH   1  17
TORSDOF 5
