REMARK  Name = ZINC17246321
REMARK  8 active torsions:
REMARK  status: ('A' for Active; 'I' for Inactive)
REMARK    1  A    between atoms: C_1  and  C_2
REMARK    2  A    between atoms: C_2  and  C_3
REMARK    3  A    between atoms: C_3  and  C_5
REMARK    4  A    between atoms: C_3  and  N_6
REMARK    5  A    between atoms: C_8  and  C_14
REMARK    6  A    between atoms: C_21  and  O_22
REMARK    7  A    between atoms: O_22  and  C_23
REMARK    8  A    between atoms: N_29  and  C_30
REMARK                            x       y       z     vdW  Elec       q    Type
REMARK                         _______ _______ _______ _____ _____    ______ ____
ROOT
ATOM      1  C   UNL     1      -3.775   2.253  -0.950  0.00  0.00    +0.008 C 
ATOM      2  C   UNL     1      -2.763   1.373  -0.263  0.00  0.00    -0.008 A 
ATOM      3  C   UNL     1      -2.911   0.004  -0.204  0.00  0.00    -0.040 A 
ATOM      4  C   UNL     1      -1.951  -0.770   0.430  0.00  0.00    +0.053 A 
ATOM      5  C   UNL     1      -0.842  -0.178   1.012  0.00  0.00    +0.170 A 
ATOM      6  C   UNL     1      -0.692   1.203   0.958  0.00  0.00    +0.208 A 
ATOM      7  C   UNL     1      -1.651   1.974   0.317  0.00  0.00    +0.167 A 
ATOM      8  O   UNL     1       0.468   1.541   1.597  0.00  0.00    -0.449 OA
ATOM      9  C   UNL     1       0.816   0.394   2.394  0.00  0.00    +0.467 C 
ATOM     10  O   UNL     1       0.222  -0.709   1.683  0.00  0.00    -0.452 OA
ATOM     11  C   UNL     1      -4.105  -0.689  -0.810  0.00  0.00    +0.017 C 
ATOM     12  C   UNL     1      -4.807   0.246  -1.795  0.00  0.00    -0.073 C 
ATOM     13  N   UNL     1      -5.042   1.537  -1.128  0.00  0.00    +0.386 N 
ATOM     14  C   UNL     1      -6.005   2.351  -1.881  0.00  0.00    -0.095 C 
ATOM     15  H   UNL     1      -5.472   1.345  -0.134  0.00  0.00    -0.081 HD
ENDROOT
BRANCH   1  18
ATOM     16  N   UNL     1      -3.829   5.807   0.228  0.00  0.00    -0.285 N 
ATOM     17  C   UNL     1      -3.593   4.706  -0.550  0.00  0.00    +0.260 A 
ATOM     18  C   UNL     1      -4.012   3.486  -0.116  0.00  0.00    +0.072 A 
ATOM     19  C   UNL     1      -4.667   3.393   1.130  0.00  0.00    +0.258 A 
ATOM     20  O   UNL     1      -5.048   2.308   1.544  0.00  0.00    -0.267 OA
ATOM     21  N   UNL     1      -4.870   4.501   1.858  0.00  0.00    -0.302 N 
ATOM     22  C   UNL     1      -4.464   5.677   1.426  0.00  0.00    +0.164 A 
ATOM     23  S   UNL     1      -4.750   7.108   2.414  0.00  0.00    -0.013 S 
ATOM     24  O   UNL     1      -2.956   4.830  -1.736  0.00  0.00    -0.267 OA
ATOM     25  H   UNL     1      -5.380   4.435   2.831  0.00  0.00    +0.171 HD
BRANCH  16  26
ATOM     26  C   UNL     1      -3.391   7.129  -0.226  0.00  0.00    +0.089 C 
ATOM     27  C   UNL     1      -4.190   7.533  -1.466  0.00  0.00    +0.031 C 
BRANCH  26  29
ATOM     28  C   UNL     1      -1.427   8.479  -0.976  0.00  0.00    +0.006 C 
ATOM     29  C   UNL     1      -1.901   7.082  -0.572  0.00  0.00    +0.021 C 
ENDBRANCH  26  29
ENDBRANCH  16  26
ENDBRANCH   1  18
BRANCH   7  30
ATOM     30  O   UNL     1      -1.506   3.325   0.262  0.00  0.00    -0.491 OA
ATOM     31  C   UNL     1      -0.682   3.848  -0.782  0.00  0.00    +0.277 C 
ENDBRANCH   7  30
TORSDOF 4
