REMARK  Name = ZINC13644692
REMARK  8 active torsions:
REMARK  status: ('A' for Active; 'I' for Inactive)
REMARK    1  A    between atoms: C_1  and  C_2
REMARK    2  A    between atoms: C_2  and  N_3
REMARK    3  A    between atoms: C_4  and  C_35
REMARK    4  A    between atoms: C_5  and  C_8
REMARK    5  A    between atoms: C_16  and  C_17
REMARK    6  A    between atoms: C_22  and  C_34
REMARK    7  A    between atoms: C_25  and  C_31
REMARK    8  A    between atoms: C_28  and  C_30
REMARK                            x       y       z     vdW  Elec       q    Type
REMARK                         _______ _______ _______ _____ _____    ______ ____
ROOT
ATOM      1  C   UNL     1       7.214  -0.048   2.169  0.00  0.00    +0.079 A 
ATOM      2  C   UNL     1       8.006  -1.179   2.081  0.00  0.00    +0.048 A 
ATOM      3  C   UNL     1       7.453  -2.357   1.586  0.00  0.00    +0.115 A 
ATOM      4  N   UNL     1       6.191  -2.391   1.209  0.00  0.00    -0.235 NA
ATOM      5  C   UNL     1       5.414  -1.311   1.293  0.00  0.00    +0.168 A 
ATOM      6  N   UNL     1       5.905  -0.127   1.764  0.00  0.00    -0.213 N 
ATOM      7  N   UNL     1       4.873   0.817   1.731  0.00  0.00    -0.172 NA
ATOM      8  C   UNL     1       3.789   0.263   1.259  0.00  0.00    +0.150 A 
ATOM      9  C   UNL     1       4.064  -1.084   0.958  0.00  0.00    +0.101 A 
ENDROOT
BRANCH   9  10
ATOM     10  C   UNL     1       3.125  -2.065   0.408  0.00  0.00    +0.257 C 
ATOM     11  O   UNL     1       3.186  -3.229   0.759  0.00  0.00    -0.269 OA
ATOM     12  N   UNL     1       2.195  -1.679  -0.487  0.00  0.00    -0.249 N 
ATOM     13  C   UNL     1       2.179  -0.389  -1.029  0.00  0.00    +0.127 A 
ATOM     14  C   UNL     1       3.123   0.575  -0.981  0.00  0.00    +0.068 A 
ATOM     15  C   UNL     1       2.631   1.686  -1.678  0.00  0.00    +0.062 A 
ATOM     16  N   UNL     1       1.433   1.395  -2.127  0.00  0.00    -0.174 NA
ATOM     17  N   UNL     1       1.122   0.095  -1.732  0.00  0.00    -0.241 N 
ATOM     18  C   UNL     1      -0.102  -0.669  -1.992  0.00  0.00    +0.177 C 
ATOM     19  C   UNL     1      -0.192  -1.820  -0.984  0.00  0.00    +0.055 C 
ATOM     20  C   UNL     1       1.132  -2.591  -0.953  0.00  0.00    +0.082 C 
ATOM     21  C   UNL     1       1.014  -3.776   0.007  0.00  0.00    +0.028 C 
ATOM     22  C   UNL     1       3.354   2.992  -1.879  0.00  0.00    +0.067 C 
BRANCH  18  23
ATOM     23  C   UNL     1      -1.319   0.246  -1.839  0.00  0.00    +0.365 C 
ATOM     24  F   UNL     1      -1.226   1.302  -2.753  0.00  0.00    -0.207 F 
ATOM     25  F   UNL     1      -2.486  -0.484  -2.088  0.00  0.00    -0.207 F 
ENDBRANCH  18  23
ENDBRANCH   9  10
BRANCH   1  28
ATOM     26  N   UNL     1       8.813   2.684   3.944  0.00  0.00    -0.268 N 
ATOM     27  C   UNL     1       8.508   1.377   3.838  0.00  0.00    +0.045 A 
ATOM     28  C   UNL     1       7.766   1.219   2.687  0.00  0.00    +0.041 A 
ATOM     29  C   UNL     1       7.637   2.494   2.093  0.00  0.00    +0.144 A 
ATOM     30  N   UNL     1       8.257   3.357   2.850  0.00  0.00    -0.179 NA
ATOM     31  C   UNL     1       8.907   0.288   4.800  0.00  0.00    +0.066 C 
BRANCH  26  33
ATOM     32  C   UNL     1      11.076   3.290   4.644  0.00  0.00    +0.029 C 
ATOM     33  C   UNL     1       9.593   3.297   5.021  0.00  0.00    +0.140 C 
ENDBRANCH  26  33
ENDBRANCH   1  28
TORSDOF 4
