REMARK  Name = ZINC38733069
REMARK  8 active torsions:
REMARK  status: ('A' for Active; 'I' for Inactive)
REMARK    1  A    between atoms: C_1  and  O_2
REMARK    2  A    between atoms: O_2  and  C_3
REMARK    3  A    between atoms: C_3  and  C_5
REMARK    4  A    between atoms: C_5  and  C_7
REMARK    5  A    between atoms: C_5  and  N_17
REMARK    6  A    between atoms: C_7  and  C_8
REMARK    7  A    between atoms: C_18  and  C_20
REMARK    8  A    between atoms: C_26  and  C_28
REMARK                            x       y       z     vdW  Elec       q    Type
REMARK                         _______ _______ _______ _____ _____    ______ ____
ROOT
ATOM      1  C   UNL     1      -4.765  -3.105   1.192  0.00  0.00    +0.091 C 
ATOM      2  C   UNL     1      -4.892  -4.505   0.587  0.00  0.00    +0.040 C 
ATOM      3  C   UNL     1      -6.267  -5.052   0.834  0.00  0.00    -0.030 C 
ATOM      4  C   UNL     1      -7.086  -4.582   1.719  0.00  0.00    -0.030 C 
ATOM      5  C   UNL     1      -6.779  -3.418   2.615  0.00  0.00    +0.040 C 
ATOM      6  C   UNL     1      -5.274  -3.149   2.638  0.00  0.00    +0.091 C 
ENDROOT
BRANCH   6   7
ATOM      7  C   UNL     1      -5.001  -1.828   3.311  0.00  0.00    +0.220 C 
ATOM      8  O   UNL     1      -4.886  -0.821   2.646  0.00  0.00    -0.275 OA
ATOM      9  N   UNL     1      -4.886  -1.766   4.653  0.00  0.00    -0.298 N 
ATOM     10  C   UNL     1      -4.917  -2.992   5.463  0.00  0.00    +0.126 C 
ATOM     11  C   UNL     1      -3.648  -3.043   6.323  0.00  0.00    +0.125 C 
ATOM     12  N   UNL     1      -3.489  -1.749   7.002  0.00  0.00    -0.314 N 
ATOM     13  C   UNL     1      -3.458  -0.523   6.191  0.00  0.00    +0.125 C 
ATOM     14  C   UNL     1      -4.721  -0.473   5.331  0.00  0.00    +0.126 C 
ATOM     15  C   UNL     1      -3.369  -1.686   8.385  0.00  0.00    +0.099 A 
ATOM     16  C   UNL     1      -3.266  -2.861   9.123  0.00  0.00    +0.042 A 
ATOM     17  C   UNL     1      -3.148  -2.783  10.499  0.00  0.00    +0.005 A 
ATOM     18  C   UNL     1      -3.138  -1.528  11.093  0.00  0.00    +0.018 A 
ATOM     19  C   UNL     1      -3.244  -0.403  10.300  0.00  0.00    +0.084 A 
ATOM     20  N   UNL     1      -3.350  -0.507   8.989  0.00  0.00    -0.350 N 
ATOM     21  H   UNL     1      -3.420   0.299   8.454  0.00  0.00    +0.166 HD
ENDBRANCH   6   7
BRANCH   1  23
ATOM     22  N   UNL     1      -2.660  -2.575   0.005  0.00  0.00    -0.302 N 
ATOM     23  C   UNL     1      -3.320  -2.675   1.176  0.00  0.00    +0.218 C 
ATOM     24  O   UNL     1      -2.752  -2.420   2.217  0.00  0.00    -0.275 OA
ATOM     25  H   UNL     1      -3.115  -2.779  -0.827  0.00  0.00    +0.150 HD
BRANCH  22  26
ATOM     26  C   UNL     1      -1.256  -2.157  -0.010  0.00  0.00    +0.186 C 
BRANCH  26  27
ATOM     27  C   UNL     1      -1.180  -0.652  -0.003  0.00  0.00    +0.328 C 
ATOM     28  O   UNL     1      -2.194   0.004   0.013  0.00  0.00    -0.249 OA
BRANCH  27  30
ATOM     29  C   UNL     1       0.013   1.389  -0.008  0.00  0.00    +0.280 C 
ATOM     30  O   UNL     1       0.015  -0.040  -0.015  0.00  0.00    -0.467 OA
ENDBRANCH  27  30
ENDBRANCH  26  27
BRANCH  26  31
ATOM     31  C   UNL     1      -0.577  -2.696  -1.271  0.00  0.00    +0.071 C 
BRANCH  31  32
ATOM     32  C   UNL     1      -0.545  -4.202  -1.218  0.00  0.00    -0.020 A 
ATOM     33  C   UNL     1      -1.613  -5.112  -1.639  0.00  0.00    +0.003 A 
ATOM     34  C   UNL     1      -2.889  -4.928  -2.175  0.00  0.00    +0.010 A 
ATOM     35  C   UNL     1      -3.663  -6.015  -2.470  0.00  0.00    +0.001 A 
ATOM     36  C   UNL     1      -3.192  -7.300  -2.240  0.00  0.00    +0.002 A 
ATOM     37  C   UNL     1      -1.936  -7.504  -1.712  0.00  0.00    +0.026 A 
ATOM     38  C   UNL     1      -1.130  -6.413  -1.405  0.00  0.00    +0.047 A 
ATOM     39  N   UNL     1       0.137  -6.287  -0.881  0.00  0.00    -0.360 N 
ATOM     40  C   UNL     1       0.471  -4.964  -0.782  0.00  0.00    +0.087 A 
ATOM     41  H   UNL     1       0.709  -7.027  -0.624  0.00  0.00    +0.165 HD
ENDBRANCH  31  32
ENDBRANCH  26  31
ENDBRANCH  22  26
ENDBRANCH   1  23
TORSDOF 7
