REMARK  Name = ZINC43198692
REMARK  8 active torsions:
REMARK  status: ('A' for Active; 'I' for Inactive)
REMARK    1  A    between atoms: C_1  and  C_2
REMARK    2  A    between atoms: C_5  and  S_8
REMARK    3  A    between atoms: S_8  and  N_11
REMARK    4  A    between atoms: N_11  and  N_12
REMARK    5  A    between atoms: N_29  and  N_30
REMARK    6  A    between atoms: N_30  and  S_31
REMARK    7  A    between atoms: S_31  and  C_34
REMARK    8  A    between atoms: C_37  and  C_40
REMARK                            x       y       z     vdW  Elec       q    Type
REMARK                         _______ _______ _______ _____ _____    ______ ____
ROOT
ATOM      1  N   UNL     1       2.500  -4.622   1.014  0.00  0.00    -0.175 NA
ATOM      2  C   UNL     1       3.737  -4.938   0.921  0.00  0.00    +0.045 C 
ATOM      3  C   UNL     1       4.418  -5.682  -0.232  0.00  0.00    +0.039 C 
ATOM      4  C   UNL     1       3.441  -6.652  -0.947  0.00  0.00    +0.010 C 
ATOM      5  C   UNL     1       3.761  -8.098  -0.399  0.00  0.00    +0.010 C 
ATOM      6  C   UNL     1       4.277  -7.716   0.927  0.00  0.00    +0.039 C 
ATOM      7  C   UNL     1       5.368  -6.615   0.545  0.00  0.00    +0.011 C 
ATOM      8  C   UNL     1       5.657  -5.987   1.887  0.00  0.00    +0.011 C 
ATOM      9  C   UNL     1       4.861  -4.643   1.948  0.00  0.00    +0.039 C 
ATOM     10  C   UNL     1       4.234  -4.676   3.381  0.00  0.00    +0.010 C 
ATOM     11  C   UNL     1       4.623  -6.052   4.036  0.00  0.00    +0.010 C 
ATOM     12  C   UNL     1       4.745  -6.868   2.810  0.00  0.00    +0.039 C 
ATOM     13  C   UNL     1       4.742  -8.253   2.227  0.00  0.00    +0.045 C 
ATOM     14  N   UNL     1       5.048  -9.415   2.667  0.00  0.00    -0.175 NA
ENDROOT
BRANCH   1  15
ATOM     15  N   UNL     1       2.078  -3.733   2.011  0.00  0.00    -0.137 N 
ATOM     16  H   UNL     1       2.732  -3.281   2.567  0.00  0.00    +0.197 HD
BRANCH  15  17
ATOM     17  S   UNL     1       0.462  -3.455   2.242  0.00  0.00    +0.086 S 
ATOM     18  O   UNL     1      -0.068  -3.068   0.982  0.00  0.00    -0.149 OA
ATOM     19  O   UNL     1       0.352  -2.636   3.398  0.00  0.00    -0.149 OA
BRANCH  17  24
ATOM     20  C   UNL     1      -2.081  -8.748   3.630  0.00  0.00    +0.044 C 
ATOM     21  C   UNL     1      -1.446  -7.426   3.284  0.00  0.00    -0.050 A 
ATOM     22  C   UNL     1      -0.952  -6.612   4.286  0.00  0.00    +0.005 A 
ATOM     23  C   UNL     1      -0.369  -5.400   3.968  0.00  0.00    +0.029 A 
ATOM     24  C   UNL     1      -0.280  -5.001   2.648  0.00  0.00    +0.110 A 
ATOM     25  C   UNL     1      -0.773  -5.815   1.645  0.00  0.00    +0.029 A 
ATOM     26  C   UNL     1      -1.352  -7.029   1.963  0.00  0.00    +0.005 A 
ENDBRANCH  17  24
ENDBRANCH  15  17
ENDBRANCH   1  15
BRANCH  14  27
ATOM     27  N   UNL     1       5.465  -9.574   3.995  0.00  0.00    -0.137 N 
ATOM     28  H   UNL     1       5.522  -8.803   4.581  0.00  0.00    +0.197 HD
BRANCH  27  29
ATOM     29  S   UNL     1       5.861 -11.078   4.564  0.00  0.00    +0.086 S 
ATOM     30  O   UNL     1       6.375 -10.894   5.876  0.00  0.00    -0.149 OA
ATOM     31  O   UNL     1       4.750 -11.921   4.292  0.00  0.00    -0.149 OA
BRANCH  29  32
ATOM     32  C   UNL     1       7.196 -11.673   3.579  0.00  0.00    +0.110 A 
ATOM     33  C   UNL     1       6.938 -12.395   2.429  0.00  0.00    +0.029 A 
ATOM     34  C   UNL     1       7.986 -12.862   1.657  0.00  0.00    +0.005 A 
ATOM     35  C   UNL     1       9.290 -12.606   2.034  0.00  0.00    -0.050 A 
ATOM     36  C   UNL     1       9.548 -11.883   3.184  0.00  0.00    +0.005 A 
ATOM     37  C   UNL     1       8.501 -11.413   3.954  0.00  0.00    +0.029 A 
ATOM     38  C   UNL     1      10.432 -13.115   1.193  0.00  0.00    +0.044 C 
ENDBRANCH  29  32
ENDBRANCH  27  29
ENDBRANCH  14  27
TORSDOF 6
