REMARK  Name = ZINC36597107
REMARK  15 active torsions:
REMARK  status: ('A' for Active; 'I' for Inactive)
REMARK    1  A    between atoms: C_1  and  C_2
REMARK    2  A    between atoms: C_2  and  C_3
REMARK    3  A    between atoms: C_3  and  C_4
REMARK    4  A    between atoms: C_4  and  N_5
REMARK    5  A    between atoms: C_6  and  C_8
REMARK    6  A    between atoms: C_8  and  C_10
REMARK    7  A    between atoms: C_8  and  N_19
REMARK    8  A    between atoms: C_13  and  O_18
REMARK    9  A    between atoms: C_14  and  O_16
REMARK   10  A    between atoms: O_16  and  C_17
REMARK   11  A    between atoms: N_19  and  C_20
REMARK   12  A    between atoms: C_20  and  C_21
REMARK   13  A    between atoms: C_24  and  C_26
REMARK   14  A    between atoms: C_27  and  C_29
REMARK   15  A    between atoms: C_30  and  C_31
REMARK                            x       y       z     vdW  Elec       q    Type
REMARK                         _______ _______ _______ _____ _____    ______ ____
ROOT
ATOM      1  C   UNL     1       2.531  -4.501  -3.675  0.00  0.00    +0.194 C 
ENDROOT
BRANCH   1   2
ATOM      2  C   UNL     1       4.006  -4.772  -3.529  0.00  0.00    -0.014 A 
ATOM      3  C   UNL     1       4.436  -5.913  -2.878  0.00  0.00    +0.010 A 
ATOM      4  C   UNL     1       5.788  -6.167  -2.741  0.00  0.00    +0.049 A 
ATOM      5  C   UNL     1       6.715  -5.276  -3.258  0.00  0.00    +0.158 A 
ATOM      6  C   UNL     1       6.282  -4.128  -3.914  0.00  0.00    +0.162 A 
ATOM      7  C   UNL     1       4.926  -3.882  -4.051  0.00  0.00    +0.055 A 
BRANCH   6   8
ATOM      8  O   UNL     1       7.189  -3.251  -4.423  0.00  0.00    -0.491 OA
ATOM      9  C   UNL     1       6.672  -2.094  -5.083  0.00  0.00    +0.277 C 
ENDBRANCH   6   8
BRANCH   5  10
ATOM     10  O   UNL     1       8.046  -5.524  -3.124  0.00  0.00    -0.503 OA
ATOM     11  H   UNL     1       8.426  -6.035  -3.851  0.00  0.00    +0.292 HD
ENDBRANCH   5  10
ENDBRANCH   1   2
BRANCH   1  13
ATOM     12  N   UNL     1       1.142  -4.643  -1.633  0.00  0.00    -0.313 N 
ATOM     13  C   UNL     1       1.770  -5.286  -2.637  0.00  0.00    +0.238 C 
ATOM     14  O   UNL     1       1.724  -6.496  -2.706  0.00  0.00    -0.273 OA
ATOM     15  H   UNL     1       1.179  -3.676  -1.578  0.00  0.00    +0.149 HD
BRANCH  12  16
ATOM     16  C   UNL     1       0.403  -5.406  -0.624  0.00  0.00    +0.104 C 
BRANCH  16  17
ATOM     17  C   UNL     1      -0.210  -4.444   0.395  0.00  0.00    +0.018 C 
BRANCH  17  19
ATOM     18  C   UNL     1      -1.596  -4.279   2.468  0.00  0.00    +0.004 C 
ATOM     19  C   UNL     1      -0.982  -5.241   1.449  0.00  0.00    -0.002 C 
ENDBRANCH  17  19
ENDBRANCH  16  17
ENDBRANCH  12  16
ENDBRANCH   1  13
BRANCH   1  20
ATOM     20  N   UNL     1       2.090  -4.905  -5.013  0.00  0.00    -0.268 N 
ATOM     21  C   UNL     1       1.864  -3.972  -5.958  0.00  0.00    +0.293 C 
ATOM     22  O   UNL     1       2.027  -2.793  -5.701  0.00  0.00    -0.260 OA
BRANCH  21  23
ATOM     23  C   UNL     1       1.434  -4.366  -7.266  0.00  0.00    -0.003 C 
ATOM     24  C   UNL     1       1.081  -4.690  -8.337  0.00  0.00    -0.057 C 
BRANCH  24  25
ATOM     25  C   UNL     1       0.650  -5.085  -9.645  0.00  0.00    +0.025 A 
ATOM     26  C   UNL     1       0.457  -6.438  -9.943  0.00  0.00    +0.017 A 
ATOM     27  C   UNL     1       0.041  -6.810 -11.204  0.00  0.00    +0.001 A 
ATOM     28  C   UNL     1      -0.184  -5.848 -12.174  0.00  0.00    +0.000 A 
ATOM     29  C   UNL     1       0.005  -4.508 -11.887  0.00  0.00    +0.001 A 
ATOM     30  C   UNL     1       0.415  -4.119 -10.629  0.00  0.00    +0.017 A 
ENDBRANCH  24  25
ENDBRANCH  21  23
BRANCH  20  31
ATOM     31  C   UNL     1       1.895  -6.324  -5.322  0.00  0.00    +0.184 C 
BRANCH  31  32
ATOM     32  C   UNL     1       0.432  -6.667  -5.202  0.00  0.00    +0.122 A 
ATOM     33  C   UNL     1      -0.427  -6.819  -6.226  0.00  0.00    +0.046 A 
ATOM     34  C   UNL     1      -1.684  -7.135  -5.662  0.00  0.00    +0.045 A 
ATOM     35  C   UNL     1      -1.518  -7.158  -4.328  0.00  0.00    +0.102 A 
ATOM     36  O   UNL     1      -0.233  -6.880  -4.055  0.00  0.00    -0.463 OA
ATOM     37  C   UNL     1      -2.591  -7.452  -3.311  0.00  0.00    +0.086 C 
ENDBRANCH  31  32
ENDBRANCH  20  31
ENDBRANCH   1  20
TORSDOF 12
