REMARK  Name = ZINC63383617
REMARK  7 active torsions:
REMARK  status: ('A' for Active; 'I' for Inactive)
REMARK    1  A    between atoms: C_1  and  N_2
REMARK    2  A    between atoms: C_15  and  C_17
REMARK    3  A    between atoms: C_19  and  O_36
REMARK    4  A    between atoms: N_21  and  C_28
REMARK    5  A    between atoms: N_24  and  C_27
REMARK    6  A    between atoms: C_31  and  O_34
REMARK    7  A    between atoms: O_34  and  C_35
REMARK                            x       y       z     vdW  Elec       q    Type
REMARK                         _______ _______ _______ _____ _____    ______ ____
ROOT
ATOM      1  C   UNL     1       0.185  -0.142   2.238  0.00  0.00    +0.112 C 
ATOM      2  C   UNL     1      -0.208   1.317   1.992  0.00  0.00    +0.221 C 
ATOM      3  N   UNL     1       0.840   2.199   2.508  0.00  0.00    -0.228 N 
ATOM      4  C   UNL     1       1.516   1.889   3.626  0.00  0.00    +0.317 C 
ATOM      5  O   UNL     1       2.306   2.691   4.084  0.00  0.00    -0.252 OA
ATOM      6  N   UNL     1       1.341   0.712   4.250  0.00  0.00    -0.228 N 
ATOM      7  C   UNL     1       0.668  -0.294   3.659  0.00  0.00    +0.228 C 
ATOM      8  O   UNL     1       0.449  -1.319   4.267  0.00  0.00    -0.275 OA
ATOM      9  C   UNL     1       1.891   0.519   5.594  0.00  0.00    +0.143 C 
ENDROOT
BRANCH   1  23
ATOM     10  C   UNL     1       0.653  -2.840   1.175  0.00  0.00    -0.096 C 
ATOM     11  N   UNL     1       1.733  -1.918   1.552  0.00  0.00    +0.382 N 
ATOM     12  C   UNL     1       2.057  -2.117   2.967  0.00  0.00    -0.074 C 
ATOM     13  C   UNL     1       3.295  -1.288   3.355  0.00  0.00    +0.015 C 
ATOM     14  C   UNL     1       3.022   0.117   2.878  0.00  0.00    -0.042 C 
ATOM     15  C   UNL     1       3.117   1.298   3.471  0.00  0.00    -0.001 A 
ATOM     16  C   UNL     1       3.662   1.701   4.777  0.00  0.00    +0.010 A 
ATOM     17  C   UNL     1       3.572   3.022   5.084  0.00  0.00    +0.001 A 
ATOM     18  C   UNL     1       3.001   3.973   4.231  0.00  0.00    +0.002 A 
ATOM     19  C   UNL     1       2.486   3.693   3.007  0.00  0.00    +0.026 A 
ATOM     20  C   UNL     1       2.534   2.338   2.569  0.00  0.00    +0.043 A 
ATOM     21  N   UNL     1       2.147   1.803   1.447  0.00  0.00    -0.379 N 
ATOM     22  C   UNL     1       2.506   0.387   1.468  0.00  0.00    +0.093 C 
ATOM     23  C   UNL     1       1.304  -0.539   1.273  0.00  0.00    -0.026 C 
ATOM     24  H   UNL     1       1.698   2.265   0.722  0.00  0.00    +0.160 HD
ATOM     25  H   UNL     1       2.550  -2.127   0.998  0.00  0.00    -0.082 HD
ENDBRANCH   1  23
BRANCH   3  26
ATOM     26  C   UNL     1       1.143   3.385   1.825  0.00  0.00    +0.040 A 
ATOM     27  C   UNL     1       2.354   3.514   1.159  0.00  0.00    +0.027 A 
ATOM     28  C   UNL     1       2.651   4.682   0.486  0.00  0.00    +0.047 A 
ATOM     29  C   UNL     1       1.740   5.728   0.476  0.00  0.00    +0.120 A 
ATOM     30  C   UNL     1       0.530   5.601   1.141  0.00  0.00    +0.047 A 
ATOM     31  C   UNL     1       0.229   4.430   1.810  0.00  0.00    +0.027 A 
BRANCH  29  32
ATOM     32  O   UNL     1       2.034   6.879  -0.186  0.00  0.00    -0.495 OA
ATOM     33  C   UNL     1       1.050   7.915  -0.154  0.00  0.00    +0.277 C 
ENDBRANCH  29  32
ENDBRANCH   3  26
BRANCH   2  34
ATOM     34  O   UNL     1      -0.368   1.537   0.590  0.00  0.00    -0.373 OA
ATOM     35  H   UNL     1      -0.543   2.458   0.354  0.00  0.00    +0.212 HD
ENDBRANCH   2  34
TORSDOF 4
