REMARK  Name = ZINC39703085
REMARK  5 active torsions:
REMARK  status: ('A' for Active; 'I' for Inactive)
REMARK    1  A    between atoms: C_1  and  C_2
REMARK    2  A    between atoms: N_14  and  C_17
REMARK    3  A    between atoms: C_17  and  C_18
REMARK    4  A    between atoms: C_18  and  N_19
REMARK    5  A    between atoms: C_20  and  C_22
REMARK                            x       y       z     vdW  Elec       q    Type
REMARK                         _______ _______ _______ _____ _____    ______ ____
ROOT
ATOM      1  C   UNL     1      -0.018   1.503   0.010  0.00  0.00    +0.047 C 
ATOM      2  C   UNL     1       0.002  -0.004   0.002  0.00  0.00    -0.006 A 
ATOM      3  C   UNL     1       0.006  -0.676  -1.194  0.00  0.00    +0.046 A 
ATOM      4  C   UNL     1       0.024  -2.063  -1.246  0.00  0.00    +0.021 A 
ATOM      5  C   UNL     1       0.040  -2.784  -0.066  0.00  0.00    +0.019 A 
ATOM      6  C   UNL     1       0.037  -2.120   1.135  0.00  0.00    +0.041 A 
ATOM      7  C   UNL     1       0.023  -0.710   1.227  0.00  0.00    +0.085 A 
ATOM      8  N   UNL     1       0.028  -0.205   2.480  0.00  0.00    -0.224 NA
ATOM      9  C   UNL     1       0.048  -0.969   3.548  0.00  0.00    +0.162 A 
ATOM     10  S   UNL     1       0.052  -2.611   2.842  0.00  0.00    -0.052 S 
ATOM     11  N   UNL     1       0.054  -0.599   4.878  0.00  0.00    -0.313 N 
ATOM     12  C   UNL     1       0.032   0.820   5.268  0.00  0.00    +0.088 C 
ATOM     13  C   UNL     1      -1.082   1.022   6.300  0.00  0.00    -0.059 C 
ATOM     14  N   UNL     1      -0.887   0.089   7.418  0.00  0.00    +0.383 N 
ATOM     15  C   UNL     1      -1.032  -1.294   6.945  0.00  0.00    -0.059 C 
ATOM     16  C   UNL     1       0.078  -1.611   5.945  0.00  0.00    +0.088 C 
ATOM     17 CL   UNL     1      -0.014   0.228  -2.676  0.00  0.00    -0.083 Cl
ATOM     18  H   UNL     1       0.036   0.216   7.803  0.00  0.00    -0.082 HD
ENDROOT
BRANCH  14  19
ATOM     19  C   UNL     1      -1.890   0.357   8.457  0.00  0.00    -0.060 C 
BRANCH  19  20
ATOM     20  C   UNL     1      -1.612  -0.528   9.674  0.00  0.00    +0.086 C 
BRANCH  20  21
ATOM     21  N   UNL     1      -2.612  -0.261  10.711  0.00  0.00    -0.313 N 
ATOM     22  C   UNL     1      -2.566  -0.929  11.880  0.00  0.00    +0.244 C 
ATOM     23  O   UNL     1      -1.694  -1.755  12.074  0.00  0.00    -0.270 OA
ATOM     24  H   UNL     1      -3.307   0.398  10.556  0.00  0.00    +0.149 HD
BRANCH  22  25
ATOM     25  C   UNL     1      -3.574  -0.659  12.926  0.00  0.00    +0.037 A 
ATOM     26  C   UNL     1      -4.579   0.283  12.704  0.00  0.00    +0.014 A 
ATOM     27  C   UNL     1      -5.517   0.531  13.684  0.00  0.00    +0.016 A 
ATOM     28  C   UNL     1      -5.464  -0.154  14.887  0.00  0.00    +0.018 A 
ATOM     29  C   UNL     1      -4.469  -1.090  15.113  0.00  0.00    +0.016 A 
ATOM     30  C   UNL     1      -3.529  -1.351  14.138  0.00  0.00    +0.014 A 
ATOM     31 BR   UNL     1      -6.754   0.192  16.225  0.00  0.00    -0.050 Br
ENDBRANCH  22  25
ENDBRANCH  20  21
ENDBRANCH  19  20
ENDBRANCH  14  19
TORSDOF 4
