REMARK  Name = ZINC09092444
REMARK  6 active torsions:
REMARK  status: ('A' for Active; 'I' for Inactive)
REMARK    1  A    between atoms: C_5  and  C_7
REMARK    2  A    between atoms: C_10  and  S_13
REMARK    3  A    between atoms: N_11  and  N_12
REMARK    4  A    between atoms: S_13  and  C_14
REMARK    5  A    between atoms: C_14  and  C_15
REMARK    6  A    between atoms: N_17  and  C_18
REMARK                            x       y       z     vdW  Elec       q    Type
REMARK                         _______ _______ _______ _____ _____    ______ ____
ROOT
ATOM      1  C   UNL     1       1.246  -2.160  -0.077  0.00  0.00    +0.183 A 
ATOM      2  N   UNL     1       2.316  -2.920  -0.083  0.00  0.00    -0.127 NA
ATOM      3  N   UNL     1       1.975  -4.159  -0.077  0.00  0.00    -0.121 NA
ATOM      4  C   UNL     1       0.665  -4.266  -0.067  0.00  0.00    +0.209 A 
ATOM      5  N   UNL     1       0.155  -2.999  -0.061  0.00  0.00    -0.224 N 
ENDROOT
BRANCH   1  10
ATOM      6  C   UNL     1      -0.021   1.375  -0.069  0.00  0.00    +0.001 A 
ATOM      7  C   UNL     1       1.165   2.087  -0.085  0.00  0.00    +0.001 A 
ATOM      8  C   UNL     1       2.378   1.422  -0.099  0.00  0.00    +0.016 A 
ATOM      9  C   UNL     1       2.412   0.042  -0.096  0.00  0.00    +0.029 A 
ATOM     10  C   UNL     1       1.218  -0.682  -0.080  0.00  0.00    +0.035 A 
ATOM     11  C   UNL     1      -0.002  -0.004  -0.066  0.00  0.00    +0.013 A 
ATOM     12 BR   UNL     1       4.071  -0.866  -0.116  0.00  0.00    -0.050 Br
ENDBRANCH   1  10
BRANCH   5  13
ATOM     13  N   UNL     1      -1.162  -2.639  -0.046  0.00  0.00    -0.295 N 
ATOM     14  H   UNL     1      -1.522  -2.546  -0.984  0.00  0.00    +0.163 HD
ATOM     15  H   UNL     1      -1.710  -3.296   0.488  0.00  0.00    +0.163 HD
ENDBRANCH   5  13
BRANCH   4  16
ATOM     16  S   UNL     1      -0.262  -5.765  -0.056  0.00  0.00    -0.075 S 
BRANCH  16  17
ATOM     17  C   UNL     1       1.005  -7.064  -0.062  0.00  0.00    +0.173 C 
BRANCH  17  18
ATOM     18  C   UNL     1       0.339  -8.415  -0.053  0.00  0.00    +0.228 C 
ATOM     19  O   UNL     1      -0.872  -8.495  -0.045  0.00  0.00    -0.275 OA
ATOM     20  N   UNL     1       1.088  -9.536  -0.056  0.00  0.00    -0.284 N 
ATOM     21  H   UNL     1       2.053  -9.474  -0.128  0.00  0.00    +0.155 HD
BRANCH  20  22
ATOM     22  C   UNL     1       0.472 -10.790   0.047  0.00  0.00    +0.052 A 
ATOM     23  C   UNL     1      -0.767 -11.006  -0.540  0.00  0.00    +0.026 A 
ATOM     24  C   UNL     1      -1.373 -12.243  -0.437  0.00  0.00    +0.022 A 
ATOM     25  C   UNL     1      -0.745 -13.267   0.250  0.00  0.00    +0.042 A 
ATOM     26  C   UNL     1       0.490 -13.055   0.836  0.00  0.00    +0.041 A 
ATOM     27  C   UNL     1       1.103 -11.821   0.731  0.00  0.00    +0.064 A 
ATOM     28 CL   UNL     1       2.657 -11.557   1.460  0.00  0.00    -0.082 Cl
ATOM     29 CL   UNL     1      -1.509 -14.821   0.377  0.00  0.00    -0.083 Cl
ENDBRANCH  20  22
ENDBRANCH  17  18
ENDBRANCH  16  17
ENDBRANCH   4  16
TORSDOF 6
