REMARK  Name = ZINC36601082
REMARK  11 active torsions:
REMARK  status: ('A' for Active; 'I' for Inactive)
REMARK    1  A    between atoms: C_1  and  C_2
REMARK    2  A    between atoms: C_5  and  C_7
REMARK    3  A    between atoms: C_7  and  N_8
REMARK    4  A    between atoms: N_8  and  C_9
REMARK    5  A    between atoms: C_9  and  C_11
REMARK    6  A    between atoms: C_9  and  C_25
REMARK    7  A    between atoms: N_27  and  C_28
REMARK    8  A    between atoms: C_28  and  C_29
REMARK    9  A    between atoms: C_28  and  C_30
REMARK   10  A    between atoms: C_28  and  C_31
REMARK   11  A    between atoms: C_32  and  C_34
REMARK                            x       y       z     vdW  Elec       q    Type
REMARK                         _______ _______ _______ _____ _____    ______ ____
ROOT
ATOM      1  C   UNL     1       3.121  -3.005  -1.998  0.00  0.00    +0.193 C 
ENDROOT
BRANCH   1   2
ATOM      2  C   UNL     1       4.127  -4.083  -2.312  0.00  0.00    -0.010 A 
ATOM      3  C   UNL     1       4.369  -4.405  -3.599  0.00  0.00    +0.015 A 
ATOM      4  C   UNL     1       5.302  -5.409  -3.946  0.00  0.00    -0.017 A 
ATOM      5  C   UNL     1       5.547  -5.736  -5.287  0.00  0.00    +0.008 A 
ATOM      6  C   UNL     1       6.453  -6.709  -5.592  0.00  0.00    +0.001 A 
ATOM      7  C   UNL     1       7.141  -7.384  -4.590  0.00  0.00    +0.001 A 
ATOM      8  C   UNL     1       6.925  -7.088  -3.274  0.00  0.00    +0.009 A 
ATOM      9  C   UNL     1       6.003  -6.098  -2.930  0.00  0.00    -0.010 A 
ATOM     10  C   UNL     1       5.740  -5.748  -1.531  0.00  0.00    -0.010 A 
ATOM     11  C   UNL     1       4.800  -4.731  -1.251  0.00  0.00    -0.012 A 
ATOM     12  C   UNL     1       4.545  -4.386   0.084  0.00  0.00    +0.009 A 
ATOM     13  C   UNL     1       5.209  -5.027   1.088  0.00  0.00    +0.001 A 
ATOM     14  C   UNL     1       6.138  -6.023   0.808  0.00  0.00    +0.001 A 
ATOM     15  C   UNL     1       6.399  -6.391  -0.481  0.00  0.00    +0.009 A 
ENDBRANCH   1   2
BRANCH   1  16
ATOM     16  C   UNL     1       2.853  -2.192  -3.239  0.00  0.00    +0.239 C 
ATOM     17  O   UNL     1       1.730  -2.132  -3.693  0.00  0.00    -0.273 OA
ATOM     18  N   UNL     1       3.861  -1.532  -3.843  0.00  0.00    -0.309 N 
ATOM     19  H   UNL     1       4.758  -1.580  -3.479  0.00  0.00    +0.149 HD
BRANCH  18  20
ATOM     20  C   UNL     1       3.599  -0.742  -5.048  0.00  0.00    +0.026 C 
ATOM     21  C   UNL     1       2.579   0.353  -4.730  0.00  0.00    +0.031 C 
ATOM     22  C   UNL     1       4.902  -0.100  -5.530  0.00  0.00    +0.031 C 
ATOM     23  C   UNL     1       3.044  -1.653  -6.145  0.00  0.00    +0.031 C 
ENDBRANCH  18  20
ENDBRANCH   1  16
BRANCH   1  24
ATOM     24  N   UNL     1       1.874  -3.620  -1.538  0.00  0.00    -0.277 N 
ATOM     25  C   UNL     1       1.238  -4.518  -2.316  0.00  0.00    +0.237 C 
ATOM     26  O   UNL     1       1.731  -4.866  -3.367  0.00  0.00    -0.274 OA
BRANCH  25  27
ATOM     27  C   UNL     1      -0.086  -5.090  -1.878  0.00  0.00    +0.159 C 
ATOM     28  C   UNL     1       0.134  -6.236  -0.867  0.00  0.00    +0.041 C 
ATOM     29  C   UNL     1       0.139  -7.476  -1.791  0.00  0.00    +0.098 C 
ATOM     30  C   UNL     1      -0.661  -7.041  -2.998  0.00  0.00    +0.214 C 
ATOM     31  O   UNL     1      -1.132  -7.792  -3.827  0.00  0.00    -0.276 OA
ATOM     32  N   UNL     1      -0.778  -5.700  -3.020  0.00  0.00    -0.304 N 
ATOM     33  H   UNL     1      -1.256  -5.201  -3.701  0.00  0.00    +0.149 HD
ENDBRANCH  25  27
BRANCH  24  34
ATOM     34  C   UNL     1       1.318  -3.258  -0.232  0.00  0.00    +0.183 C 
BRANCH  34  39
ATOM     35  C   UNL     1      -0.381   1.485  -0.482  0.00  0.00    +0.086 C 
ATOM     36  C   UNL     1      -0.353  -0.022  -0.499  0.00  0.00    +0.102 A 
ATOM     37  C   UNL     1      -1.410  -0.826  -0.708  0.00  0.00    +0.045 A 
ATOM     38  C   UNL     1      -0.934  -2.156  -0.638  0.00  0.00    +0.046 A 
ATOM     39  C   UNL     1       0.386  -2.084  -0.390  0.00  0.00    +0.122 A 
ATOM     40  O   UNL     1       0.734  -0.789  -0.312  0.00  0.00    -0.463 OA
ENDBRANCH  34  39
ENDBRANCH  24  34
ENDBRANCH   1  24
TORSDOF 7
