REMARK  Name = ZINC16739038
REMARK  6 active torsions:
REMARK  status: ('A' for Active; 'I' for Inactive)
REMARK    1  A    between atoms: C_3  and  N_19
REMARK    2  A    between atoms: C_4  and  N_16
REMARK    3  A    between atoms: C_6  and  S_7
REMARK    4  A    between atoms: S_7  and  N_10
REMARK    5  A    between atoms: C_24  and  C_25
REMARK    6  A    between atoms: C_24  and  N_66
REMARK                            x       y       z     vdW  Elec       q    Type
REMARK                         _______ _______ _______ _____ _____    ______ ____
ROOT
ATOM      1  C   UNL     1       3.646  -2.272  -0.733  0.00  0.00    +0.030 A 
ATOM      2  C   UNL     1       4.058  -2.591  -2.012  0.00  0.00    +0.027 A 
ATOM      3  C   UNL     1       4.753  -1.658  -2.769  0.00  0.00    +0.060 A 
ATOM      4  C   UNL     1       5.028  -0.404  -2.239  0.00  0.00    +0.149 A 
ATOM      5  C   UNL     1       4.609  -0.089  -0.961  0.00  0.00    +0.063 A 
ATOM      6  C   UNL     1       3.916  -1.021  -0.210  0.00  0.00    +0.108 A 
ENDROOT
BRANCH   3   7
ATOM      7  N   UNL     1       5.176  -1.979  -4.061  0.00  0.00    -0.332 N 
ATOM      8  C   UNL     1       4.027  -2.227  -4.944  0.00  0.00    +0.086 C 
ATOM      9  C   UNL     1       4.529  -2.496  -6.365  0.00  0.00    -0.059 C 
ATOM     10  C   UNL     1       6.586  -3.403  -5.468  0.00  0.00    -0.059 C 
ATOM     11  C   UNL     1       6.084  -3.134  -4.047  0.00  0.00    +0.086 C 
ATOM     12  N   UNL     1       5.423  -3.673  -6.340  0.00  0.00    +0.387 N 
ATOM     13  H   UNL     1       4.906  -4.478  -5.967  0.00  0.00    -0.081 HD
BRANCH  12  14
ATOM     14  C   UNL     1       5.881  -3.989  -7.709  0.00  0.00    +0.019 C 
BRANCH  14  15
ATOM     15  C   UNL     1       6.601  -5.313  -7.688  0.00  0.00    +0.199 C 
ATOM     16  O   UNL     1       6.634  -5.969  -6.669  0.00  0.00    -0.278 OA
ATOM     17  N   UNL     1       7.209  -5.768  -8.802  0.00  0.00    -0.303 N 
ATOM     18  C   UNL     1       7.172  -4.987 -10.046  0.00  0.00    +0.107 C 
ATOM     19  C   UNL     1       8.613  -4.790 -10.542  0.00  0.00    +0.019 C 
ATOM     20  C   UNL     1       9.291  -6.155 -10.676  0.00  0.00    +0.003 C 
ATOM     21  C   UNL     1       9.342  -6.838  -9.308  0.00  0.00    +0.019 C 
ATOM     22  C   UNL     1       7.915  -7.056  -8.797  0.00  0.00    +0.107 C 
ENDBRANCH  14  15
ENDBRANCH  12  14
ENDBRANCH   3   7
BRANCH   6  23
ATOM     23  S   UNL     1       3.383  -0.616   1.420  0.00  0.00    +0.061 S 
ATOM     24  O   UNL     1       4.238   0.421   1.881  0.00  0.00    -0.153 OA
ATOM     25  O   UNL     1       3.233  -1.846   2.115  0.00  0.00    -0.153 OA
BRANCH  23  26
ATOM     26  N   UNL     1       1.869   0.042   1.290  0.00  0.00    -0.177 NA
ATOM     27  C   UNL     1       0.674  -0.811   1.351  0.00  0.00    +0.109 C 
ATOM     28  C   UNL     1      -0.188  -0.541   0.113  0.00  0.00    +0.017 C 
ATOM     29  C   UNL     1      -0.489   0.957   0.023  0.00  0.00    +0.003 C 
ATOM     30  C   UNL     1       0.821   1.734  -0.122  0.00  0.00    +0.017 C 
ATOM     31  C   UNL     1       1.695   1.490   1.113  0.00  0.00    +0.109 C 
ENDBRANCH  23  26
ENDBRANCH   6  23
BRANCH   4  32
ATOM     32  N   UNL     1       5.769   0.595  -3.042  0.00  0.00    +0.058 N 
ATOM     33  O   UNL     1       6.009   1.694  -2.576  0.00  0.00    -0.126 OA
ATOM     34  O   UNL     1       6.138   0.317  -4.169  0.00  0.00    -0.126 OA
ENDBRANCH   4  32
TORSDOF 6
