REMARK  Name = ZINC35708430
REMARK  8 active torsions:
REMARK  status: ('A' for Active; 'I' for Inactive)
REMARK    1  A    between atoms: C_1  and  N_2
REMARK    2  A    between atoms: N_2  and  C_3
REMARK    3  A    between atoms: C_3  and  C_4
REMARK    4  A    between atoms: C_14  and  S_16
REMARK    5  A    between atoms: S_16  and  C_17
REMARK    6  A    between atoms: C_17  and  C_18
REMARK    7  A    between atoms: C_22  and  C_24
REMARK    8  A    between atoms: N_26  and  C_27
REMARK                            x       y       z     vdW  Elec       q    Type
REMARK                         _______ _______ _______ _____ _____    ______ ____
ROOT
ATOM      1  C   UNL     1      -0.267  -6.394  -4.233  0.00  0.00    -0.036 A 
ATOM      2  C   UNL     1       0.885  -7.160  -4.242  0.00  0.00    +0.004 A 
ATOM      3  C   UNL     1       0.807  -8.536  -4.359  0.00  0.00    +0.001 A 
ATOM      4  C   UNL     1      -0.422  -9.154  -4.467  0.00  0.00    +0.013 A 
ATOM      5  C   UNL     1      -1.588  -8.387  -4.458  0.00  0.00    +0.037 A 
ATOM      6  C   UNL     1      -1.502  -6.999  -4.335  0.00  0.00    +0.017 A 
ENDROOT
BRANCH   5   7
ATOM      7  C   UNL     1      -2.908  -9.042  -4.574  0.00  0.00    +0.245 C 
ATOM      8  O   UNL     1      -3.922  -8.372  -4.567  0.00  0.00    -0.270 OA
ATOM      9  N   UNL     1      -2.988 -10.383  -4.689  0.00  0.00    -0.300 N 
ATOM     10  H   UNL     1      -2.179 -10.918  -4.695  0.00  0.00    +0.150 HD
BRANCH   9  11
ATOM     11  C   UNL     1      -4.296 -11.032  -4.803  0.00  0.00    +0.159 C 
ATOM     12  C   UNL     1      -4.141 -12.381  -5.510  0.00  0.00    +0.032 C 
ATOM     13  C   UNL     1      -5.441 -12.792  -6.175  0.00  0.00    +0.004 C 
ATOM     14  C   UNL     1      -6.560 -13.100  -5.196  0.00  0.00    +0.019 C 
ATOM     15  C   UNL     1      -6.999 -11.835  -4.456  0.00  0.00    +0.104 C 
ATOM     16  N   UNL     1      -6.136 -11.656  -3.277  0.00  0.00    -0.314 N 
ATOM     17  C   UNL     1      -4.868 -11.272  -3.422  0.00  0.00    +0.233 C 
ATOM     18  O   UNL     1      -4.168 -11.119  -2.443  0.00  0.00    -0.274 OA
ATOM     19  H   UNL     1      -6.493 -11.815  -2.389  0.00  0.00    +0.149 HD
ENDBRANCH   9  11
ENDBRANCH   5   7
BRANCH   1  20
ATOM     20  C   UNL     1      -0.173  -4.895  -4.106  0.00  0.00    +0.112 C 
BRANCH  20  21
ATOM     21  S   UNL     1      -0.206  -4.434  -2.352  0.00  0.00    -0.081 S 
BRANCH  21  28
ATOM     22  C   UNL     1      -0.018   1.461   0.010  0.00  0.00    +0.131 C 
ATOM     23  N   UNL     1       0.002  -0.004   0.002  0.00  0.00    -0.314 N 
ATOM     24  C   UNL     1       0.000  -0.690  -1.202  0.00  0.00    +0.127 A 
ATOM     25  C   UNL     1       0.090   0.001  -2.411  0.00  0.00    +0.083 A 
ATOM     26  C   UNL     1       0.085  -0.725  -3.588  0.00  0.00    +0.135 A 
ATOM     27  N   UNL     1      -0.005  -2.047  -3.534  0.00  0.00    -0.210 NA
ATOM     28  C   UNL     1      -0.089  -2.676  -2.371  0.00  0.00    +0.192 A 
ATOM     29  N   UNL     1      -0.082  -2.017  -1.221  0.00  0.00    -0.207 NA
ATOM     30 CL   UNL     1       0.194   0.085  -5.120  0.00  0.00    -0.062 Cl
BRANCH  23  31
ATOM     31  C   UNL     1       0.024  -0.743   1.267  0.00  0.00    +0.141 C 
BRANCH  31  32
ATOM     32  C   UNL     1      -1.389  -1.016   1.714  0.00  0.00    -0.030 A 
ATOM     33  C   UNL     1      -2.047  -0.105   2.518  0.00  0.00    +0.005 A 
ATOM     34  C   UNL     1      -3.344  -0.355   2.929  0.00  0.00    +0.000 A 
ATOM     35  C   UNL     1      -3.981  -1.516   2.534  0.00  0.00    +0.000 A 
ATOM     36  C   UNL     1      -3.323  -2.427   1.728  0.00  0.00    +0.000 A 
ATOM     37  C   UNL     1      -2.029  -2.175   1.315  0.00  0.00    +0.005 A 
ENDBRANCH  31  32
ENDBRANCH  23  31
ENDBRANCH  21  28
ENDBRANCH  20  21
ENDBRANCH   1  20
TORSDOF 7
