REMARK  Name = ZINC66672817
REMARK  3 active torsions:
REMARK  status: ('A' for Active; 'I' for Inactive)
REMARK    1  A    between atoms: C_10  and  N_12
REMARK    2  A    between atoms: C_13  and  N_17
REMARK    3  A    between atoms: C_18  and  C_20
REMARK                            x       y       z     vdW  Elec       q    Type
REMARK                         _______ _______ _______ _____ _____    ______ ____
ROOT
ATOM      1  N   UNL     1       6.393   0.660   0.642  0.00  0.00    -0.265 N 
ATOM      2  C   UNL     1       7.575   1.281   0.820  0.00  0.00    +0.270 C 
ATOM      3  O   UNL     1       8.136   1.803  -0.124  0.00  0.00    -0.268 OA
ATOM      4  H   UNL     1       5.945   0.244   1.396  0.00  0.00    +0.157 HD
ENDROOT
BRANCH   2   5
ATOM      5  C   UNL     1       8.190   1.327   2.161  0.00  0.00    +0.154 A 
ATOM      6  C   UNL     1       9.479   2.008   2.367  0.00  0.00    +0.020 A 
ATOM      7  C   UNL     1      10.174   2.631   1.336  0.00  0.00    +0.011 A 
ATOM      8  C   UNL     1      11.377   3.248   1.607  0.00  0.00    +0.001 A 
ATOM      9  C   UNL     1      11.899   3.254   2.894  0.00  0.00    +0.001 A 
ATOM     10  C   UNL     1      11.225   2.642   3.930  0.00  0.00    +0.014 A 
ATOM     11  C   UNL     1      10.010   2.014   3.677  0.00  0.00    +0.050 A 
ATOM     12  C   UNL     1       9.227   1.339   4.721  0.00  0.00    +0.272 A 
ATOM     13  O   UNL     1       9.623   1.305   5.872  0.00  0.00    -0.266 OA
ATOM     14  N   UNL     1       8.060   0.758   4.375  0.00  0.00    -0.242 N 
ATOM     15  H   UNL     1       7.546   0.314   5.067  0.00  0.00    +0.192 HD
ATOM     16  N   UNL     1       7.592   0.767   3.185  0.00  0.00    -0.166 NA
ENDBRANCH   2   5
BRANCH   1  18
ATOM     17  N   UNL     1       4.631   0.029  -0.946  0.00  0.00    -0.243 N 
ATOM     18  C   UNL     1       5.812   0.616  -0.624  0.00  0.00    +0.124 A 
ATOM     19  C   UNL     1       6.325   1.155  -1.764  0.00  0.00    +0.065 A 
ATOM     20  C   UNL     1       5.432   0.887  -2.804  0.00  0.00    +0.136 A 
ATOM     21  N   UNL     1       4.423   0.210  -2.320  0.00  0.00    -0.177 NA
BRANCH  17  31
ATOM     22  C   UNL     1      -0.017   1.375   0.010  0.00  0.00    +0.000 A 
ATOM     23  C   UNL     1       1.174   2.078   0.002  0.00  0.00    +0.000 A 
ATOM     24  C   UNL     1       2.372   1.395  -0.010  0.00  0.00    +0.006 A 
ATOM     25  C   UNL     1       2.393   0.006  -0.017  0.00  0.00    -0.020 A 
ATOM     26  C   UNL     1       1.208  -0.694  -0.015  0.00  0.00    -0.042 A 
ATOM     27  C   UNL     1       0.002  -0.004   0.002  0.00  0.00    +0.004 A 
ATOM     28  C   UNL     1       1.155  -2.199  -0.038  0.00  0.00    +0.035 C 
ATOM     29  C   UNL     1       2.501  -2.790   0.375  0.00  0.00    +0.007 C 
ATOM     30  C   UNL     1       3.599  -2.130  -0.467  0.00  0.00    +0.032 C 
ATOM     31  C   UNL     1       3.737  -0.675  -0.023  0.00  0.00    +0.139 C 
ENDBRANCH  17  31
ENDBRANCH   1  18
TORSDOF 3
