REMARK  Name = ZINC58744943
REMARK  4 active torsions:
REMARK  status: ('A' for Active; 'I' for Inactive)
REMARK    1  A    between atoms: C_4  and  N_7
REMARK    2  A    between atoms: C_8  and  C_27
REMARK    3  A    between atoms: C_10  and  C_12
REMARK    4  A    between atoms: N_14  and  C_15
REMARK                            x       y       z     vdW  Elec       q    Type
REMARK                         _______ _______ _______ _____ _____    ______ ____
ROOT
ATOM      1  C   UNL     1       7.099  -1.164  -0.942  0.00  0.00    +0.287 C 
ATOM      2  O   UNL     1       7.492  -0.238  -1.625  0.00  0.00    -0.266 OA
ATOM      3  N   UNL     1       7.937  -2.171  -0.626  0.00  0.00    -0.278 N 
ATOM      4  H   UNL     1       7.649  -2.868  -0.017  0.00  0.00    +0.155 HD
ENDROOT
BRANCH   3   5
ATOM      5  C   UNL     1       9.223  -2.210  -1.178  0.00  0.00    +0.056 A 
ATOM      6  C   UNL     1       9.480  -1.575  -2.386  0.00  0.00    +0.072 A 
ATOM      7  C   UNL     1      10.751  -1.615  -2.929  0.00  0.00    +0.144 A 
ATOM      8  C   UNL     1      11.771  -2.293  -2.263  0.00  0.00    +0.077 A 
ATOM      9  C   UNL     1      11.514  -2.926  -1.058  0.00  0.00    +0.048 A 
ATOM     10  C   UNL     1      10.243  -2.881  -0.513  0.00  0.00    +0.064 A 
ATOM     11 CL   UNL     1       9.920  -3.668   1.000  0.00  0.00    -0.082 Cl
ATOM     12  N   UNL     1      13.056  -2.327  -2.829  0.00  0.00    -0.280 N 
ATOM     13  C   UNL     1      13.358  -1.458  -3.817  0.00  0.00    +0.255 C 
ATOM     14  O   UNL     1      14.451  -1.488  -4.342  0.00  0.00    -0.272 OA
ATOM     15  C   UNL     1      12.331  -0.449  -4.267  0.00  0.00    +0.325 C 
ATOM     16  O   UNL     1      11.020  -0.997  -4.111  0.00  0.00    -0.481 OA
ATOM     17  H   UNL     1      13.716  -2.964  -2.514  0.00  0.00    +0.155 HD
ENDBRANCH   3   5
BRANCH   1  21
ATOM     18  N   UNL     1       3.614  -0.666  -0.062  0.00  0.00    -0.211 N 
ATOM     19  C   UNL     1       3.898  -1.855   0.550  0.00  0.00    +0.171 A 
ATOM     20  N   UNL     1       5.157  -2.147   0.298  0.00  0.00    -0.202 NA
ATOM     21  C   UNL     1       5.702  -1.185  -0.459  0.00  0.00    +0.238 A 
ATOM     22  N   UNL     1       4.794  -0.264  -0.708  0.00  0.00    -0.139 NA
BRANCH  18  26
ATOM     23  C   UNL     1      -0.032   1.351  -0.033  0.00  0.00    +0.000 A 
ATOM     24  C   UNL     1       1.152   2.066  -0.030  0.00  0.00    +0.002 A 
ATOM     25  C   UNL     1       2.362   1.400  -0.040  0.00  0.00    +0.028 A 
ATOM     26  C   UNL     1       2.389   0.011  -0.051  0.00  0.00    +0.068 A 
ATOM     27  C   UNL     1       1.198  -0.703  -0.054  0.00  0.00    +0.028 A 
ATOM     28  C   UNL     1      -0.009  -0.031  -0.045  0.00  0.00    +0.002 A 
ENDBRANCH  18  26
BRANCH  19  29
ATOM     29  C   UNL     1       2.963  -2.664   1.348  0.00  0.00    +0.056 A 
ATOM     30  C   UNL     1       3.081  -3.969   1.757  0.00  0.00    +0.019 A 
ATOM     31  C   UNL     1       2.067  -4.521   2.505  0.00  0.00    +0.008 A 
ATOM     32  C   UNL     1       0.984  -3.761   2.816  0.00  0.00    +0.046 A 
ATOM     33  S   UNL     1       1.385  -2.203   2.043  0.00  0.00    -0.094 S 
ENDBRANCH  19  29
ENDBRANCH   1  21
TORSDOF 4
