REMARK  Name = ZINC10108434
REMARK  9 active torsions:
REMARK  status: ('A' for Active; 'I' for Inactive)
REMARK    1  A    between atoms: C_1  and  C_2
REMARK    2  A    between atoms: N_9  and  C_10
REMARK    3  A    between atoms: C_15  and  C_16
REMARK    4  A    between atoms: N_18  and  C_34
REMARK    5  A    between atoms: N_21  and  C_24
REMARK    6  A    between atoms: C_24  and  C_25
REMARK    7  A    between atoms: C_25  and  C_26
REMARK    8  A    between atoms: C_26  and  N_65
REMARK    9  A    between atoms: C_31  and  C_33
REMARK                            x       y       z     vdW  Elec       q    Type
REMARK                         _______ _______ _______ _____ _____    ______ ____
ROOT
ATOM      1  C   UNL     1      10.203   2.371   1.092  0.00  0.00    +0.065 C 
ATOM      2  C   UNL     1       8.967   2.881   1.788  0.00  0.00    +0.040 A 
ATOM      3  C   UNL     1       7.801   2.248   1.869  0.00  0.00    +0.116 A 
ATOM      4  N   UNL     1       6.922   3.042   2.586  0.00  0.00    -0.277 N 
ATOM      5  C   UNL     1       5.633   3.140   3.087  0.00  0.00    +0.157 A 
ATOM      6  C   UNL     1       5.561   4.367   3.745  0.00  0.00    +0.170 A 
ATOM      7  N   UNL     1       6.750   4.953   3.631  0.00  0.00    -0.193 NA
ATOM      8  C   UNL     1       7.572   4.175   2.943  0.00  0.00    +0.223 A 
ATOM      9  N   UNL     1       8.850   4.089   2.452  0.00  0.00    -0.282 N 
ATOM     10  N   UNL     1       4.367   4.731   4.350  0.00  0.00    -0.279 N 
ATOM     11  C   UNL     1       3.305   3.905   4.295  0.00  0.00    +0.333 A 
ATOM     12  O   UNL     1       2.266   4.239   4.830  0.00  0.00    -0.246 OA
ATOM     13  N   UNL     1       3.366   2.720   3.663  0.00  0.00    -0.259 N 
ATOM     14  C   UNL     1       4.501   2.309   3.062  0.00  0.00    +0.283 A 
ATOM     15  O   UNL     1       4.542   1.230   2.497  0.00  0.00    -0.265 OA
ATOM     16  C   UNL     1       4.261   6.014   5.048  0.00  0.00    +0.155 C 
ENDROOT
BRANCH   9  17
ATOM     17  C   UNL     1       9.857   5.052   2.596  0.00  0.00    +0.054 A 
ATOM     18  C   UNL     1      10.710   5.008   3.692  0.00  0.00    +0.026 A 
ATOM     19  C   UNL     1      11.705   5.955   3.830  0.00  0.00    +0.003 A 
ATOM     20  C   UNL     1      11.846   6.955   2.884  0.00  0.00    +0.020 A 
ATOM     21  C   UNL     1      10.995   7.005   1.795  0.00  0.00    +0.046 A 
ATOM     22  C   UNL     1      10.000   6.056   1.649  0.00  0.00    -0.008 A 
ATOM     23  C   UNL     1       9.073   6.111   0.462  0.00  0.00    +0.047 C 
ATOM     24 CL   UNL     1      11.176   8.261   0.610  0.00  0.00    -0.083 Cl
ENDBRANCH   9  17
BRANCH  13  25
ATOM     25  C   UNL     1       2.182   1.858   3.633  0.00  0.00    +0.128 C 
BRANCH  25  26
ATOM     26  C   UNL     1       1.341   2.189   2.398  0.00  0.00    +0.003 C 
BRANCH  26  27
ATOM     27  C   UNL     1       0.104   1.288   2.367  0.00  0.00    -0.077 C 
BRANCH  27  34
ATOM     28  C   UNL     1      -0.034   1.155  -0.046  0.00  0.00    -0.078 C 
ATOM     29  C   UNL     1      -0.829   1.629  -1.265  0.00  0.00    -0.019 C 
ATOM     30  C   UNL     1      -2.248   1.060  -1.195  0.00  0.00    -0.003 C 
ATOM     31  C   UNL     1      -2.905   1.504   0.115  0.00  0.00    -0.016 C 
ATOM     32  C   UNL     1      -2.050   1.033   1.293  0.00  0.00    -0.072 C 
ATOM     33  C   UNL     1      -2.691   1.492   2.604  0.00  0.00    -0.013 C 
ATOM     34  N   UNL     1      -0.705   1.636   1.181  0.00  0.00    +0.381 N 
ATOM     35  H   UNL     1      -0.800   2.657   1.130  0.00  0.00    -0.081 HD
ENDBRANCH  27  34
ENDBRANCH  26  27
ENDBRANCH  25  26
ENDBRANCH  13  25
TORSDOF 5
