REMARK  Name = ZINC58835019
REMARK  7 active torsions:
REMARK  status: ('A' for Active; 'I' for Inactive)
REMARK    1  A    between atoms: C_6  and  S_7
REMARK    2  A    between atoms: S_7  and  C_8
REMARK    3  A    between atoms: C_8  and  C_9
REMARK    4  A    between atoms: C_12  and  C_15
REMARK    5  A    between atoms: N_13  and  N_14
REMARK    6  A    between atoms: C_15  and  S_16
REMARK    7  A    between atoms: S_16  and  C_17
REMARK                            x       y       z     vdW  Elec       q    Type
REMARK                         _______ _______ _______ _____ _____    ______ ____
ROOT
ATOM      1  C   UNL     1      -2.199  -3.536   0.005  0.00  0.00    +0.160 A 
ATOM      2  N   UNL     1      -2.816  -3.995   1.060  0.00  0.00    -0.132 NA
ATOM      3  N   UNL     1      -3.811  -4.724   0.697  0.00  0.00    -0.132 NA
ATOM      4  C   UNL     1      -3.875  -4.763  -0.606  0.00  0.00    +0.160 A 
ATOM      5  N   UNL     1      -2.857  -4.006  -1.083  0.00  0.00    -0.235 N 
ENDROOT
BRANCH   5   6
ATOM      6  N   UNL     1      -2.554  -3.767  -2.393  0.00  0.00    -0.295 N 
ATOM      7  H   UNL     1      -1.916  -4.463  -2.749  0.00  0.00    +0.163 HD
ATOM      8  H   UNL     1      -3.391  -3.722  -2.955  0.00  0.00    +0.163 HD
ENDBRANCH   5   6
BRANCH   1   9
ATOM      9  C   UNL     1      -0.985  -2.644  -0.002  0.00  0.00    +0.152 C 
BRANCH   9  10
ATOM     10  S   UNL     1      -1.511  -0.907   0.012  0.00  0.00    -0.117 S 
BRANCH  10  16
ATOM     11  C   UNL     1      -0.017   1.385   0.010  0.00  0.00    +0.016 A 
ATOM     12  C   UNL     1       1.170   2.091   0.002  0.00  0.00    +0.021 A 
ATOM     13  C   UNL     1       2.378   1.415  -0.013  0.00  0.00    +0.041 A 
ATOM     14  C   UNL     1       2.400   0.031  -0.021  0.00  0.00    +0.021 A 
ATOM     15  C   UNL     1       1.216  -0.680  -0.014  0.00  0.00    +0.016 A 
ATOM     16  C   UNL     1       0.002  -0.004   0.002  0.00  0.00    +0.008 A 
ATOM     17 CL   UNL     1       3.869   2.305  -0.023  0.00  0.00    -0.084 Cl
ENDBRANCH  10  16
ENDBRANCH   9  10
ENDBRANCH   1   9
BRANCH   4  18
ATOM     18  C   UNL     1      -4.895  -5.508  -1.428  0.00  0.00    +0.152 C 
BRANCH  18  19
ATOM     19  S   UNL     1      -6.317  -4.428  -1.750  0.00  0.00    -0.117 S 
BRANCH  19  20
ATOM     20  C   UNL     1      -7.404  -5.431  -2.708  0.00  0.00    +0.008 A 
ATOM     21  C   UNL     1      -7.050  -6.736  -3.025  0.00  0.00    +0.016 A 
ATOM     22  C   UNL     1      -7.905  -7.519  -3.775  0.00  0.00    +0.021 A 
ATOM     23  C   UNL     1      -9.113  -7.005  -4.212  0.00  0.00    +0.041 A 
ATOM     24  C   UNL     1      -9.468  -5.704  -3.899  0.00  0.00    +0.021 A 
ATOM     25  C   UNL     1      -8.620  -4.918  -3.144  0.00  0.00    +0.016 A 
ATOM     26 CL   UNL     1     -10.184  -7.992  -5.156  0.00  0.00    -0.084 Cl
ENDBRANCH  19  20
ENDBRANCH  18  19
ENDBRANCH   4  18
TORSDOF 7
