REMARK  Name = ZINC39022399
REMARK  6 active torsions:
REMARK  status: ('A' for Active; 'I' for Inactive)
REMARK    1  A    between atoms: C_7  and  C_10
REMARK    2  A    between atoms: C_10  and  C_11
REMARK    3  A    between atoms: C_11  and  C_13
REMARK    4  A    between atoms: C_11  and  N_19
REMARK    5  A    between atoms: N_15  and  C_16
REMARK    6  A    between atoms: C_20  and  O_31
REMARK                            x       y       z     vdW  Elec       q    Type
REMARK                         _______ _______ _______ _____ _____    ______ ____
ROOT
ATOM      1  C   UNL     1      -4.437   3.680  -1.374  0.00  0.00    +0.170 C 
ENDROOT
BRANCH   1   2
ATOM      2  N   UNL     1      -3.086   3.789  -1.929  0.00  0.00    -0.244 N 
ATOM      3  C   UNL     1      -2.739   3.029  -3.130  0.00  0.00    +0.300 C 
ATOM      4  N   UNL     1      -1.767   3.773  -3.940  0.00  0.00    -0.303 N 
ATOM      5  C   UNL     1      -0.704   4.402  -3.301  0.00  0.00    +0.042 A 
ATOM      6  C   UNL     1       0.511   4.601  -3.933  0.00  0.00    +0.024 A 
ATOM      7  C   UNL     1       1.535   5.241  -3.261  0.00  0.00    +0.002 A 
ATOM      8  C   UNL     1       1.354   5.685  -1.960  0.00  0.00    +0.001 A 
ATOM      9  C   UNL     1       0.151   5.490  -1.315  0.00  0.00    +0.015 A 
ATOM     10  C   UNL     1      -0.888   4.841  -1.979  0.00  0.00    +0.058 A 
ATOM     11  C   UNL     1      -2.185   4.592  -1.327  0.00  0.00    +0.252 C 
ATOM     12  O   UNL     1      -2.440   5.102  -0.253  0.00  0.00    -0.270 OA
ATOM     13  H   UNL     1      -1.864   3.824  -4.904  0.00  0.00    +0.150 HD
BRANCH   3  14
ATOM     14  O   UNL     1      -2.171   1.775  -2.749  0.00  0.00    -0.359 OA
ATOM     15  H   UNL     1      -1.916   1.215  -3.496  0.00  0.00    +0.213 HD
ENDBRANCH   3  14
ENDBRANCH   1   2
BRANCH   1  16
ATOM     16  C   UNL     1      -5.091   5.038  -1.373  0.00  0.00    +0.234 C 
ATOM     17  O   UNL     1      -4.487   6.002  -1.795  0.00  0.00    -0.274 OA
ATOM     18  N   UNL     1      -6.346   5.181  -0.904  0.00  0.00    -0.311 N 
ATOM     19  H   UNL     1      -6.829   4.410  -0.567  0.00  0.00    +0.149 HD
BRANCH  18  20
ATOM     20  C   UNL     1      -6.982   6.501  -0.903  0.00  0.00    +0.073 C 
ATOM     21  C   UNL     1      -7.760   6.910   0.349  0.00  0.00    +0.024 C 
ATOM     22  C   UNL     1      -8.511   6.549  -0.934  0.00  0.00    +0.024 C 
ENDBRANCH  18  20
ENDBRANCH   1  16
BRANCH   1  23
ATOM     23  C   UNL     1      -4.358   3.151   0.060  0.00  0.00    +0.069 C 
BRANCH  23  30
ATOM     24  C   UNL     1      -0.017   1.384   0.010  0.00  0.00    +0.001 A 
ATOM     25  C   UNL     1       0.002  -0.004   0.002  0.00  0.00    +0.002 A 
ATOM     26  C   UNL     1      -1.173  -0.723   0.009  0.00  0.00    +0.026 A 
ATOM     27  C   UNL     1      -2.392  -0.053   0.024  0.00  0.00    +0.047 A 
ATOM     28  N   UNL     1      -3.704  -0.472   0.034  0.00  0.00    -0.360 N 
ATOM     29  C   UNL     1      -4.539   0.612   0.047  0.00  0.00    +0.087 A 
ATOM     30  C   UNL     1      -3.818   1.744   0.047  0.00  0.00    -0.020 A 
ATOM     31  C   UNL     1      -2.406   1.353   0.032  0.00  0.00    +0.003 A 
ATOM     32  C   UNL     1      -1.203   2.062   0.030  0.00  0.00    +0.010 A 
ATOM     33  H   UNL     1      -3.993  -1.398   0.030  0.00  0.00    +0.165 HD
ENDBRANCH  23  30
ENDBRANCH   1  23
TORSDOF 6
