REMARK  Name = ZINC02388678
REMARK  9 active torsions:
REMARK  status: ('A' for Active; 'I' for Inactive)
REMARK    1  A    between atoms: C_1  and  C_2
REMARK    2  A    between atoms: C_2  and  C_3
REMARK    3  A    between atoms: C_3  and  O_4
REMARK    4  A    between atoms: O_4  and  C_5
REMARK    5  A    between atoms: C_10  and  C_11
REMARK    6  A    between atoms: C_13  and  C_17
REMARK    7  A    between atoms: N_19  and  N_20
REMARK    8  A    between atoms: C_21  and  C_22
REMARK    9  A    between atoms: C_27  and  O_28
REMARK                            x       y       z     vdW  Elec       q    Type
REMARK                         _______ _______ _______ _____ _____    ______ ____
ROOT
ATOM      1  C   UNL     1      -1.421  -4.789  -0.010  0.00  0.00    +0.097 A 
ATOM      2  C   UNL     1      -1.330  -6.193  -0.024  0.00  0.00    +0.062 A 
ATOM      3  C   UNL     1       0.025  -6.470  -0.035  0.00  0.00    +0.122 A 
ATOM      4  N   UNL     1       0.666  -5.263  -0.028  0.00  0.00    -0.272 N 
ATOM      5  H   UNL     1       1.629  -5.144  -0.033  0.00  0.00    +0.189 HD
ATOM      6  N   UNL     1      -0.195  -4.311  -0.019  0.00  0.00    -0.173 NA
ENDROOT
BRANCH   1  12
ATOM      7  C   UNL     1      -2.616  -2.596   0.013  0.00  0.00    +0.130 A 
ATOM      8  C   UNL     1      -3.790  -1.859   0.022  0.00  0.00    +0.046 A 
ATOM      9  C   UNL     1      -5.012  -2.505   0.030  0.00  0.00    +0.004 A 
ATOM     10  C   UNL     1      -5.071  -3.887   0.029  0.00  0.00    +0.001 A 
ATOM     11  C   UNL     1      -3.909  -4.632   0.020  0.00  0.00    +0.014 A 
ATOM     12  C   UNL     1      -2.673  -3.992   0.006  0.00  0.00    +0.044 A 
BRANCH   7  13
ATOM     13  O   UNL     1      -1.414  -1.962   0.005  0.00  0.00    -0.491 OA
BRANCH  13  14
ATOM     14  C   UNL     1      -1.433  -0.534   0.013  0.00  0.00    +0.229 C 
BRANCH  14  16
ATOM     15  C   UNL     1      -0.019   1.526   0.010  0.00  0.00    +0.007 C 
ATOM     16  C   UNL     1       0.002  -0.004   0.002  0.00  0.00    +0.038 C 
ENDBRANCH  14  16
ENDBRANCH  13  14
ENDBRANCH   7  13
ENDBRANCH   1  12
BRANCH   3  17
ATOM     17  C   UNL     1       0.651  -7.801  -0.052  0.00  0.00    +0.281 C 
ATOM     18  O   UNL     1      -0.043  -8.800  -0.057  0.00  0.00    -0.267 OA
ATOM     19  N   UNL     1       1.994  -7.914  -0.061  0.00  0.00    -0.202 N 
ATOM     20  H   UNL     1       2.548  -7.117  -0.057  0.00  0.00    +0.178 HD
BRANCH  19  21
ATOM     21  N   UNL     1       2.591  -9.181  -0.077  0.00  0.00    -0.187 NA
ATOM     22  C   UNL     1       3.885  -9.289  -0.087  0.00  0.00    +0.142 C 
BRANCH  22  23
ATOM     23  C   UNL     1       4.512 -10.623  -0.104  0.00  0.00    +0.037 A 
ATOM     24  C   UNL     1       5.904 -10.744  -0.108  0.00  0.00    +0.028 A 
ATOM     25  C   UNL     1       6.485 -11.995  -0.123  0.00  0.00    +0.019 A 
ATOM     26  C   UNL     1       5.694 -13.132  -0.134  0.00  0.00    +0.019 A 
ATOM     27  C   UNL     1       4.316 -13.025  -0.130  0.00  0.00    +0.047 A 
ATOM     28  C   UNL     1       3.716 -11.776  -0.110  0.00  0.00    +0.126 A 
ATOM     29 BR   UNL     1       8.369 -12.158  -0.130  0.00  0.00    -0.050 Br
BRANCH  28  30
ATOM     30  O   UNL     1       2.362 -11.670  -0.100  0.00  0.00    -0.506 OA
ATOM     31  H   UNL     1       1.964 -11.631  -0.980  0.00  0.00    +0.292 HD
ENDBRANCH  28  30
ENDBRANCH  22  23
ENDBRANCH  19  21
ENDBRANCH   3  17
TORSDOF 8
