REMARK  Name = ZINC12032449
REMARK  8 active torsions:
REMARK  status: ('A' for Active; 'I' for Inactive)
REMARK    1  A    between atoms: C_1  and  C_2
REMARK    2  A    between atoms: C_5  and  C_8
REMARK    3  A    between atoms: N_12  and  C_16
REMARK    4  A    between atoms: C_16  and  C_17
REMARK    5  A    between atoms: C_17  and  C_18
REMARK    6  A    between atoms: C_18  and  C_19
REMARK    7  A    between atoms: N_21  and  N_22
REMARK    8  A    between atoms: C_23  and  C_25
REMARK                            x       y       z     vdW  Elec       q    Type
REMARK                         _______ _______ _______ _____ _____    ______ ____
ROOT
ATOM      1  C   UNL     1       5.874   7.262   0.171  0.00  0.00    +0.029 C 
ENDROOT
BRANCH   1   2
ATOM      2  C   UNL     1       5.450   8.731   0.125  0.00  0.00    +0.115 C 
BRANCH   2   7
ATOM      3  C   UNL     1       9.141  11.421   2.063  0.00  0.00    +0.028 C 
ATOM      4  C   UNL     1       8.384  10.855   1.091  0.00  0.00    +0.077 C 
ATOM      5  C   UNL     1       7.181  10.003   1.208  0.00  0.00    +0.258 C 
ATOM      6  O   UNL     1       6.714   9.701   2.290  0.00  0.00    -0.269 OA
ATOM      7  N   UNL     1       6.641   9.583   0.076  0.00  0.00    -0.255 N 
ATOM      8  C   UNL     1       7.159   9.924  -1.121  0.00  0.00    +0.121 C 
ATOM      9  S   UNL     1       6.605   9.489  -2.681  0.00  0.00    -0.027 S 
ATOM     10  S   UNL     1       8.562  10.939  -0.686  0.00  0.00    -0.061 S 
BRANCH   3  15
ATOM     11  C   UNL     1       7.415  11.207   7.541  0.00  0.00    +0.044 C 
ATOM     12  C   UNL     1       7.867  11.262   6.104  0.00  0.00    -0.050 A 
ATOM     13  C   UNL     1       9.209  11.108   5.799  0.00  0.00    +0.004 A 
ATOM     14  C   UNL     1       9.631  11.159   4.488  0.00  0.00    +0.008 A 
ATOM     15  C   UNL     1       8.700  11.365   3.464  0.00  0.00    -0.024 A 
ATOM     16  C   UNL     1       7.346  11.525   3.782  0.00  0.00    +0.008 A 
ATOM     17  C   UNL     1       6.940  11.467   5.098  0.00  0.00    +0.004 A 
ENDBRANCH   3  15
ENDBRANCH   2   7
ENDBRANCH   1   2
BRANCH   1  18
ATOM     18  C   UNL     1       4.630   6.373   0.221  0.00  0.00    +0.099 C 
BRANCH  18  19
ATOM     19  C   UNL     1       5.048   4.926   0.267  0.00  0.00    +0.229 C 
ATOM     20  O   UNL     1       6.225   4.634   0.259  0.00  0.00    -0.274 OA
ATOM     21  N   UNL     1       4.114   3.956   0.315  0.00  0.00    -0.234 N 
ATOM     22  H   UNL     1       3.172   4.189   0.321  0.00  0.00    +0.173 HD
BRANCH  21  23
ATOM     23  N   UNL     1       4.502   2.611   0.357  0.00  0.00    -0.230 N 
ATOM     24  C   UNL     1       3.568   1.641   0.406  0.00  0.00    +0.260 C 
ATOM     25  O   UNL     1       2.388   1.933   0.413  0.00  0.00    -0.269 OA
ATOM     26  H   UNL     1       5.444   2.377   0.351  0.00  0.00    +0.173 HD
BRANCH  24  27
ATOM     27  C   UNL     1       3.978   0.221   0.451  0.00  0.00    +0.038 A 
ATOM     28  C   UNL     1       3.013  -0.786   0.501  0.00  0.00    +0.014 A 
ATOM     29  C   UNL     1       3.401  -2.108   0.542  0.00  0.00    +0.016 A 
ATOM     30  C   UNL     1       4.746  -2.438   0.533  0.00  0.00    +0.018 A 
ATOM     31  C   UNL     1       5.709  -1.444   0.483  0.00  0.00    +0.016 A 
ATOM     32  C   UNL     1       5.332  -0.118   0.442  0.00  0.00    +0.014 A 
ATOM     33 BR   UNL     1       5.271  -4.254   0.590  0.00  0.00    -0.050 Br
ENDBRANCH  24  27
ENDBRANCH  21  23
ENDBRANCH  18  19
ENDBRANCH   1  18
TORSDOF 7
