REMARK  Name = ZINC02805111
REMARK  8 active torsions:
REMARK  status: ('A' for Active; 'I' for Inactive)
REMARK    1  A    between atoms: C_1  and  C_2
REMARK    2  A    between atoms: C_3  and  N_17
REMARK    3  A    between atoms: C_4  and  C_16
REMARK    4  A    between atoms: N_5  and  C_7
REMARK    5  A    between atoms: C_7  and  C_8
REMARK    6  A    between atoms: N_17  and  S_18
REMARK    7  A    between atoms: S_18  and  C_21
REMARK    8  A    between atoms: C_24  and  N_27
REMARK                            x       y       z     vdW  Elec       q    Type
REMARK                         _______ _______ _______ _____ _____    ______ ____
ROOT
ATOM      1  C   UNL     1       0.235   1.634  -3.220  0.00  0.00    +0.069 C 
ATOM      2  C   UNL     1       1.671   1.839  -2.814  0.00  0.00    +0.082 A 
ATOM      3  C   UNL     1       2.120   2.182  -1.530  0.00  0.00    +0.091 A 
ATOM      4  C   UNL     1       3.473   2.278  -1.574  0.00  0.00    +0.059 A 
ATOM      5  N   UNL     1       3.863   1.996  -2.845  0.00  0.00    -0.262 N 
ATOM      6  N   UNL     1       2.713   1.728  -3.599  0.00  0.00    -0.174 NA
ATOM      7  C   UNL     1       4.378   2.631  -0.422  0.00  0.00    +0.067 C 
ENDROOT
BRANCH   3   8
ATOM      8  N   UNL     1       1.310   2.395  -0.399  0.00  0.00    -0.213 N 
ATOM      9  H   UNL     1       1.204   3.290  -0.039  0.00  0.00    +0.174 HD
BRANCH   8  10
ATOM     10  S   UNL     1       0.538   1.118   0.319  0.00  0.00    +0.072 S 
ATOM     11  O   UNL     1      -0.064   0.368  -0.727  0.00  0.00    -0.150 OA
ATOM     12  O   UNL     1      -0.212   1.653   1.401  0.00  0.00    -0.150 OA
BRANCH  10  13
ATOM     13  C   UNL     1       1.780   0.089   1.027  0.00  0.00    +0.109 A 
ATOM     14  C   UNL     1       2.258  -1.001   0.324  0.00  0.00    +0.031 A 
ATOM     15  C   UNL     1       3.236  -1.806   0.877  0.00  0.00    +0.034 A 
ATOM     16  C   UNL     1       3.730  -1.526   2.138  0.00  0.00    +0.126 A 
ATOM     17  C   UNL     1       3.248  -0.439   2.843  0.00  0.00    +0.034 A 
ATOM     18  C   UNL     1       2.273   0.368   2.288  0.00  0.00    +0.031 A 
BRANCH  16  19
ATOM     19  N   UNL     1       4.774  -2.391   2.732  0.00  0.00    +0.056 N 
ATOM     20  O   UNL     1       5.209  -2.145   3.843  0.00  0.00    -0.126 OA
ATOM     21  O   UNL     1       5.198  -3.349   2.111  0.00  0.00    -0.126 OA
ENDBRANCH  16  19
ENDBRANCH  10  13
ENDBRANCH   8  10
ENDBRANCH   3   8
BRANCH   5  22
ATOM     22  C   UNL     1       5.242   1.980  -3.341  0.00  0.00    +0.180 C 
BRANCH  22  23
ATOM     23  C   UNL     1       5.775   0.571  -3.299  0.00  0.00    -0.008 A 
ATOM     24  C   UNL     1       6.531   0.150  -2.221  0.00  0.00    +0.009 A 
ATOM     25  C   UNL     1       7.015  -1.143  -2.179  0.00  0.00    +0.039 A 
ATOM     26  C   UNL     1       6.753  -2.015  -3.222  0.00  0.00    +0.125 A 
ATOM     27  C   UNL     1       6.001  -1.593  -4.304  0.00  0.00    +0.058 A 
ATOM     28  C   UNL     1       5.512  -0.299  -4.342  0.00  0.00    +0.049 A 
ATOM     29 CL   UNL     1       4.569   0.233  -5.700  0.00  0.00    -0.083 Cl
ATOM     30  F   UNL     1       7.232  -3.278  -3.184  0.00  0.00    -0.205 F 
ENDBRANCH  22  23
ENDBRANCH   5  22
TORSDOF 6
