REMARK  Name = ZINC52637606
REMARK  6 active torsions:
REMARK  status: ('A' for Active; 'I' for Inactive)
REMARK    1  A    between atoms: C_4  and  C_7
REMARK    2  A    between atoms: N_11  and  C_13
REMARK    3  A    between atoms: N_21  and  C_22
REMARK    4  A    between atoms: C_26  and  C_34
REMARK    5  A    between atoms: N_27  and  C_30
REMARK    6  A    between atoms: C_30  and  C_31
REMARK                            x       y       z     vdW  Elec       q    Type
REMARK                         _______ _______ _______ _____ _____    ______ ____
ROOT
ATOM      1  C   UNL     1       6.068  -3.263  -0.382  0.00  0.00    +0.095 C 
ATOM      2  C   UNL     1       6.974  -3.468  -1.598  0.00  0.00    +0.044 C 
ATOM      3  C   UNL     1       7.516  -4.901  -1.590  0.00  0.00    +0.111 C 
ATOM      4  N   UNL     1       8.172  -5.152  -0.300  0.00  0.00    -0.285 N 
ATOM      5  C   UNL     1       7.419  -4.899   0.936  0.00  0.00    +0.111 C 
ATOM      6  C   UNL     1       6.879  -3.466   0.900  0.00  0.00    +0.044 C 
ATOM      7  C   UNL     1       9.440  -5.605  -0.251  0.00  0.00    +0.303 C 
ATOM      8  O   UNL     1      10.021  -5.898  -1.278  0.00  0.00    -0.253 OA
ATOM      9  N   UNL     1      10.064  -5.734   0.937  0.00  0.00    -0.288 N 
ATOM     10  H   UNL     1       9.578  -5.571   1.760  0.00  0.00    +0.151 HD
ENDROOT
BRANCH   1  15
ATOM     11  C   UNL     1       4.091  -0.230  -0.461  0.00  0.00    +0.067 A 
ATOM     12  N   UNL     1       5.388   0.278  -0.411  0.00  0.00    -0.306 N 
ATOM     13  C   UNL     1       6.241  -0.765  -0.378  0.00  0.00    +0.327 A 
ATOM     14  O   UNL     1       7.455  -0.690  -0.331  0.00  0.00    -0.247 OA
ATOM     15  N   UNL     1       5.522  -1.903  -0.404  0.00  0.00    -0.296 N 
ATOM     16  C   UNL     1       4.181  -1.571  -0.451  0.00  0.00    +0.117 A 
ATOM     17  H   UNL     1       5.633   1.216  -0.403  0.00  0.00    +0.170 HD
BRANCH  11  21
ATOM     18  C   UNL     1       0.506   2.045  -0.600  0.00  0.00    +0.000 A 
ATOM     19  C   UNL     1       1.730   2.690  -0.559  0.00  0.00    +0.001 A 
ATOM     20  C   UNL     1       2.898   1.956  -0.514  0.00  0.00    +0.010 A 
ATOM     21  C   UNL     1       2.843   0.562  -0.509  0.00  0.00    -0.000 A 
ATOM     22  C   UNL     1       1.606  -0.082  -0.550  0.00  0.00    +0.010 A 
ATOM     23  C   UNL     1       0.445   0.663  -0.595  0.00  0.00    +0.001 A 
ENDBRANCH  11  21
ENDBRANCH   1  15
BRANCH   9  24
ATOM     24  C   UNL     1      11.477  -6.120   0.984  0.00  0.00    +0.165 C 
ATOM     25  C   UNL     1      11.779  -6.787   2.327  0.00  0.00    +0.061 C 
ATOM     26  C   UNL     1      11.775  -5.748   3.418  0.00  0.00    -0.001 C 
ATOM     27  C   UNL     1      12.202  -4.511   3.174  0.00  0.00    +0.040 C 
ATOM     28  N   UNL     1      12.660  -4.152   1.905  0.00  0.00    -0.269 N 
ATOM     29  C   UNL     1      12.338  -4.894   0.828  0.00  0.00    +0.240 C 
ATOM     30  O   UNL     1      12.742  -4.573  -0.270  0.00  0.00    -0.273 OA
BRANCH  27  31
ATOM     31  C   UNL     1      12.191  -3.505   4.261  0.00  0.00    -0.004 A 
ATOM     32  C   UNL     1      11.630  -2.247   4.044  0.00  0.00    +0.010 A 
ATOM     33  C   UNL     1      11.622  -1.314   5.060  0.00  0.00    +0.001 A 
ATOM     34  C   UNL     1      12.169  -1.624   6.292  0.00  0.00    +0.000 A 
ATOM     35  C   UNL     1      12.727  -2.870   6.513  0.00  0.00    +0.001 A 
ATOM     36  C   UNL     1      12.736  -3.814   5.507  0.00  0.00    +0.010 A 
ENDBRANCH  27  31
BRANCH  28  37
ATOM     37  C   UNL     1      13.497  -2.961   1.744  0.00  0.00    +0.117 C 
BRANCH  37  38
ATOM     38  C   UNL     1      14.959  -3.325   2.008  0.00  0.00    +0.007 C 
ATOM     39  C   UNL     1      15.649  -2.660   3.200  0.00  0.00    +0.005 C 
ATOM     40  C   UNL     1      16.011  -2.238   1.775  0.00  0.00    +0.005 C 
ENDBRANCH  37  38
ENDBRANCH  28  37
ENDBRANCH   9  24
TORSDOF 6
