REMARK  Name = ZINC22435188
REMARK  6 active torsions:
REMARK  status: ('A' for Active; 'I' for Inactive)
REMARK    1  A    between atoms: C_1  and  C_2
REMARK    2  A    between atoms: C_2  and  C_3
REMARK    3  A    between atoms: N_5  and  C_6
REMARK    4  A    between atoms: C_6  and  C_12
REMARK    5  A    between atoms: N_16  and  C_17
REMARK    6  A    between atoms: C_22  and  C_23
REMARK                            x       y       z     vdW  Elec       q    Type
REMARK                         _______ _______ _______ _____ _____    ______ ____
ROOT
ATOM      1  C   UNL     1       3.530   2.273   0.179  0.00  0.00    +0.096 C 
ATOM      2  C   UNL     1       2.594   1.876   1.323  0.00  0.00    +0.034 C 
ATOM      3  C   UNL     1       2.673   0.364   1.545  0.00  0.00    +0.003 C 
ATOM      4  C   UNL     1       4.109  -0.024   1.903  0.00  0.00    +0.000 C 
ATOM      5  C   UNL     1       5.045   0.373   0.759  0.00  0.00    +0.003 C 
ATOM      6  C   UNL     1       4.966   1.885   0.537  0.00  0.00    +0.034 C 
ENDROOT
BRANCH   1   7
ATOM      7  C   UNL     1       3.452   3.762  -0.040  0.00  0.00    +0.180 A 
ATOM      8  N   UNL     1       3.239   4.670   0.876  0.00  0.00    -0.111 NA
ATOM      9  N   UNL     1       3.226   5.844   0.356  0.00  0.00    -0.023 NA
ATOM     10  N   UNL     1       3.434   5.771  -0.914  0.00  0.00    -0.039 NA
ATOM     11  N   UNL     1       3.593   4.407  -1.218  0.00  0.00    -0.195 N 
BRANCH  11  12
ATOM     12  C   UNL     1       3.839   3.838  -2.476  0.00  0.00    +0.072 A 
ATOM     13  C   UNL     1       4.949   3.025  -2.667  0.00  0.00    +0.028 A 
ATOM     14  C   UNL     1       5.189   2.466  -3.907  0.00  0.00    +0.002 A 
ATOM     15  C   UNL     1       4.329   2.720  -4.959  0.00  0.00    +0.000 A 
ATOM     16  C   UNL     1       3.220   3.524  -4.771  0.00  0.00    +0.005 A 
ATOM     17  C   UNL     1       2.974   4.086  -3.533  0.00  0.00    -0.025 A 
ATOM     18  C   UNL     1       1.769   4.967  -3.330  0.00  0.00    +0.046 C 
ENDBRANCH  11  12
ENDBRANCH   1   7
BRANCH   1  21
ATOM     19  C   UNL     1       1.888   1.757  -1.545  0.00  0.00    +0.214 C 
ATOM     20  O   UNL     1       1.080   2.427  -0.938  0.00  0.00    -0.276 OA
ATOM     21  N   UNL     1       3.127   1.578  -1.046  0.00  0.00    -0.303 N 
ATOM     22  H   UNL     1       3.835   0.910  -1.557  0.00  0.00    +0.150 HD
BRANCH  19  24
ATOM     23  C   UNL     1       0.098   1.573  -3.252  0.00  0.00    +0.013 C 
ATOM     24  C   UNL     1       1.507   1.125  -2.859  0.00  0.00    +0.092 C 
ENDBRANCH  19  24
ENDBRANCH   1  21
TORSDOF 4
