REMARK  Name = ZINC16649048
REMARK  14 active torsions:
REMARK  status: ('A' for Active; 'I' for Inactive)
REMARK    1  A    between atoms: C_1  and  C_2
REMARK    2  A    between atoms: C_5  and  C_8
REMARK    3  A    between atoms: C_8  and  N_9
REMARK    4  A    between atoms: N_9  and  C_10
REMARK    5  A    between atoms: C_10  and  C_11
REMARK    6  A    between atoms: C_11  and  C_12
REMARK    7  A    between atoms: C_22  and  C_24
REMARK    8  A    between atoms: C_24  and  N_25
REMARK    9  A    between atoms: N_25  and  C_26
REMARK   10  A    between atoms: C_26  and  C_27
REMARK   11  A    between atoms: C_27  and  O_28
REMARK   12  A    between atoms: O_28  and  C_29
REMARK   13  A    between atoms: C_30  and  C_32
REMARK   14  A    between atoms: C_35  and  N_38
REMARK                            x       y       z     vdW  Elec       q    Type
REMARK                         _______ _______ _______ _____ _____    ______ ____
ROOT
ATOM      1  N   UNL     1       1.281  -1.783  -1.129  0.00  0.00    -0.296 N 
ATOM      2  C   UNL     1       0.255  -2.259  -1.861  0.00  0.00    +0.233 C 
ATOM      3  O   UNL     1       0.457  -2.711  -2.968  0.00  0.00    -0.274 OA
ENDROOT
BRANCH   1   4
ATOM      4  C   UNL     1       1.048  -1.302   0.235  0.00  0.00    +0.143 C 
BRANCH   4   9
ATOM      5  C   UNL     1       0.305   4.428   0.161  0.00  0.00    +0.044 C 
ATOM      6  C   UNL     1       0.499   2.934   0.180  0.00  0.00    -0.050 A 
ATOM      7  C   UNL     1      -0.565   2.095  -0.097  0.00  0.00    +0.003 A 
ATOM      8  C   UNL     1      -0.387   0.725  -0.079  0.00  0.00    +0.005 A 
ATOM      9  C   UNL     1       0.854   0.192   0.215  0.00  0.00    -0.030 A 
ATOM     10  C   UNL     1       1.918   1.031   0.491  0.00  0.00    +0.005 A 
ATOM     11  C   UNL     1       1.741   2.401   0.473  0.00  0.00    +0.003 A 
ENDBRANCH   4   9
ENDBRANCH   1   4
BRANCH   1  12
ATOM     12  C   UNL     1       2.631  -1.746  -1.698  0.00  0.00    +0.113 C 
BRANCH  12  13
ATOM     13  C   UNL     1       3.352  -3.058  -1.386  0.00  0.00    +0.056 C 
BRANCH  13  14
ATOM     14  C   UNL     1       4.740  -3.020  -1.971  0.00  0.00    -0.021 A 
ATOM     15  C   UNL     1       5.120  -3.514  -3.160  0.00  0.00    +0.087 A 
ATOM     16  N   UNL     1       6.456  -3.293  -3.352  0.00  0.00    -0.360 N 
ATOM     17  H   UNL     1       6.957  -3.558  -4.139  0.00  0.00    +0.165 HD
ATOM     18  C   UNL     1       6.985  -2.642  -2.260  0.00  0.00    +0.047 A 
ATOM     19  C   UNL     1       5.933  -2.442  -1.347  0.00  0.00    +0.003 A 
ATOM     20  C   UNL     1       6.178  -1.797  -0.133  0.00  0.00    +0.010 A 
ATOM     21  C   UNL     1       7.439  -1.362   0.162  0.00  0.00    +0.001 A 
ATOM     22  C   UNL     1       8.480  -1.557  -0.735  0.00  0.00    +0.002 A 
ATOM     23  C   UNL     1       8.261  -2.191  -1.939  0.00  0.00    +0.026 A 
ENDBRANCH  13  14
ENDBRANCH  12  13
ENDBRANCH   1  12
BRANCH   2  24
ATOM     24  C   UNL     1      -1.145  -2.230  -1.304  0.00  0.00    +0.204 C 
BRANCH  24  25
ATOM     25  N   UNL     1      -2.086  -2.708  -2.320  0.00  0.00    -0.287 N 
ATOM     26  C   UNL     1      -2.651  -1.835  -3.178  0.00  0.00    +0.247 C 
ATOM     27  O   UNL     1      -2.411  -0.647  -3.083  0.00  0.00    -0.270 OA
BRANCH  26  28
ATOM     28  C   UNL     1      -3.563  -2.323  -4.234  0.00  0.00    +0.037 A 
ATOM     29  C   UNL     1      -4.343  -3.460  -4.017  0.00  0.00    +0.015 A 
ATOM     30  C   UNL     1      -5.197  -3.907  -5.005  0.00  0.00    +0.033 A 
ATOM     31  C   UNL     1      -5.272  -3.237  -6.213  0.00  0.00    +0.126 A 
ATOM     32  C   UNL     1      -4.497  -2.112  -6.437  0.00  0.00    +0.033 A 
ATOM     33  C   UNL     1      -3.644  -1.652  -5.455  0.00  0.00    +0.015 A 
BRANCH  31  34
ATOM     34  N   UNL     1      -6.184  -3.726  -7.271  0.00  0.00    +0.056 N 
ATOM     35  O   UNL     1      -6.253  -3.138  -8.335  0.00  0.00    -0.126 OA
ATOM     36  O   UNL     1      -6.867  -4.716  -7.076  0.00  0.00    -0.126 OA
ENDBRANCH  31  34
ENDBRANCH  26  28
BRANCH  25  37
ATOM     37  C   UNL     1      -2.412  -4.133  -2.405  0.00  0.00    +0.136 C 
BRANCH  37  38
ATOM     38  C   UNL     1      -3.304  -4.523  -1.225  0.00  0.00    +0.178 C 
BRANCH  38  39
ATOM     39  O   UNL     1      -4.556  -3.842  -1.330  0.00  0.00    -0.381 OA
ATOM     40  C   UNL     1      -5.469  -4.138  -0.271  0.00  0.00    +0.194 C 
ENDBRANCH  38  39
ENDBRANCH  37  38
ENDBRANCH  25  37
ENDBRANCH  24  25
ENDBRANCH   2  24
TORSDOF 12
