REMARK  Name = ZINC34683830
REMARK  8 active torsions:
REMARK  status: ('A' for Active; 'I' for Inactive)
REMARK    1  A    between atoms: C_1  and  C_2
REMARK    2  A    between atoms: C_2  and  C_3
REMARK    3  A    between atoms: C_2  and  C_4
REMARK    4  A    between atoms: C_4  and  N_5
REMARK    5  A    between atoms: C_8  and  N_11
REMARK    6  A    between atoms: N_11  and  C_12
REMARK    7  A    between atoms: N_11  and  S_21
REMARK    8  A    between atoms: S_21  and  C_24
REMARK                            x       y       z     vdW  Elec       q    Type
REMARK                         _______ _______ _______ _____ _____    ______ ____
ROOT
ATOM      1  N   UNL     1      -2.084  -6.072   0.884  0.00  0.00    -0.200 N 
ENDROOT
BRANCH   1   2
ATOM      2  C   UNL     1      -1.361  -6.657  -0.161  0.00  0.00    +0.055 A 
ATOM      3  C   UNL     1      -1.589  -6.258  -1.471  0.00  0.00    +0.028 A 
ATOM      4  C   UNL     1      -0.875  -6.835  -2.504  0.00  0.00    +0.051 A 
ATOM      5  C   UNL     1       0.071  -7.812  -2.236  0.00  0.00    +0.166 A 
ATOM      6  C   UNL     1       0.302  -8.213  -0.922  0.00  0.00    +0.168 A 
ATOM      7  C   UNL     1      -0.411  -7.631   0.113  0.00  0.00    +0.074 A 
ATOM      8  O   UNL     1       1.269  -9.176  -0.924  0.00  0.00    -0.453 OA
ATOM      9  C   UNL     1       1.336  -9.652  -2.281  0.00  0.00    +0.466 C 
ATOM     10  O   UNL     1       0.894  -8.525  -3.061  0.00  0.00    -0.453 OA
ENDBRANCH   1   2
BRANCH   1  14
ATOM     11  N   UNL     1      -0.292  -2.257   0.862  0.00  0.00    +0.380 N 
ATOM     12  C   UNL     1      -0.107  -3.066   2.073  0.00  0.00    -0.077 C 
ATOM     13  C   UNL     1      -0.389  -4.537   1.756  0.00  0.00    +0.005 C 
ATOM     14  C   UNL     1      -1.831  -4.679   1.261  0.00  0.00    +0.095 C 
ATOM     15  C   UNL     1      -2.033  -3.774   0.042  0.00  0.00    +0.005 C 
ATOM     16  C   UNL     1      -1.690  -2.332   0.422  0.00  0.00    -0.077 C 
ATOM     17  H   UNL     1       0.309  -2.608   0.131  0.00  0.00    -0.082 HD
BRANCH  11  18
ATOM     18  C   UNL     1       0.056  -0.859   1.151  0.00  0.00    -0.076 C 
BRANCH  18  20
ATOM     19  C   UNL     1       2.353  -1.136   0.209  0.00  0.00    +0.005 C 
ATOM     20  C   UNL     1       1.551  -0.758   1.456  0.00  0.00    -0.034 C 
ATOM     21  C   UNL     1       1.892   0.676   1.867  0.00  0.00    +0.005 C 
ENDBRANCH  18  20
ENDBRANCH  11  18
ENDBRANCH   1  14
BRANCH   1  22
ATOM     22  S   UNL     1      -3.228  -6.954   1.695  0.00  0.00    +0.075 S 
ATOM     23  O   UNL     1      -2.817  -8.312   1.626  0.00  0.00    -0.150 OA
ATOM     24  O   UNL     1      -3.453  -6.288   2.930  0.00  0.00    -0.150 OA
BRANCH  22  25
ATOM     25  C   UNL     1      -4.727  -6.833   0.777  0.00  0.00    +0.109 A 
ATOM     26  C   UNL     1      -5.618  -5.809   1.041  0.00  0.00    +0.030 A 
ATOM     27  C   UNL     1      -6.794  -5.714   0.321  0.00  0.00    +0.022 A 
ATOM     28  C   UNL     1      -7.079  -6.644  -0.663  0.00  0.00    +0.041 A 
ATOM     29  C   UNL     1      -6.187  -7.668  -0.926  0.00  0.00    +0.022 A 
ATOM     30  C   UNL     1      -5.009  -7.759  -0.210  0.00  0.00    +0.030 A 
ATOM     31 CL   UNL     1      -8.557  -6.525  -1.567  0.00  0.00    -0.084 Cl
ENDBRANCH  22  25
ENDBRANCH   1  22
TORSDOF 6
