REMARK  Name = ZINC34829538
REMARK  17 active torsions:
REMARK  status: ('A' for Active; 'I' for Inactive)
REMARK    1  A    between atoms: C_1  and  C_2
REMARK    2  A    between atoms: C_2  and  C_3
REMARK    3  A    between atoms: C_3  and  C_4
REMARK    4  A    between atoms: C_4  and  O_5
REMARK    5  A    between atoms: O_5  and  C_6
REMARK    6  A    between atoms: C_9  and  C_12
REMARK    7  A    between atoms: N_14  and  C_15
REMARK    8  A    between atoms: N_14  and  C_36
REMARK    9  A    between atoms: C_15  and  C_16
REMARK   10  A    between atoms: C_17  and  C_35
REMARK   11  A    between atoms: N_19  and  C_29
REMARK   12  A    between atoms: C_20  and  N_21
REMARK   13  A    between atoms: N_24  and  C_27
REMARK   14  A    between atoms: C_27  and  C_28
REMARK   15  A    between atoms: C_36  and  C_37
REMARK   16  A    between atoms: C_37  and  C_38
REMARK   17  A    between atoms: C_37  and  C_39
REMARK                            x       y       z     vdW  Elec       q    Type
REMARK                         _______ _______ _______ _____ _____    ______ ____
ROOT
ATOM      1  C   UNL     1       1.694 -10.466   5.382  0.00  0.00    +0.032 A 
ATOM      2  C   UNL     1       2.521 -11.384   4.729  0.00  0.00    +0.067 A 
ATOM      3  N   UNL     1       3.338 -11.905   5.607  0.00  0.00    -0.170 NA
ATOM      4  N   UNL     1       3.063 -11.339   6.859  0.00  0.00    -0.218 N 
ATOM      5  C   UNL     1       2.048 -10.447   6.697  0.00  0.00    +0.130 A 
ATOM      6  C   UNL     1       2.478 -11.717   3.260  0.00  0.00    +0.068 C 
ENDROOT
BRANCH   5   7
ATOM      7  N   UNL     1       1.474  -9.664   7.693  0.00  0.00    -0.318 N 
ATOM      8  C   UNL     1       0.412 -10.199   8.560  0.00  0.00    +0.088 C 
ATOM      9  C   UNL     1       0.791  -9.923  10.019  0.00  0.00    -0.060 C 
ATOM     10  N   UNL     1       1.049  -8.489  10.194  0.00  0.00    +0.382 N 
ATOM     11  C   UNL     1       2.219  -8.091   9.400  0.00  0.00    -0.060 C 
ATOM     12  C   UNL     1       1.915  -8.278   7.914  0.00  0.00    +0.088 C 
ATOM     13  H   UNL     1       0.244  -7.963   9.889  0.00  0.00    -0.082 HD
BRANCH  10  14
ATOM     14  C   UNL     1       1.304  -8.208  11.613  0.00  0.00    -0.082 C 
ATOM     15  C   UNL     1       1.451  -6.699  11.816  0.00  0.00    -0.017 C 
ENDBRANCH  10  14
ENDBRANCH   5   7
BRANCH   4  16
ATOM     16  C   UNL     1       3.721 -11.633   8.061  0.00  0.00    +0.067 A 
ATOM     17  C   UNL     1       4.195 -10.605   8.864  0.00  0.00    +0.028 A 
ATOM     18  C   UNL     1       4.841 -10.898  10.049  0.00  0.00    +0.002 A 
ATOM     19  C   UNL     1       5.018 -12.214  10.435  0.00  0.00    +0.000 A 
ATOM     20  C   UNL     1       4.547 -13.240   9.637  0.00  0.00    +0.002 A 
ATOM     21  C   UNL     1       3.894 -12.954   8.454  0.00  0.00    +0.028 A 
ENDBRANCH   4  16
BRANCH   1  22
ATOM     22  C   UNL     1       0.608  -9.639   4.744  0.00  0.00    +0.148 C 
BRANCH  22  25
ATOM     23  C   UNL     1       1.551  -8.522   2.795  0.00  0.00    +0.247 C 
ATOM     24  O   UNL     1       1.279  -9.505   2.133  0.00  0.00    -0.270 OA
ATOM     25  N   UNL     1       1.203  -8.468   4.096  0.00  0.00    -0.293 N 
BRANCH  23  29
ATOM     26  C   UNL     1       3.596  -5.258   1.006  0.00  0.00    +0.121 A 
ATOM     27  C   UNL     1       4.012  -6.559   0.752  0.00  0.00    +0.046 A 
ATOM     28  C   UNL     1       3.352  -7.620   1.330  0.00  0.00    +0.016 A 
ATOM     29  C   UNL     1       2.262  -7.387   2.174  0.00  0.00    +0.037 A 
ATOM     30  C   UNL     1       1.847  -6.077   2.427  0.00  0.00    +0.016 A 
ATOM     31  C   UNL     1       2.516  -5.021   1.849  0.00  0.00    +0.046 A 
BRANCH  26  32
ATOM     32  O   UNL     1       4.249  -4.214   0.435  0.00  0.00    -0.492 OA
BRANCH  32  33
ATOM     33  C   UNL     1       5.350  -4.529  -0.420  0.00  0.00    +0.229 C 
BRANCH  33  34
ATOM     34  C   UNL     1       5.956  -3.235  -0.968  0.00  0.00    +0.041 C 
BRANCH  34  36
ATOM     35  C   UNL     1       7.741  -2.277  -2.430  0.00  0.00    +0.004 C 
ATOM     36  C   UNL     1       7.135  -3.571  -1.883  0.00  0.00    -0.000 C 
ENDBRANCH  34  36
ENDBRANCH  33  34
ENDBRANCH  32  33
ENDBRANCH  26  32
ENDBRANCH  23  29
BRANCH  25  37
ATOM     37  C   UNL     1       1.420  -7.238   4.862  0.00  0.00    +0.111 C 
BRANCH  37  38
ATOM     38  C   UNL     1       0.102  -6.797   5.502  0.00  0.00    +0.000 C 
ATOM     39  C   UNL     1       0.331  -5.518   6.310  0.00  0.00    +0.009 C 
ATOM     40  C   UNL     1      -0.933  -6.531   4.408  0.00  0.00    +0.009 C 
ENDBRANCH  37  38
ENDBRANCH  25  37
ENDBRANCH  22  25
ENDBRANCH   1  22
TORSDOF 12
