REMARK  Name = ZINC00198248
REMARK  2 active torsions:
REMARK  status: ('A' for Active; 'I' for Inactive)
REMARK    1  A    between atoms: C_5  and  C_7
REMARK    2  A    between atoms: C_10  and  N_11
REMARK                            x       y       z     vdW  Elec       q    Type
REMARK                         _______ _______ _______ _____ _____    ______ ____
ROOT
ATOM      1  C   UNL     1       1.250  -2.159  -0.023  0.00  0.00    +0.235 C 
ATOM      2  N   UNL     1       2.340  -2.873  -0.033  0.00  0.00    -0.204 NA
ATOM      3  C   UNL     1       2.004  -4.199  -0.038  0.00  0.00    +0.166 C 
ATOM      4  C   UNL     1       2.864  -5.277  -0.048  0.00  0.00    +0.108 C 
ATOM      5  C   UNL     1       0.537  -4.232  -0.030  0.00  0.00    +0.366 C 
ATOM      6  O   UNL     1      -0.180  -5.217  -0.032  0.00  0.00    -0.243 OA
ATOM      7  O   UNL     1       0.151  -2.939  -0.016  0.00  0.00    -0.402 OA
ENDROOT
BRANCH   4   8
ATOM      8  N   UNL     1       4.211  -5.075  -0.054  0.00  0.00    -0.303 N 
ATOM      9  C   UNL     1       5.078  -6.164  -0.064  0.00  0.00    +0.123 A 
ATOM     10  C   UNL     1       4.563  -7.456  -0.074  0.00  0.00    +0.045 A 
ATOM     11  C   UNL     1       5.435  -8.529  -0.084  0.00  0.00    +0.025 A 
ATOM     12  C   UNL     1       6.801  -8.273  -0.084  0.00  0.00    +0.059 A 
ATOM     13  C   UNL     1       7.243  -6.963  -0.074  0.00  0.00    +0.132 A 
ATOM     14  N   UNL     1       6.386  -5.960  -0.070  0.00  0.00    -0.239 NA
ATOM     15 CL   UNL     1       7.940  -9.583  -0.096  0.00  0.00    -0.082 Cl
ATOM     16  H   UNL     1       4.566  -4.172  -0.051  0.00  0.00    +0.153 HD
ENDBRANCH   4   8
BRANCH   1  21
ATOM     17  C   UNL     1      -0.017   1.375   0.010  0.00  0.00    +0.001 A 
ATOM     18  C   UNL     1       1.170   2.087   0.002  0.00  0.00    +0.003 A 
ATOM     19  C   UNL     1       2.383   1.424  -0.013  0.00  0.00    +0.039 A 
ATOM     20  C   UNL     1       2.418   0.042  -0.021  0.00  0.00    +0.136 A 
ATOM     21  C   UNL     1       1.222  -0.683  -0.014  0.00  0.00    +0.072 A 
ATOM     22  C   UNL     1       0.002  -0.004   0.002  0.00  0.00    +0.016 A 
ATOM     23  F   UNL     1       3.603  -0.606  -0.037  0.00  0.00    -0.205 F 
ENDBRANCH   1  21
TORSDOF 2
