REMARK  Name = ZINC39674107
REMARK  6 active torsions:
REMARK  status: ('A' for Active; 'I' for Inactive)
REMARK    1  A    between atoms: C_1  and  C_2
REMARK    2  A    between atoms: C_4  and  C_12
REMARK    3  A    between atoms: C_12  and  C_13
REMARK    4  A    between atoms: C_13  and  N_14
REMARK    5  A    between atoms: C_15  and  C_17
REMARK    6  A    between atoms: C_28  and  C_30
REMARK                            x       y       z     vdW  Elec       q    Type
REMARK                         _______ _______ _______ _____ _____    ______ ____
ROOT
ATOM      1  C   UNL     1      -5.404   3.605   3.659  0.00  0.00    +0.100 C 
ATOM      2  C   UNL     1      -4.993   2.442   4.588  0.00  0.00    +0.121 C 
ATOM      3  N   UNL     1      -4.243   3.090   5.690  0.00  0.00    -0.295 N 
ATOM      4  C   UNL     1      -4.989   4.343   5.957  0.00  0.00    +0.115 C 
ATOM      5  C   UNL     1      -5.405   4.851   4.562  0.00  0.00    -0.004 C 
ATOM      6  C   UNL     1      -6.801   5.463   4.617  0.00  0.00    -0.010 C 
ATOM      7  C   UNL     1      -6.763   6.732   5.473  0.00  0.00    -0.082 C 
ATOM      8  N   UNL     1      -5.811   7.687   4.894  0.00  0.00    +0.379 N 
ATOM      9  C   UNL     1      -4.455   7.126   4.930  0.00  0.00    -0.082 C 
ATOM     10  C   UNL     1      -4.395   5.874   4.051  0.00  0.00    -0.010 C 
ATOM     11  C   UNL     1      -3.134   2.641   6.310  0.00  0.00    +0.265 C 
ATOM     12  O   UNL     1      -2.578   1.638   5.910  0.00  0.00    -0.268 OA
ATOM     13  H   UNL     1      -6.068   7.879   3.937  0.00  0.00    -0.086 HD
ATOM     14  H   UNL     1      -5.833   8.545   5.424  0.00  0.00    -0.086 HD
ENDROOT
BRANCH  11  15
ATOM     15  C   UNL     1      -2.591   3.372   7.481  0.00  0.00    +0.126 A 
ATOM     16  C   UNL     1      -1.373   2.961   8.041  0.00  0.00    +0.033 A 
ATOM     17  C   UNL     1      -0.863   3.626   9.118  0.00  0.00    +0.012 A 
ATOM     18  C   UNL     1      -1.589   4.716   9.634  0.00  0.00    +0.000 A 
ATOM     19  C   UNL     1      -1.124   5.445  10.740  0.00  0.00    +0.010 A 
ATOM     20  C   UNL     1      -1.853   6.494  11.211  0.00  0.00    +0.001 A 
ATOM     21  C   UNL     1      -3.059   6.854  10.611  0.00  0.00    +0.002 A 
ATOM     22  C   UNL     1      -3.541   6.171   9.538  0.00  0.00    +0.028 A 
ATOM     23  C   UNL     1      -2.816   5.081   9.021  0.00  0.00    +0.072 A 
ATOM     24  N   UNL     1      -3.263   4.398   7.967  0.00  0.00    -0.242 NA
ENDBRANCH  11  15
BRANCH   1  26
ATOM     25  N   UNL     1      -4.801   4.231   1.343  0.00  0.00    -0.315 N 
ATOM     26  C   UNL     1      -4.404   3.766   2.544  0.00  0.00    +0.218 C 
ATOM     27  O   UNL     1      -3.240   3.477   2.727  0.00  0.00    -0.275 OA
ATOM     28  H   UNL     1      -5.732   4.462   1.196  0.00  0.00    +0.149 HD
BRANCH  25  29
ATOM     29  C   UNL     1      -3.828   4.387   0.259  0.00  0.00    +0.109 C 
BRANCH  29  30
ATOM     30  C   UNL     1      -4.535   4.927  -0.986  0.00  0.00    +0.056 C 
BRANCH  30  34
ATOM     31  C   UNL     1      -3.785   2.775  -3.094  0.00  0.00    +0.063 C 
ATOM     32  C   UNL     1      -3.203   4.163  -3.017  0.00  0.00    +0.017 A 
ATOM     33  H   UNL     1      -1.859   4.182  -4.608  0.00  0.00    +0.166 HD
ATOM     34  C   UNL     1      -3.534   5.087  -2.101  0.00  0.00    -0.018 A 
ATOM     35  C   UNL     1      -2.737   6.282  -2.392  0.00  0.00    +0.003 A 
ATOM     36  C   UNL     1      -2.634   7.546  -1.808  0.00  0.00    +0.010 A 
ATOM     37  C   UNL     1      -1.772   8.467  -2.331  0.00  0.00    +0.001 A 
ATOM     38  C   UNL     1      -0.996   8.157  -3.439  0.00  0.00    +0.002 A 
ATOM     39  C   UNL     1      -1.081   6.915  -4.032  0.00  0.00    +0.026 A 
ATOM     40  C   UNL     1      -1.953   5.962  -3.516  0.00  0.00    +0.047 A 
ATOM     41  N   UNL     1      -2.256   4.666  -3.867  0.00  0.00    -0.358 N 
ENDBRANCH  30  34
ENDBRANCH  29  30
ENDBRANCH  25  29
ENDBRANCH   1  26
TORSDOF 5
