REMARK  Name = ZINC03463308
REMARK  5 active torsions:
REMARK  status: ('A' for Active; 'I' for Inactive)
REMARK    1  A    between atoms: C_1  and  C_2
REMARK    2  A    between atoms: C_2  and  O_3
REMARK    3  A    between atoms: O_3  and  C_4
REMARK    4  A    between atoms: C_4  and  C_6
REMARK    5  A    between atoms: C_6  and  N_7
REMARK                            x       y       z     vdW  Elec       q    Type
REMARK                         _______ _______ _______ _____ _____    ______ ____
ROOT
ATOM      1  N   UNL     1       2.127   0.675  -0.035  0.00  0.00    -0.213 N 
ATOM      2  C   UNL     1       1.452   1.841  -0.002  0.00  0.00    +0.247 C 
ATOM      3  O   UNL     1       1.912   2.962   0.013  0.00  0.00    -0.273 OA
ATOM      4  C   UNL     1      -0.018   1.463   0.010  0.00  0.00    +0.113 C 
ATOM      5  C   UNL     1      -0.663   1.977   1.289  0.00  0.00    +0.035 C 
ATOM      6  C   UNL     1      -2.149   2.271   1.106  0.00  0.00    +0.003 C 
ATOM      7  C   UNL     1      -2.975   1.005   1.278  0.00  0.00    +0.000 C 
ATOM      8  C   UNL     1      -3.223   0.267  -0.029  0.00  0.00    +0.000 C 
ATOM      9  C   UNL     1      -3.058   1.158  -1.253  0.00  0.00    +0.000 C 
ATOM     10  C   UNL     1      -1.655   0.998  -1.838  0.00  0.00    +0.003 C 
ATOM     11  C   UNL     1      -0.689   2.017  -1.240  0.00  0.00    +0.035 C 
ATOM     12  N   UNL     1       0.002  -0.004   0.002  0.00  0.00    -0.285 N 
ATOM     13  C   UNL     1       1.297  -0.375  -0.041  0.00  0.00    +0.310 C 
ATOM     14  O   UNL     1       1.668  -1.531  -0.076  0.00  0.00    -0.252 OA
ATOM     15  H   UNL     1      -0.760  -0.603   0.035  0.00  0.00    +0.151 HD
ENDROOT
BRANCH   1  16
ATOM     16  C   UNL     1       3.588   0.568  -0.061  0.00  0.00    +0.238 C 
BRANCH  16  17
ATOM     17  C   UNL     1       4.066   0.557  -1.490  0.00  0.00    +0.325 C 
ATOM     18  O   UNL     1       3.268   0.631  -2.394  0.00  0.00    -0.249 OA
BRANCH  17  19
ATOM     19  O   UNL     1       5.378   0.466  -1.758  0.00  0.00    -0.464 OA
BRANCH  19  21
ATOM     20  C   UNL     1       7.288   0.351  -3.265  0.00  0.00    +0.048 C 
ATOM     21  C   UNL     1       5.766   0.461  -3.158  0.00  0.00    +0.229 C 
ENDBRANCH  19  21
ENDBRANCH  17  19
ENDBRANCH  16  17
ENDBRANCH   1  16
TORSDOF 4
