REMARK  Name = ZINC57681382
REMARK  3 active torsions:
REMARK  status: ('A' for Active; 'I' for Inactive)
REMARK    1  A    between atoms: C_5  and  C_7
REMARK    2  A    between atoms: C_13  and  S_20
REMARK    3  A    between atoms: S_20  and  N_23
REMARK                            x       y       z     vdW  Elec       q    Type
REMARK                         _______ _______ _______ _____ _____    ______ ____
ROOT
ATOM      1  C   UNL     1       1.229  -2.186  -0.022  0.00  0.00    +0.192 C 
ATOM      2  N   UNL     1       2.350  -2.656  -0.832  0.00  0.00    -0.322 N 
ATOM      3  C   UNL     1       2.402  -2.525  -2.216  0.00  0.00    +0.057 A 
ATOM      4  C   UNL     1       3.643  -2.566  -2.849  0.00  0.00    +0.047 A 
ATOM      5  C   UNL     1       3.727  -2.455  -4.222  0.00  0.00    +0.069 A 
ATOM      6  C   UNL     1       2.579  -2.304  -4.981  0.00  0.00    +0.125 A 
ATOM      7  C   UNL     1       1.344  -2.257  -4.359  0.00  0.00    +0.060 A 
ATOM      8  C   UNL     1       1.258  -2.359  -2.986  0.00  0.00    +0.128 A 
ATOM      9  S   UNL     1      -0.318  -2.257  -2.194  0.00  0.00    +0.062 S 
ATOM     10  O   UNL     1      -0.691  -0.886  -2.184  0.00  0.00    -0.153 OA
ATOM     11  O   UNL     1      -1.135  -3.272  -2.763  0.00  0.00    -0.153 OA
ATOM     12  N   UNL     1      -0.028  -2.695  -0.607  0.00  0.00    -0.166 NA
ATOM     13 CL   UNL     1       5.278  -2.504  -5.001  0.00  0.00    -0.081 Cl
ATOM     14  H   UNL     1       3.096  -3.082  -0.381  0.00  0.00    +0.148 HD
ATOM     15  H   UNL     1      -0.644  -3.250  -0.102  0.00  0.00    +0.150 HD
ENDROOT
BRANCH   1  20
ATOM     16  C   UNL     1      -0.017   1.378   0.010  0.00  0.00    +0.000 A 
ATOM     17  C   UNL     1       1.171   2.086   0.002  0.00  0.00    +0.001 A 
ATOM     18  C   UNL     1       2.377   1.412  -0.013  0.00  0.00    +0.020 A 
ATOM     19  C   UNL     1       2.397   0.029  -0.021  0.00  0.00    +0.047 A 
ATOM     20  C   UNL     1       1.208  -0.679  -0.013  0.00  0.00    +0.007 A 
ATOM     21  C   UNL     1       0.002  -0.004   0.002  0.00  0.00    +0.008 A 
ATOM     22 CL   UNL     1       3.912  -0.818  -0.041  0.00  0.00    -0.083 Cl
ENDBRANCH   1  20
BRANCH   6  23
ATOM     23  S   UNL     1       2.690  -2.173  -6.735  0.00  0.00    +0.057 S 
ATOM     24  O   UNL     1       3.527  -3.235  -7.169  0.00  0.00    -0.153 OA
ATOM     25  O   UNL     1       1.363  -2.003  -7.214  0.00  0.00    -0.153 OA
BRANCH  23  26
ATOM     26  N   UNL     1       3.498  -0.766  -7.070  0.00  0.00    -0.203 NA
ATOM     27  H   UNL     1       3.806  -0.199  -6.345  0.00  0.00    +0.144 HD
ATOM     28  H   UNL     1       3.663  -0.510  -7.990  0.00  0.00    +0.144 HD
ENDBRANCH  23  26
ENDBRANCH   6  23
TORSDOF 3
