REMARK  Name = ZINC39852178
REMARK  6 active torsions:
REMARK  status: ('A' for Active; 'I' for Inactive)
REMARK    1  A    between atoms: C_3  and  N_22
REMARK    2  A    between atoms: C_6  and  C_7
REMARK    3  A    between atoms: N_9  and  N_10
REMARK    4  A    between atoms: C_11  and  C_13
REMARK    5  A    between atoms: C_16  and  N_19
REMARK    6  A    between atoms: C_25  and  C_27
REMARK                            x       y       z     vdW  Elec       q    Type
REMARK                         _______ _______ _______ _____ _____    ______ ____
ROOT
ATOM      1  C   UNL     1      -0.012   1.383  -0.161  0.00  0.00    +0.015 A 
ATOM      2  C   UNL     1       1.172   2.087  -0.168  0.00  0.00    +0.028 A 
ATOM      3  C   UNL     1       2.381   1.417  -0.013  0.00  0.00    +0.066 A 
ATOM      4  C   UNL     1       2.399   0.036   0.149  0.00  0.00    +0.028 A 
ATOM      5  C   UNL     1       1.219  -0.674   0.157  0.00  0.00    +0.015 A 
ATOM      6  C   UNL     1       0.002  -0.004   0.002  0.00  0.00    +0.038 A 
ENDROOT
BRANCH   3   7
ATOM      7  N   UNL     1       3.580   2.134  -0.021  0.00  0.00    -0.231 N 
ATOM      8  C   UNL     1       3.813   3.301   0.605  0.00  0.00    +0.082 A 
ATOM      9  C   UNL     1       5.132   3.652   0.372  0.00  0.00    +0.011 A 
ATOM     10  C   UNL     1       5.680   2.675  -0.443  0.00  0.00    +0.169 A 
ATOM     11  N   UNL     1       4.765   1.763  -0.680  0.00  0.00    -0.161 NA
ATOM     12  C   UNL     1       5.766   4.876   0.975  0.00  0.00    +0.047 C 
ATOM     13  C   UNL     1       4.743   5.996   1.172  0.00  0.00    +0.080 C 
ATOM     14  C   UNL     1       3.443   5.463   1.713  0.00  0.00    +0.114 A 
ATOM     15  C   UNL     1       2.987   4.198   1.426  0.00  0.00    +0.042 A 
ATOM     16  C   UNL     1       1.696   4.065   2.064  0.00  0.00    +0.051 A 
ATOM     17  C   UNL     1       1.486   5.234   2.705  0.00  0.00    +0.196 A 
ATOM     18  O   UNL     1       2.541   6.045   2.502  0.00  0.00    -0.467 OA
BRANCH  10  19
ATOM     19  C   UNL     1       7.093   2.658  -0.966  0.00  0.00    +0.436 C 
ATOM     20  F   UNL     1       7.917   1.980  -0.061  0.00  0.00    -0.164 F 
ATOM     21  F   UNL     1       7.125   2.006  -2.204  0.00  0.00    -0.164 F 
ATOM     22  F   UNL     1       7.550   3.971  -1.118  0.00  0.00    -0.164 F 
ENDBRANCH  10  19
ENDBRANCH   3   7
BRANCH   6  23
ATOM     23  C   UNL     1      -1.265  -0.761   0.011  0.00  0.00    +0.260 C 
ATOM     24  O   UNL     1      -2.323  -0.177  -0.124  0.00  0.00    -0.269 OA
ATOM     25  N   UNL     1      -1.250  -2.100   0.167  0.00  0.00    -0.230 N 
ATOM     26  H   UNL     1      -0.406  -2.566   0.275  0.00  0.00    +0.173 HD
BRANCH  25  27
ATOM     27  N   UNL     1      -2.452  -2.818   0.175  0.00  0.00    -0.230 N 
ATOM     28  C   UNL     1      -2.437  -4.157   0.332  0.00  0.00    +0.260 C 
ATOM     29  O   UNL     1      -1.379  -4.741   0.467  0.00  0.00    -0.269 OA
ATOM     30  H   UNL     1      -3.296  -2.353   0.068  0.00  0.00    +0.173 HD
BRANCH  28  31
ATOM     31  C   UNL     1      -3.706  -4.915   0.341  0.00  0.00    +0.038 A 
ATOM     32  C   UNL     1      -4.922  -4.249   0.181  0.00  0.00    +0.015 A 
ATOM     33  C   UNL     1      -6.102  -4.962   0.189  0.00  0.00    +0.033 A 
ATOM     34  C   UNL     1      -6.083  -6.335   0.356  0.00  0.00    +0.126 A 
ATOM     35  C   UNL     1      -4.881  -7.002   0.516  0.00  0.00    +0.033 A 
ATOM     36  C   UNL     1      -3.693  -6.301   0.503  0.00  0.00    +0.015 A 
BRANCH  34  37
ATOM     37  N   UNL     1      -7.354  -7.095   0.365  0.00  0.00    +0.056 N 
ATOM     38  O   UNL     1      -8.405  -6.514   0.226  0.00  0.00    -0.126 OA
ATOM     39  O   UNL     1      -7.340  -8.295   0.511  0.00  0.00    -0.126 OA
ENDBRANCH  34  37
ENDBRANCH  28  31
ENDBRANCH  25  27
ENDBRANCH   6  23
TORSDOF 6
