REMARK  Name = ZINC22942778
REMARK  8 active torsions:
REMARK  status: ('A' for Active; 'I' for Inactive)
REMARK    1  A    between atoms: C_1  and  C_2
REMARK    2  A    between atoms: C_5  and  C_8
REMARK    3  A    between atoms: C_10  and  C_13
REMARK    4  A    between atoms: C_13  and  N_14
REMARK    5  A    between atoms: N_17  and  C_20
REMARK    6  A    between atoms: C_20  and  C_21
REMARK    7  A    between atoms: C_23  and  C_26
REMARK    8  A    between atoms: C_29  and  C_32
REMARK                            x       y       z     vdW  Elec       q    Type
REMARK                         _______ _______ _______ _____ _____    ______ ____
ROOT
ATOM      1  N   UNL     1      -1.278  -7.884   1.946  0.00  0.00    +0.387 N 
ATOM      2  C   UNL     1      -1.948  -6.809   2.690  0.00  0.00    -0.063 C 
ATOM      3  C   UNL     1      -3.391  -7.220   2.991  0.00  0.00    +0.066 C 
ATOM      4  N   UNL     1      -3.390  -8.459   3.782  0.00  0.00    -0.297 NA
ATOM      5  C   UNL     1      -2.700  -9.538   3.060  0.00  0.00    +0.066 C 
ATOM      6  C   UNL     1      -1.263  -9.108   2.758  0.00  0.00    -0.063 C 
ATOM      7  H   UNL     1      -1.775  -8.058   1.086  0.00  0.00    -0.081 HD
ENDROOT
BRANCH   1   8
ATOM      8  C   UNL     1       0.102  -7.482   1.642  0.00  0.00    +0.022 C 
BRANCH   8  11
ATOM      9  C   UNL     1       0.059  -4.256  -0.021  0.00  0.00    +0.202 A 
ATOM     10  N   UNL     1       0.070  -5.047   1.067  0.00  0.00    -0.193 NA
ATOM     11  C   UNL     1       0.086  -6.299   0.708  0.00  0.00    +0.211 A 
ATOM     12  O   UNL     1       0.086  -6.357  -0.630  0.00  0.00    -0.340 OA
ATOM     13  N   UNL     1       0.064  -5.015  -1.090  0.00  0.00    -0.056 NA
BRANCH   9  18
ATOM     14  C   UNL     1      -0.018   1.503   0.010  0.00  0.00    +0.044 C 
ATOM     15  C   UNL     1       0.002  -0.004   0.002  0.00  0.00    -0.050 A 
ATOM     16  C   UNL     1       0.006  -0.686  -1.201  0.00  0.00    +0.004 A 
ATOM     17  C   UNL     1       0.024  -2.067  -1.214  0.00  0.00    +0.012 A 
ATOM     18  C   UNL     1       0.040  -2.772  -0.013  0.00  0.00    +0.022 A 
ATOM     19  C   UNL     1       0.036  -2.080   1.196  0.00  0.00    +0.012 A 
ATOM     20  C   UNL     1       0.023  -0.700   1.198  0.00  0.00    +0.004 A 
ENDBRANCH   9  18
ENDBRANCH   8  11
ENDBRANCH   1   8
BRANCH   4  21
ATOM     21  C   UNL     1      -4.758  -8.857   4.140  0.00  0.00    +0.183 C 
BRANCH  21  22
ATOM     22  C   UNL     1      -4.709  -9.978   5.145  0.00  0.00    +0.242 A 
ATOM     23  N   UNL     1      -4.687  -9.840   6.440  0.00  0.00    -0.190 NA
ATOM     24  C   UNL     1      -4.644 -11.047   7.032  0.00  0.00    +0.202 A 
ATOM     25  N   UNL     1      -4.637 -11.969   6.101  0.00  0.00    -0.056 NA
ATOM     26  O   UNL     1      -4.685 -11.286   4.857  0.00  0.00    -0.336 OA
BRANCH  24  27
ATOM     27  C   UNL     1      -4.609 -11.293   8.495  0.00  0.00    +0.022 A 
ATOM     28  C   UNL     1      -4.625 -10.221   9.385  0.00  0.00    +0.012 A 
ATOM     29  C   UNL     1      -4.592 -10.456  10.745  0.00  0.00    +0.004 A 
ATOM     30  C   UNL     1      -4.542 -11.752  11.224  0.00  0.00    -0.050 A 
ATOM     31  C   UNL     1      -4.526 -12.820  10.345  0.00  0.00    +0.004 A 
ATOM     32  C   UNL     1      -4.565 -12.597   8.984  0.00  0.00    +0.012 A 
ATOM     33  C   UNL     1      -4.505 -12.002  12.710  0.00  0.00    +0.044 C 
ENDBRANCH  24  27
ENDBRANCH  21  22
ENDBRANCH   4  21
TORSDOF 6
