REMARK  Name = ZINC09148333
REMARK  3 active torsions:
REMARK  status: ('A' for Active; 'I' for Inactive)
REMARK    1  A    between atoms: C_9  and  C_12
REMARK    2  A    between atoms: N_14  and  N_25
REMARK    3  A    between atoms: C_26  and  C_27
REMARK                            x       y       z     vdW  Elec       q    Type
REMARK                         _______ _______ _______ _____ _____    ______ ____
ROOT
ATOM      1  C   UNL     1       0.058   1.099   2.452  0.00  0.00    +0.285 C 
ATOM      2  O   UNL     1       0.587   1.901   3.192  0.00  0.00    -0.269 OA
ATOM      3  N   UNL     1       0.050  -0.210   2.773  0.00  0.00    -0.133 N 
ATOM      4  C   UNL     1       0.646  -0.640   3.948  0.00  0.00    +0.189 A 
ATOM      5  N   UNL     1       1.336   0.055   4.823  0.00  0.00    -0.223 NA
ATOM      6  C   UNL     1       1.861  -0.498   5.938  0.00  0.00    +0.080 A 
ATOM      7  C   UNL     1       2.614   0.134   6.955  0.00  0.00    +0.030 A 
ATOM      8  C   UNL     1       3.082  -0.580   8.026  0.00  0.00    +0.022 A 
ATOM      9  C   UNL     1       2.837  -1.941   8.154  0.00  0.00    +0.042 A 
ATOM     10  C   UNL     1       2.103  -2.592   7.178  0.00  0.00    +0.037 A 
ATOM     11  C   UNL     1       1.631  -1.884   6.101  0.00  0.00    +0.042 A 
ATOM     12  S   UNL     1       0.678  -2.281   4.654  0.00  0.00    -0.050 S 
ATOM     13 CL   UNL     1       3.444  -2.817   9.524  0.00  0.00    -0.084 Cl
ENDROOT
BRANCH   1  22
ATOM     14  C   UNL     1      -1.342   4.726  -2.566  0.00  0.00    +0.004 A 
ATOM     15  C   UNL     1      -1.381   5.486  -1.412  0.00  0.00    +0.004 A 
ATOM     16  C   UNL     1      -1.112   4.903  -0.189  0.00  0.00    +0.049 A 
ATOM     17  C   UNL     1      -0.802   3.553  -0.115  0.00  0.00    +0.163 A 
ATOM     18  C   UNL     1      -0.765   2.788  -1.275  0.00  0.00    +0.162 A 
ATOM     19  C   UNL     1      -1.035   3.380  -2.500  0.00  0.00    +0.049 A 
ATOM     20  O   UNL     1      -0.467   1.461  -1.225  0.00  0.00    -0.484 OA
ATOM     21  C   UNL     1       0.165   0.988  -0.030  0.00  0.00    +0.283 C 
ATOM     22  C   UNL     1      -0.590   1.566   1.174  0.00  0.00    +0.298 C 
ATOM     23  O   UNL     1      -0.533   2.994   1.097  0.00  0.00    -0.472 OA
ENDBRANCH   1  22
BRANCH   3  24
ATOM     24  N   UNL     1      -0.561  -1.137   1.918  0.00  0.00    -0.175 NA
ATOM     25  C   UNL     1      -1.625  -1.777   2.307  0.00  0.00    +0.177 C 
BRANCH  25  26
ATOM     26  C   UNL     1      -2.199  -2.828   1.461  0.00  0.00    +0.147 A 
ATOM     27  C   UNL     1      -3.303  -3.577   1.750  0.00  0.00    +0.051 A 
ATOM     28  C   UNL     1      -3.491  -4.454   0.666  0.00  0.00    +0.042 A 
ATOM     29  C   UNL     1      -2.503  -4.209  -0.219  0.00  0.00    +0.196 A 
ATOM     30  O   UNL     1      -1.724  -3.228   0.264  0.00  0.00    -0.462 OA
ENDBRANCH  25  26
ENDBRANCH   3  24
TORSDOF 3
