REMARK  Name = ZINC24068620
REMARK  9 active torsions:
REMARK  status: ('A' for Active; 'I' for Inactive)
REMARK    1  A    between atoms: C_3  and  C_33
REMARK    2  A    between atoms: C_6  and  C_7
REMARK    3  A    between atoms: C_7  and  S_8
REMARK    4  A    between atoms: S_8  and  C_9
REMARK    5  A    between atoms: C_15  and  C_17
REMARK    6  A    between atoms: C_17  and  C_18
REMARK    7  A    between atoms: C_18  and  C_19
REMARK    8  A    between atoms: C_19  and  N_20
REMARK    9  A    between atoms: C_21  and  C_23
REMARK                            x       y       z     vdW  Elec       q    Type
REMARK                         _______ _______ _______ _____ _____    ______ ____
ROOT
ATOM      1  C   UNL     1       1.136  -0.689  -0.013  0.00  0.00    +0.160 A 
ATOM      2  N   UNL     1       0.002  -0.004   0.002  0.00  0.00    -0.133 NA
ATOM      3  N   UNL     1      -0.015   1.257   0.009  0.00  0.00    -0.125 NA
ATOM      4  C   UNL     1       1.097   1.974   0.002  0.00  0.00    +0.189 A 
ATOM      5  S   UNL     1       2.313   0.660  -0.017  0.00  0.00    -0.024 S 
ATOM      6  N   UNL     1       1.272   3.355   0.008  0.00  0.00    -0.263 N 
ATOM      7  C   UNL     1       0.198   4.170   0.022  0.00  0.00    +0.219 C 
ATOM      8  O   UNL     1      -0.920   3.700   0.031  0.00  0.00    -0.275 OA
ATOM      9  H   UNL     1       2.286   3.781  -0.000  0.00  0.00    +0.157 HD
ENDROOT
BRANCH   1  10
ATOM     10  S   UNL     1       1.408  -2.430  -0.025  0.00  0.00    -0.092 S 
BRANCH  10  11
ATOM     11  C   UNL     1      -0.263  -3.135  -0.013  0.00  0.00    +0.111 C 
BRANCH  11  17
ATOM     12  C   UNL     1      -0.151  -5.321  -1.226  0.00  0.00    +0.006 A 
ATOM     13  C   UNL     1      -0.064  -6.697  -1.242  0.00  0.00    +0.019 A 
ATOM     14  C   UNL     1      -0.010  -7.404  -0.039  0.00  0.00    +0.052 A 
ATOM     15  C   UNL     1      -0.040  -6.711   1.173  0.00  0.00    +0.019 A 
ATOM     16  C   UNL     1      -0.121  -5.334   1.174  0.00  0.00    +0.006 A 
ATOM     17  C   UNL     1      -0.174  -4.639  -0.022  0.00  0.00    -0.037 A 
BRANCH  14  18
ATOM     18  C   UNL     1       0.075  -8.833  -0.048  0.00  0.00    +0.099 C 
ATOM     19  N   UNL     1       0.143  -9.967  -0.055  0.00  0.00    -0.191 NA
ENDBRANCH  14  18
ENDBRANCH  11  17
ENDBRANCH  10  11
ENDBRANCH   1  10
BRANCH   7  20
ATOM     20  C   UNL     1       0.387   5.665   0.028  0.00  0.00    +0.098 C 
BRANCH  20  21
ATOM     21  C   UNL     1      -0.980   6.352   0.045  0.00  0.00    +0.028 C 
BRANCH  21  22
ATOM     22  C   UNL     1      -0.788   7.870   0.051  0.00  0.00    +0.104 C 
BRANCH  22  23
ATOM     23  N   UNL     1      -2.097   8.528   0.067  0.00  0.00    -0.315 N 
ATOM     24  C   UNL     1      -2.175   9.873   0.075  0.00  0.00    +0.219 C 
ATOM     25  O   UNL     1      -1.161  10.539   0.068  0.00  0.00    -0.275 OA
ATOM     26  H   UNL     1      -3.016   7.923   0.073  0.00  0.00    +0.149 HD
BRANCH  24  27
ATOM     27  C   UNL     1      -3.521  10.550   0.091  0.00  0.00    +0.048 C 
ATOM     28  C   UNL     1      -4.313  10.140  -1.152  0.00  0.00    +0.019 C 
ATOM     29  C   UNL     1      -5.680  10.827  -1.135  0.00  0.00    -0.009 C 
ATOM     30  C   UNL     1      -5.488  12.345  -1.130  0.00  0.00    +0.007 C 
ATOM     31  C   UNL     1      -4.696  12.754   0.114  0.00  0.00    -0.009 C 
ATOM     32  C   UNL     1      -3.329  12.068   0.097  0.00  0.00    +0.019 C 
ATOM     33  C   UNL     1      -5.464  12.332   1.369  0.00  0.00    +0.007 C 
ATOM     34  C   UNL     1      -5.656  10.815   1.363  0.00  0.00    -0.009 C 
ATOM     35  C   UNL     1      -6.447  10.405   0.119  0.00  0.00    +0.007 C 
ATOM     36  C   UNL     1      -4.288  10.128   1.346  0.00  0.00    +0.019 C 
ENDBRANCH  24  27
ENDBRANCH  22  23
ENDBRANCH  21  22
ENDBRANCH  20  21
ENDBRANCH   7  20
TORSDOF 9
