REMARK  Name = ZINC06699220
REMARK  7 active torsions:
REMARK  status: ('A' for Active; 'I' for Inactive)
REMARK    1  A    between atoms: C_1  and  C_2
REMARK    2  A    between atoms: C_3  and  C_20
REMARK    3  A    between atoms: C_4  and  C_19
REMARK    4  A    between atoms: C_5  and  S_10
REMARK    5  A    between atoms: C_6  and  C_9
REMARK    6  A    between atoms: C_7  and  C_8
REMARK    7  A    between atoms: S_10  and  N_13
REMARK                            x       y       z     vdW  Elec       q    Type
REMARK                         _______ _______ _______ _____ _____    ______ ____
ROOT
ATOM      1  C   UNL     1      -0.809   0.766  -0.244  0.00  0.00    +0.044 C 
ATOM      2  C   UNL     1      -1.242   1.508   0.994  0.00  0.00    -0.044 A 
ATOM      3  C   UNL     1      -2.579   1.798   1.194  0.00  0.00    -0.043 A 
ATOM      4  C   UNL     1      -2.977   2.474   2.333  0.00  0.00    -0.020 A 
ATOM      5  C   UNL     1      -2.036   2.869   3.266  0.00  0.00    +0.115 A 
ATOM      6  C   UNL     1      -0.699   2.584   3.063  0.00  0.00    -0.020 A 
ATOM      7  C   UNL     1      -0.302   1.903   1.927  0.00  0.00    -0.043 A 
ATOM      8  C   UNL     1       1.156   1.592   1.706  0.00  0.00    +0.044 C 
ATOM      9  C   UNL     1       0.326   3.015   4.080  0.00  0.00    +0.046 C 
ATOM     10  C   UNL     1      -4.434   2.786   2.553  0.00  0.00    +0.046 C 
ATOM     11  C   UNL     1      -3.603   1.373   0.174  0.00  0.00    +0.044 C 
ENDROOT
BRANCH   5  12
ATOM     12  S   UNL     1      -2.542   3.737   4.713  0.00  0.00    +0.074 S 
ATOM     13  O   UNL     1      -3.955   3.865   4.637  0.00  0.00    -0.150 OA
ATOM     14  O   UNL     1      -1.891   3.112   5.810  0.00  0.00    -0.150 OA
BRANCH  12  15
ATOM     15  N   UNL     1      -1.923   5.270   4.606  0.00  0.00    -0.197 N 
ATOM     16  C   UNL     1      -2.320   6.110   3.572  0.00  0.00    +0.180 A 
ATOM     17  C   UNL     1      -1.967   7.475   3.398  0.00  0.00    +0.089 A 
ATOM     18  C   UNL     1      -2.599   7.833   2.257  0.00  0.00    +0.232 A 
ATOM     19  O   UNL     1      -3.257   6.747   1.827  0.00  0.00    -0.361 OA
ATOM     20  N   UNL     1      -3.089   5.801   2.560  0.00  0.00    -0.062 NA
ATOM     21  H   UNL     1      -1.283   5.581   5.266  0.00  0.00    +0.175 HD
ENDBRANCH  12  15
ENDBRANCH   5  12
TORSDOF 2
