REMARK  Name = ZINC64338699
REMARK  4 active torsions:
REMARK  status: ('A' for Active; 'I' for Inactive)
REMARK    1  A    between atoms: C_3  and  C_11
REMARK    2  A    between atoms: C_11  and  O_12
REMARK    3  A    between atoms: O_12  and  C_13
REMARK    4  A    between atoms: C_16  and  N_19
REMARK                            x       y       z     vdW  Elec       q    Type
REMARK                         _______ _______ _______ _____ _____    ______ ____
ROOT
ATOM      1  O   UNL     1       3.383   3.595  -0.012  0.00  0.00    -0.487 OA
ENDROOT
BRANCH   1   2
ATOM      2  C   UNL     1       4.446   4.442  -0.019  0.00  0.00    +0.121 A 
ATOM      3  C   UNL     1       5.737   3.935  -0.041  0.00  0.00    +0.048 A 
ATOM      4  C   UNL     1       6.817   4.795  -0.047  0.00  0.00    +0.031 A 
ATOM      5  C   UNL     1       6.610   6.168  -0.032  0.00  0.00    +0.069 A 
ATOM      6  C   UNL     1       5.318   6.675  -0.010  0.00  0.00    +0.031 A 
ATOM      7  C   UNL     1       4.239   5.814  -0.009  0.00  0.00    +0.048 A 
BRANCH   5   8
ATOM      8  N   UNL     1       7.708   7.043  -0.038  0.00  0.00    -0.200 N 
ATOM      9  C   UNL     1       7.680   8.393  -0.019  0.00  0.00    +0.250 A 
ATOM     10  N   UNL     1       8.920   8.807  -0.034  0.00  0.00    -0.116 NA
ATOM     11  N   UNL     1       9.730   7.811  -0.060  0.00  0.00    -0.023 NA
ATOM     12  N   UNL     1       9.072   6.702  -0.058  0.00  0.00    -0.039 NA
ENDBRANCH   5   8
ENDBRANCH   1   2
BRANCH   1  13
ATOM     13  C   UNL     1       3.670   2.195  -0.023  0.00  0.00    +0.268 C 
BRANCH  13  16
ATOM     14  C   UNL     1      -0.017   1.378   0.010  0.00  0.00    +0.004 A 
ATOM     15  C   UNL     1       1.170   2.088   0.002  0.00  0.00    +0.011 A 
ATOM     16  C   UNL     1       2.378   1.418  -0.014  0.00  0.00    +0.035 A 
ATOM     17  C   UNL     1       2.404   0.031  -0.023  0.00  0.00    +0.168 A 
ATOM     18  C   UNL     1       1.212  -0.683  -0.013  0.00  0.00    +0.162 A 
ATOM     19  C   UNL     1       0.002  -0.004   0.002  0.00  0.00    +0.049 A 
ATOM     20  O   UNL     1       1.214  -2.044  -0.013  0.00  0.00    -0.485 OA
ATOM     21  C   UNL     1       2.434  -2.685  -0.404  0.00  0.00    +0.270 C 
ATOM     22  C   UNL     1       3.594  -1.997   0.328  0.00  0.00    +0.270 C 
ATOM     23  O   UNL     1       3.602  -0.615  -0.043  0.00  0.00    -0.485 OA
ENDBRANCH  13  16
ENDBRANCH   1  13
TORSDOF 4
