REMARK  Name = ZINC09970224
REMARK  8 active torsions:
REMARK  status: ('A' for Active; 'I' for Inactive)
REMARK    1  A    between atoms: C_1  and  C_2
REMARK    2  A    between atoms: C_5  and  N_10
REMARK    3  A    between atoms: C_6  and  O_8
REMARK    4  A    between atoms: O_8  and  C_9
REMARK    5  A    between atoms: C_12  and  C_24
REMARK    6  A    between atoms: N_14  and  C_15
REMARK    7  A    between atoms: C_18  and  N_21
REMARK    8  A    between atoms: C_27  and  N_30
REMARK                            x       y       z     vdW  Elec       q    Type
REMARK                         _______ _______ _______ _____ _____    ______ ____
ROOT
ATOM      1  N   UNL     1      -1.254   2.160  -0.374  0.00  0.00    -0.144 N 
ATOM      2  N   UNL     1      -2.401   1.581  -0.328  0.00  0.00    -0.127 NA
ATOM      3  C   UNL     1      -3.302   2.400   0.222  0.00  0.00    +0.203 A 
ATOM      4  N   UNL     1      -2.682   3.528   0.516  0.00  0.00    -0.127 NA
ATOM      5  N   UNL     1      -1.347   3.349   0.118  0.00  0.00    -0.148 N 
ENDROOT
BRANCH   1  10
ATOM      6  C   UNL     1       3.468  -0.149  -2.459  0.00  0.00    +0.044 C 
ATOM      7  C   UNL     1       2.211   0.465  -1.900  0.00  0.00    -0.047 A 
ATOM      8  C   UNL     1       1.764   1.682  -2.385  0.00  0.00    +0.006 A 
ATOM      9  C   UNL     1       0.614   2.252  -1.880  0.00  0.00    +0.033 A 
ATOM     10  C   UNL     1      -0.103   1.600  -0.877  0.00  0.00    +0.128 A 
ATOM     11  C   UNL     1       0.351   0.370  -0.390  0.00  0.00    +0.147 A 
ATOM     12  C   UNL     1       1.509  -0.190  -0.907  0.00  0.00    +0.051 A 
BRANCH  11  13
ATOM     13  O   UNL     1      -0.340  -0.274   0.587  0.00  0.00    -0.493 OA
ATOM     14  C   UNL     1       0.184  -1.526   1.035  0.00  0.00    +0.277 C 
ENDBRANCH  11  13
ENDBRANCH   1  10
BRANCH   5  15
ATOM     15  C   UNL     1      -0.310   4.284   0.234  0.00  0.00    +0.086 A 
ATOM     16  C   UNL     1       0.991   3.857   0.465  0.00  0.00    +0.032 A 
ATOM     17  C   UNL     1       2.011   4.782   0.574  0.00  0.00    +0.035 A 
ATOM     18  C   UNL     1       1.736   6.132   0.465  0.00  0.00    +0.126 A 
ATOM     19  C   UNL     1       0.441   6.561   0.241  0.00  0.00    +0.035 A 
ATOM     20  C   UNL     1      -0.583   5.641   0.126  0.00  0.00    +0.032 A 
BRANCH  18  21
ATOM     21  N   UNL     1       2.831   7.121   0.588  0.00  0.00    +0.056 N 
ATOM     22  O   UNL     1       2.590   8.311   0.492  0.00  0.00    -0.126 OA
ATOM     23  O   UNL     1       3.972   6.745   0.785  0.00  0.00    -0.126 OA
ENDBRANCH  18  21
ENDBRANCH   5  15
BRANCH   3  24
ATOM     24  C   UNL     1      -4.737   2.099   0.455  0.00  0.00    +0.023 A 
ATOM     25  C   UNL     1      -5.260   0.861   0.087  0.00  0.00    +0.014 A 
ATOM     26  C   UNL     1      -6.593   0.584   0.310  0.00  0.00    +0.033 A 
ATOM     27  C   UNL     1      -7.412   1.537   0.888  0.00  0.00    +0.126 A 
ATOM     28  C   UNL     1      -6.899   2.770   1.250  0.00  0.00    +0.033 A 
ATOM     29  C   UNL     1      -5.566   3.055   1.036  0.00  0.00    +0.014 A 
BRANCH  27  30
ATOM     30  N   UNL     1      -8.844   1.237   1.119  0.00  0.00    +0.056 N 
ATOM     31  O   UNL     1      -9.567   2.075   1.627  0.00  0.00    -0.126 OA
ATOM     32  O   UNL     1      -9.298   0.153   0.801  0.00  0.00    -0.126 OA
ENDBRANCH  27  30
ENDBRANCH   3  24
TORSDOF 6
