REMARK  Name = ZINC42587753
REMARK  8 active torsions:
REMARK  status: ('A' for Active; 'I' for Inactive)
REMARK    1  A    between atoms: C_1  and  C_2
REMARK    2  A    between atoms: C_2  and  C_3
REMARK    3  A    between atoms: C_2  and  C_4
REMARK    4  A    between atoms: C_4  and  N_5
REMARK    5  A    between atoms: N_5  and  C_6
REMARK    6  A    between atoms: N_5  and  C_13
REMARK    7  A    between atoms: C_13  and  C_14
REMARK    8  A    between atoms: C_13  and  C_15
REMARK                            x       y       z     vdW  Elec       q    Type
REMARK                         _______ _______ _______ _____ _____    ______ ____
ROOT
ATOM      1  N   UNL     1      -2.090   0.001  -1.124  0.00  0.00    +0.388 N 
ATOM      2  H   UNL     1      -1.731  -0.396  -1.980  0.00  0.00    -0.080 HD
ENDROOT
BRANCH   1   3
ATOM      3  C   UNL     1      -3.463  -0.470  -0.903  0.00  0.00    -0.000 C 
ATOM      4  C   UNL     1      -3.518  -2.008  -1.015  0.00  0.00    -0.007 C 
ATOM      5  C   UNL     1      -4.872  -2.279  -1.719  0.00  0.00    +0.006 C 
ATOM      6  C   UNL     1      -4.963  -1.105  -2.725  0.00  0.00    +0.072 C 
ATOM      7  C   UNL     1      -4.378   0.081  -1.977  0.00  0.00    +0.120 C 
ATOM      8  O   UNL     1      -4.602   1.248  -2.197  0.00  0.00    -0.299 OA
ENDBRANCH   1   3
BRANCH   1   9
ATOM      9  C   UNL     1      -2.084   1.466  -1.223  0.00  0.00    -0.074 C 
ATOM     10  C   UNL     1      -2.512   2.070   0.117  0.00  0.00    -0.013 C 
ATOM     11  C   UNL     1      -0.675   1.949  -1.573  0.00  0.00    -0.013 C 
ENDBRANCH   1   9
BRANCH   1  12
ATOM     12  C   UNL     1      -1.242  -0.417   0.001  0.00  0.00    -0.075 C 
BRANCH  12  14
ATOM     13  C   UNL     1      -0.182  -2.180  -1.416  0.00  0.00    +0.005 C 
ATOM     14  C   UNL     1      -0.941  -1.913  -0.115  0.00  0.00    -0.034 C 
ATOM     15  C   UNL     1      -0.087  -2.355   1.075  0.00  0.00    +0.005 C 
ENDBRANCH  12  14
ENDBRANCH   1  12
TORSDOF 4
