REMARK  Name = ZINC22790373
REMARK  13 active torsions:
REMARK  status: ('A' for Active; 'I' for Inactive)
REMARK    1  A    between atoms: C_1  and  C_2
REMARK    2  A    between atoms: C_6  and  C_40
REMARK    3  A    between atoms: C_8  and  O_11
REMARK    4  A    between atoms: O_11  and  C_12
REMARK    5  A    between atoms: C_12  and  C_13
REMARK    6  A    between atoms: C_13  and  C_15
REMARK    7  A    between atoms: C_13  and  O_39
REMARK    8  A    between atoms: C_15  and  N_16
REMARK    9  A    between atoms: N_19  and  C_22
REMARK   10  A    between atoms: C_22  and  C_23
REMARK   11  A    between atoms: C_23  and  N_24
REMARK   12  A    between atoms: C_40  and  C_41
REMARK   13  A    between atoms: C_40  and  C_42
REMARK                            x       y       z     vdW  Elec       q    Type
REMARK                         _______ _______ _______ _____ _____    ______ ____
ROOT
ATOM      1  N   UNL     1      -6.239   0.814  -5.962  0.00  0.00    -0.303 NA
ATOM      2  C   UNL     1      -7.126   1.955  -5.695  0.00  0.00    +0.066 C 
ATOM      3  C   UNL     1      -7.724   2.452  -7.013  0.00  0.00    -0.063 C 
ATOM      4  N   UNL     1      -8.460   1.356  -7.659  0.00  0.00    +0.382 N 
ATOM      5  C   UNL     1      -7.573   0.215  -7.926  0.00  0.00    -0.063 C 
ATOM      6  C   UNL     1      -6.975  -0.282  -6.608  0.00  0.00    +0.066 C 
ATOM      7  H   UNL     1      -9.246   1.020  -6.966  0.00  0.00    -0.082 HD
ENDROOT
BRANCH   1   8
ATOM      8  C   UNL     1      -5.585   0.355  -4.729  0.00  0.00    +0.117 C 
BRANCH   8   9
ATOM      9  C   UNL     1      -4.342  -0.462  -5.084  0.00  0.00    +0.154 C 
BRANCH   9  10
ATOM     10  O   UNL     1      -3.428   0.355  -5.819  0.00  0.00    -0.388 OA
ATOM     11  H   UNL     1      -3.736   0.800  -6.776  0.00  0.00    +0.210 HD
ENDBRANCH   9  10
BRANCH   9  12
ATOM     12  C   UNL     1      -3.669  -0.952  -3.800  0.00  0.00    +0.192 C 
BRANCH  12  13
ATOM     13  O   UNL     1      -2.577  -1.811  -4.132  0.00  0.00    -0.374 OA
BRANCH  13  19
ATOM     14  C   UNL     1      -0.957  -2.054  -0.230  0.00  0.00    +0.007 C 
ATOM     15  C   UNL     1       0.009  -1.923  -1.409  0.00  0.00    -0.012 C 
ATOM     16  C   UNL     1       0.589  -3.297  -1.748  0.00  0.00    +0.004 C 
ATOM     17  C   UNL     1      -0.547  -4.251  -2.123  0.00  0.00    +0.006 C 
ATOM     18  C   UNL     1      -1.296  -3.700  -3.338  0.00  0.00    +0.020 C 
ATOM     19  C   UNL     1      -1.877  -2.326  -2.998  0.00  0.00    +0.122 C 
ATOM     20  C   UNL     1      -0.741  -1.371  -2.623  0.00  0.00    +0.035 C 
BRANCH  18  21
ATOM     21  C   UNL     1      -2.432  -4.654  -3.713  0.00  0.00    -0.012 C 
ATOM     22  C   UNL     1      -1.844  -5.978  -4.206  0.00  0.00    +0.007 C 
ATOM     23  C   UNL     1      -3.308  -4.912  -2.485  0.00  0.00    +0.007 C 
ENDBRANCH  18  21
ENDBRANCH  13  19
ENDBRANCH  12  13
ENDBRANCH   9  12
ENDBRANCH   8   9
ENDBRANCH   1   8
BRANCH   4  24
ATOM     24  C   UNL     1      -9.113   1.815  -8.892  0.00  0.00    -0.059 C 
BRANCH  24  25
ATOM     25  C   UNL     1      -9.826   3.142  -8.628  0.00  0.00    +0.098 C 
BRANCH  25  26
ATOM     26  N   UNL     1     -10.477   3.600  -9.858  0.00  0.00    -0.236 N 
ATOM     27  C   UNL     1      -9.788   4.393 -10.700  0.00  0.00    +0.254 C 
ATOM     28  O   UNL     1      -8.646   4.714 -10.431  0.00  0.00    -0.270 OA
ATOM     29  C   UNL     1     -10.406   4.868 -11.947  0.00  0.00    +0.046 A 
ATOM     30  C   UNL     1      -9.732   5.682 -12.845  0.00  0.00    +0.014 A 
ATOM     31  C   UNL     1     -10.361   6.110 -14.008  0.00  0.00    +0.001 A 
ATOM     32  C   UNL     1     -11.645   5.749 -14.301  0.00  0.00    +0.008 A 
ATOM     33  C   UNL     1     -12.363   4.925 -13.418  0.00  0.00    -0.016 A 
ATOM     34  C   UNL     1     -11.736   4.484 -12.234  0.00  0.00    +0.006 A 
ATOM     35  C   UNL     1     -12.432   3.656 -11.325  0.00  0.00    +0.046 A 
ATOM     36  C   UNL     1     -13.737   3.285 -11.615  0.00  0.00    +0.014 A 
ATOM     37  C   UNL     1     -14.344   3.725 -12.785  0.00  0.00    +0.001 A 
ATOM     38  C   UNL     1     -13.687   4.526 -13.675  0.00  0.00    +0.008 A 
ATOM     39  C   UNL     1     -11.745   3.217 -10.101  0.00  0.00    +0.254 C 
ATOM     40  O   UNL     1     -12.325   2.503  -9.305  0.00  0.00    -0.270 OA
ENDBRANCH  25  26
ENDBRANCH  24  25
ENDBRANCH   4  24
TORSDOF 10
