REMARK  Name = ZINC63747059
REMARK  6 active torsions:
REMARK  status: ('A' for Active; 'I' for Inactive)
REMARK    1  A    between atoms: C_1  and  C_2
REMARK    2  A    between atoms: C_2  and  C_3
REMARK    3  A    between atoms: C_2  and  N_4
REMARK    4  A    between atoms: C_8  and  S_14
REMARK    5  A    between atoms: S_14  and  N_17
REMARK    6  A    between atoms: C_23  and  C_25
REMARK                            x       y       z     vdW  Elec       q    Type
REMARK                         _______ _______ _______ _____ _____    ______ ____
ROOT
ATOM      1  N   UNL     1       5.091  -5.442  -1.193  0.00  0.00    -0.174 NA
ATOM      2  C   UNL     1       4.878  -6.168   0.068  0.00  0.00    +0.128 C 
ATOM      3  C   UNL     1       3.451  -6.729   0.076  0.00  0.00    +0.125 C 
ATOM      4  N   UNL     1       3.215  -7.430  -1.194  0.00  0.00    -0.297 N 
ATOM      5  C   UNL     1       3.427  -6.705  -2.454  0.00  0.00    +0.125 C 
ATOM      6  C   UNL     1       4.849  -6.142  -2.462  0.00  0.00    +0.128 C 
ATOM      7  C   UNL     1       2.812  -8.716  -1.202  0.00  0.00    +0.242 C 
ATOM      8  O   UNL     1       2.640  -9.305  -0.156  0.00  0.00    -0.273 OA
ENDROOT
BRANCH   7   9
ATOM      9  C   UNL     1       2.573  -9.423  -2.512  0.00  0.00    +0.190 C 
ATOM     10  C   UNL     1       1.458  -8.744  -3.275  0.00  0.00    +0.016 C 
ATOM     11  C   UNL     1       0.488  -9.675  -3.428  0.00  0.00    -0.004 A 
ATOM     12  C   UNL     1      -0.830  -9.641  -4.072  0.00  0.00    +0.010 A 
ATOM     13  C   UNL     1      -1.593 -10.757  -4.064  0.00  0.00    +0.001 A 
ATOM     14  C   UNL     1      -1.158 -11.943  -3.458  0.00  0.00    +0.002 A 
ATOM     15  C   UNL     1       0.041 -12.052  -2.846  0.00  0.00    +0.026 A 
ATOM     16  C   UNL     1       0.925 -10.940  -2.795  0.00  0.00    +0.043 A 
ATOM     17  N   UNL     1       2.120 -10.797  -2.270  0.00  0.00    -0.370 N 
ATOM     18  H   UNL     1       2.619 -11.483  -1.801  0.00  0.00    +0.161 HD
ENDBRANCH   7   9
BRANCH   1  19
ATOM     19  S   UNL     1       5.586  -3.862  -1.182  0.00  0.00    +0.061 S 
ATOM     20  O   UNL     1       6.216  -3.626  -2.434  0.00  0.00    -0.153 OA
ATOM     21  O   UNL     1       6.251  -3.653   0.056  0.00  0.00    -0.153 OA
BRANCH  19  26
ATOM     22  N   UNL     1       0.688  -0.476  -1.203  0.00  0.00    -0.299 N 
ATOM     23  C   UNL     1       1.822  -1.262  -1.083  0.00  0.00    +0.060 A 
ATOM     24  C   UNL     1       2.446  -1.695   0.099  0.00  0.00    +0.029 A 
ATOM     25  C   UNL     1       3.576  -2.476   0.055  0.00  0.00    +0.030 A 
ATOM     26  C   UNL     1       4.136  -2.861  -1.151  0.00  0.00    +0.107 A 
ATOM     27  C   UNL     1       3.543  -2.450  -2.332  0.00  0.00    +0.045 A 
ATOM     28  C   UNL     1       2.414  -1.669  -2.288  0.00  0.00    +0.043 A 
ATOM     29  S   UNL     1       1.363  -0.940  -3.521  0.00  0.00    -0.027 S 
ATOM     30  C   UNL     1       0.205  -0.147  -2.417  0.00  0.00    +0.292 A 
ATOM     31  O   UNL     1      -0.773   0.523  -2.692  0.00  0.00    -0.259 OA
BRANCH  22  33
ATOM     32  C   UNL     1      -0.019   1.526   0.010  0.00  0.00    +0.030 C 
ATOM     33  C   UNL     1       0.002  -0.004   0.002  0.00  0.00    +0.085 C 
ATOM     34  C   UNL     1      -1.433  -0.534   0.013  0.00  0.00    +0.030 C 
ENDBRANCH  22  33
ENDBRANCH  19  26
ENDBRANCH   1  19
TORSDOF 4
