REMARK  Name = ZINC21026436
REMARK  1 active torsions:
REMARK  status: ('A' for Active; 'I' for Inactive)
REMARK    1  A    between atoms: C_13  and  C_15
REMARK                            x       y       z     vdW  Elec       q    Type
REMARK                         _______ _______ _______ _____ _____    ______ ____
ROOT
ATOM      1  C   UNL     1      -1.469   3.591  -0.019  0.00  0.00    +0.092 C 
ATOM      2  C   UNL     1      -0.779   3.102   1.257  0.00  0.00    +0.016 C 
ATOM      3  C   UNL     1      -0.746   1.571   1.256  0.00  0.00    +0.020 C 
ATOM      4  C   UNL     1      -0.021   1.083  -0.000  0.00  0.00    +0.107 C 
ATOM      5  N   UNL     1      -0.721   1.576  -1.194  0.00  0.00    -0.307 N 
ATOM      6  C   UNL     1      -0.724   3.044  -1.238  0.00  0.00    +0.119 C 
ATOM      7  C   UNL     1      -0.167   1.044  -2.351  0.00  0.00    +0.186 A 
ATOM      8  N   UNL     1      -0.747   0.354  -3.315  0.00  0.00    -0.124 NA
ATOM      9  N   UNL     1      -0.003  -0.081  -4.387  0.00  0.00    -0.124 NA
ATOM     10  C   UNL     1       1.287   0.186  -4.443  0.00  0.00    +0.192 A 
ATOM     11  S   UNL     1       1.522   1.104  -2.929  0.00  0.00    -0.015 S 
ATOM     12  N   UNL     1       2.217  -0.157  -5.420  0.00  0.00    -0.249 N 
ATOM     13  C   UNL     1       1.901  -0.922  -6.633  0.00  0.00    +0.116 C 
ATOM     14  C   UNL     1       3.260  -1.425  -7.168  0.00  0.00    +0.029 C 
ATOM     15  C   UNL     1       4.235  -0.372  -6.594  0.00  0.00    +0.098 C 
ATOM     16  C   UNL     1       3.519   0.175  -5.378  0.00  0.00    +0.221 C 
ATOM     17  O   UNL     1       4.044   0.817  -4.493  0.00  0.00    -0.275 OA
ENDROOT
BRANCH   1  30
ATOM     18  C   UNL     1      -6.089   8.054   5.145  0.00  0.00    +0.005 A 
ATOM     19  C   UNL     1      -5.333   9.120   5.615  0.00  0.00    +0.018 A 
ATOM     20  C   UNL     1      -4.208   9.511   4.918  0.00  0.00    +0.084 A 
ATOM     21  N   UNL     1      -3.844   8.885   3.814  0.00  0.00    -0.350 N 
ATOM     22  C   UNL     1      -4.537   7.864   3.334  0.00  0.00    +0.099 A 
ATOM     23  C   UNL     1      -5.686   7.421   3.983  0.00  0.00    +0.042 A 
ATOM     24  N   UNL     1      -4.118   7.234   2.169  0.00  0.00    -0.314 N 
ATOM     25  C   UNL     1      -2.896   7.857   1.643  0.00  0.00    +0.125 C 
ATOM     26  C   UNL     1      -2.569   7.257   0.272  0.00  0.00    +0.126 C 
ATOM     27  N   UNL     1      -2.514   5.793   0.403  0.00  0.00    -0.298 N 
ATOM     28  C   UNL     1      -3.648   5.108   1.041  0.00  0.00    +0.126 C 
ATOM     29  C   UNL     1      -3.930   5.793   2.388  0.00  0.00    +0.125 C 
ATOM     30  C   UNL     1      -1.454   5.098  -0.054  0.00  0.00    +0.220 C 
ATOM     31  O   UNL     1      -0.487   5.684  -0.493  0.00  0.00    -0.275 OA
ATOM     32  H   UNL     1      -2.945   9.208   3.269  0.00  0.00    +0.166 HD
ENDBRANCH   1  30
TORSDOF 1
