REMARK  Name = ZINC20739216
REMARK  3 active torsions:
REMARK  status: ('A' for Active; 'I' for Inactive)
REMARK    1  A    between atoms: C_9  and  S_14
REMARK    2  A    between atoms: S_14  and  C_15
REMARK    3  A    between atoms: N_19  and  C_20
REMARK                            x       y       z     vdW  Elec       q    Type
REMARK                         _______ _______ _______ _____ _____    ______ ____
ROOT
ATOM      1  C   UNL     1      -0.017   1.371   0.010  0.00  0.00    +0.000 A 
ATOM      2  C   UNL     1       1.179   2.068   0.002  0.00  0.00    +0.002 A 
ATOM      3  C   UNL     1       2.365   1.376  -0.017  0.00  0.00    +0.023 A 
ATOM      4  C   UNL     1       2.396  -0.029  -0.024  0.00  0.00    +0.037 A 
ATOM      5  C   UNL     1       1.202  -0.717  -0.011  0.00  0.00    -0.026 A 
ATOM      6  C   UNL     1       0.002  -0.004   0.002  0.00  0.00    +0.005 A 
ATOM      7  C   UNL     1       1.065  -2.205  -0.003  0.00  0.00    +0.038 C 
ATOM      8  C   UNL     1       2.104  -2.950   0.776  0.00  0.00    +0.028 C 
ATOM      9  C   UNL     1       3.426  -3.066   0.057  0.00  0.00    +0.141 C 
ATOM     10  C   UNL     1       4.164  -1.776   0.040  0.00  0.00    +0.231 C 
ATOM     11  O   UNL     1       5.372  -1.843   0.129  0.00  0.00    -0.274 OA
ATOM     12  N   UNL     1       3.656  -0.580  -0.060  0.00  0.00    -0.284 N 
ATOM     13  H   UNL     1       4.340   0.093  -0.196  0.00  0.00    +0.155 HD
ENDROOT
BRANCH   9  14
ATOM     14  S   UNL     1       4.444  -4.314   0.892  0.00  0.00    -0.071 S 
BRANCH  14  15
ATOM     15  C   UNL     1       5.875  -4.449  -0.128  0.00  0.00    +0.215 A 
ATOM     16  N   UNL     1       6.115  -3.774  -1.232  0.00  0.00    -0.101 NA
ATOM     17  N   UNL     1       7.250  -4.113  -1.728  0.00  0.00    -0.022 NA
ATOM     18  N   UNL     1       7.811  -5.013  -0.995  0.00  0.00    -0.038 NA
ATOM     19  N   UNL     1       6.940  -5.263   0.080  0.00  0.00    -0.187 N 
BRANCH  19  20
ATOM     20  C   UNL     1       7.130  -6.164   1.138  0.00  0.00    +0.070 A 
ATOM     21  C   UNL     1       6.656  -5.857   2.406  0.00  0.00    +0.029 A 
ATOM     22  C   UNL     1       6.845  -6.745   3.446  0.00  0.00    +0.017 A 
ATOM     23  C   UNL     1       7.505  -7.941   3.225  0.00  0.00    +0.018 A 
ATOM     24  C   UNL     1       7.978  -8.250   1.962  0.00  0.00    +0.017 A 
ATOM     25  C   UNL     1       7.787  -7.367   0.917  0.00  0.00    +0.029 A 
ATOM     26 BR   UNL     1       7.761  -9.156   4.652  0.00  0.00    -0.050 Br
ENDBRANCH  19  20
ENDBRANCH  14  15
ENDBRANCH   9  14
TORSDOF 3
