REMARK  Name = ZINC02421701
REMARK  11 active torsions:
REMARK  status: ('A' for Active; 'I' for Inactive)
REMARK    1  A    between atoms: C_1  and  C_2
REMARK    2  A    between atoms: C_6  and  C_37
REMARK    3  A    between atoms: C_7  and  O_8
REMARK    4  A    between atoms: O_8  and  C_9
REMARK    5  A    between atoms: C_9  and  C_10
REMARK    6  A    between atoms: N_12  and  N_13
REMARK    7  A    between atoms: N_21  and  C_24
REMARK    8  A    between atoms: C_24  and  N_25
REMARK    9  A    between atoms: C_27  and  C_36
REMARK   10  A    between atoms: C_32  and  C_34
REMARK   11  A    between atoms: C_32  and  C_35
REMARK                            x       y       z     vdW  Elec       q    Type
REMARK                         _______ _______ _______ _____ _____    ______ ____
ROOT
ATOM      1  N   UNL     1      -1.927   2.091   6.184  0.00  0.00    -0.174 NA
ATOM      2  C   UNL     1      -2.962   2.558   6.839  0.00  0.00    +0.153 C 
ATOM      3  C   UNL     1      -4.396   2.362   6.519  0.00  0.00    +0.028 A 
ATOM      4  C   UNL     1      -5.060   1.678   5.507  0.00  0.00    +0.012 A 
ATOM      5  C   UNL     1      -6.440   1.678   5.473  0.00  0.00    +0.001 A 
ATOM      6  C   UNL     1      -7.159   2.356   6.444  0.00  0.00    +0.002 A 
ATOM      7  C   UNL     1      -6.508   3.037   7.452  0.00  0.00    +0.024 A 
ATOM      8  C   UNL     1      -5.118   3.049   7.503  0.00  0.00    +0.044 A 
ATOM      9  N   UNL     1      -4.231   3.645   8.393  0.00  0.00    -0.282 N 
ATOM     10  C   UNL     1      -2.954   3.388   8.061  0.00  0.00    +0.270 C 
ATOM     11  O   UNL     1      -1.967   3.774   8.658  0.00  0.00    -0.268 OA
ENDROOT
BRANCH   1  14
ATOM     12  C   UNL     1      -1.059   0.893   4.319  0.00  0.00    +0.270 C 
ATOM     13  O   UNL     1       0.037   0.910   4.835  0.00  0.00    -0.270 OA
ATOM     14  N   UNL     1      -2.106   1.471   4.941  0.00  0.00    -0.203 N 
ATOM     15  H   UNL     1      -2.984   1.457   4.527  0.00  0.00    +0.177 HD
BRANCH  12  16
ATOM     16  C   UNL     1      -1.252   0.226   2.981  0.00  0.00    +0.326 C 
BRANCH  16  17
ATOM     17  O   UNL     1      -0.005  -0.307   2.531  0.00  0.00    -0.482 OA
BRANCH  17  24
ATOM     18  C   UNL     1       0.505   1.247   0.228  0.00  0.00    +0.047 C 
ATOM     19  C   UNL     1       0.240  -0.235   0.166  0.00  0.00    -0.009 A 
ATOM     20  C   UNL     1       0.246  -0.888  -1.052  0.00  0.00    +0.007 A 
ATOM     21  C   UNL     1       0.003  -2.248  -1.109  0.00  0.00    +0.001 A 
ATOM     22  C   UNL     1      -0.246  -2.958   0.051  0.00  0.00    +0.007 A 
ATOM     23  C   UNL     1      -0.254  -2.309   1.270  0.00  0.00    -0.009 A 
ATOM     24  C   UNL     1      -0.004  -0.946   1.331  0.00  0.00    +0.127 A 
ATOM     25  C   UNL     1      -0.526  -3.084   2.534  0.00  0.00    +0.047 C 
ENDBRANCH  17  24
ENDBRANCH  16  17
ENDBRANCH  12  16
ENDBRANCH   1  14
BRANCH   9  26
ATOM     26  C   UNL     1      -4.637   4.446   9.550  0.00  0.00    +0.039 C 
BRANCH  26  27
ATOM     27  N   UNL     1      -4.791   3.578  10.712  0.00  0.00    +0.393 N 
ATOM     28  C   UNL     1      -5.879   2.602  10.518  0.00  0.00    -0.070 C 
ATOM     29  C   UNL     1      -6.642   2.528  11.862  0.00  0.00    -0.048 C 
ATOM     30  C   UNL     1      -5.677   3.202  12.873  0.00  0.00    -0.011 C 
ATOM     31  C   UNL     1      -5.086   4.312  11.959  0.00  0.00    -0.065 C 
ATOM     32  C   UNL     1      -6.153   5.371  11.770  0.00  0.00    -0.009 C 
ATOM     33  C   UNL     1      -7.569   4.893  11.540  0.00  0.00    -0.036 C 
ATOM     34  C   UNL     1      -7.874   3.426  11.759  0.00  0.00    +0.011 C 
ATOM     35  C   UNL     1      -8.486   5.698  12.497  0.00  0.00    +0.011 C 
ATOM     36  C   UNL     1      -8.004   5.282  10.112  0.00  0.00    +0.011 C 
ATOM     37  C   UNL     1      -6.991   1.085  12.255  0.00  0.00    +0.009 C 
ATOM     38  H   UNL     1      -3.922   3.057  10.846  0.00  0.00    -0.079 HD
ENDBRANCH  26  27
ENDBRANCH   9  26
TORSDOF 6
