REMARK  Name = ZINC12144964
REMARK  7 active torsions:
REMARK  status: ('A' for Active; 'I' for Inactive)
REMARK    1  A    between atoms: C_1  and  C_2
REMARK    2  A    between atoms: C_2  and  C_3
REMARK    3  A    between atoms: C_3  and  C_5
REMARK    4  A    between atoms: C_3  and  N_17
REMARK    5  A    between atoms: C_5  and  N_6
REMARK    6  A    between atoms: C_18  and  C_20
REMARK    7  A    between atoms: C_28  and  C_31
REMARK                            x       y       z     vdW  Elec       q    Type
REMARK                         _______ _______ _______ _____ _____    ______ ____
ROOT
ATOM      1  C   UNL     1      -4.192  -0.518   0.019  0.00  0.00    +0.094 C 
ENDROOT
BRANCH   1   2
ATOM      2  N   UNL     1      -2.804  -0.051   0.015  0.00  0.00    -0.305 N 
ATOM      3  C   UNL     1      -2.537   1.270   0.020  0.00  0.00    +0.262 C 
ATOM      4  O   UNL     1      -3.449   2.075   0.028  0.00  0.00    -0.269 OA
ATOM      5  H   UNL     1      -2.076  -0.693   0.009  0.00  0.00    +0.149 HD
BRANCH   3   6
ATOM      6  C   UNL     1      -1.142   1.739   0.016  0.00  0.00    +0.124 A 
ATOM      7  C   UNL     1      -0.707   3.041   0.024  0.00  0.00    +0.006 A 
ATOM      8  C   UNL     1       0.692   2.978   0.012  0.00  0.00    +0.067 A 
ATOM      9  N   UNL     1       1.032   1.722   0.002  0.00  0.00    -0.178 NA
ATOM     10  N   UNL     1      -0.011   0.966   0.007  0.00  0.00    -0.272 N 
ATOM     11  H   UNL     1       0.003  -0.034   0.006  0.00  0.00    +0.189 HD
ATOM     12  C   UNL     1       1.575   4.201   0.016  0.00  0.00    +0.058 C 
ATOM     13  C   UNL     1       0.726   5.402   0.454  0.00  0.00    +0.010 C 
ATOM     14  C   UNL     1      -0.557   5.463  -0.378  0.00  0.00    -0.009 C 
ATOM     15  C   UNL     1      -1.496   4.321   0.034  0.00  0.00    +0.042 C 
ATOM     16  C   UNL     1      -1.253   6.805  -0.142  0.00  0.00    +0.008 C 
ENDBRANCH   3   6
ENDBRANCH   1   2
BRANCH   1  18
ATOM     17  C   UNL     1      -4.757   0.850   2.033  0.00  0.00    +0.006 C 
ATOM     18  C   UNL     1      -4.709  -0.568   1.458  0.00  0.00    +0.021 C 
ENDBRANCH   1  18
BRANCH   1  19
ATOM     19  C   UNL     1      -4.262  -1.917  -0.596  0.00  0.00    +0.169 C 
BRANCH  19  20
ATOM     20  N   UNL     1      -3.657  -1.893  -1.931  0.00  0.00    -0.227 N 
ATOM     21  C   UNL     1      -2.337  -2.143  -2.058  0.00  0.00    +0.275 A 
ATOM     22  O   UNL     1      -1.654  -2.384  -1.079  0.00  0.00    -0.266 OA
ATOM     23  C   UNL     1      -1.740  -2.117  -3.399  0.00  0.00    +0.050 A 
ATOM     24  C   UNL     1      -0.384  -2.365  -3.609  0.00  0.00    +0.014 A 
ATOM     25  C   UNL     1       0.120  -2.328  -4.891  0.00  0.00    +0.001 A 
ATOM     26  C   UNL     1      -0.709  -2.047  -5.970  0.00  0.00    +0.001 A 
ATOM     27  C   UNL     1      -2.041  -1.802  -5.787  0.00  0.00    +0.010 A 
ATOM     28  C   UNL     1      -2.579  -1.832  -4.500  0.00  0.00    +0.007 A 
ATOM     29  C   UNL     1      -3.998  -1.576  -4.250  0.00  0.00    +0.141 A 
ATOM     30  N   UNL     1      -4.462  -1.620  -3.037  0.00  0.00    -0.176 NA
ENDBRANCH  19  20
ENDBRANCH   1  19
TORSDOF 5
