REMARK  Name = ZINC00964473
REMARK  9 active torsions:
REMARK  status: ('A' for Active; 'I' for Inactive)
REMARK    1  A    between atoms: C_1  and  C_2
REMARK    2  A    between atoms: C_5  and  N_8
REMARK    3  A    between atoms: C_9  and  C_11
REMARK    4  A    between atoms: C_14  and  C_16
REMARK    5  A    between atoms: C_16  and  S_17
REMARK    6  A    between atoms: S_17  and  C_18
REMARK    7  A    between atoms: C_21  and  C_30
REMARK    8  A    between atoms: N_22  and  C_23
REMARK    9  A    between atoms: C_26  and  C_29
REMARK                            x       y       z     vdW  Elec       q    Type
REMARK                         _______ _______ _______ _____ _____    ______ ____
ROOT
ATOM      1  C   UNL     1      -3.295   6.444   0.715  0.00  0.00    +0.164 A 
ATOM      2  C   UNL     1      -3.421   6.351  -0.637  0.00  0.00    +0.230 A 
ATOM      3  O   UNL     1      -2.475   5.498  -1.060  0.00  0.00    -0.446 OA
ATOM      4  C   UNL     1      -1.783   5.076   0.007  0.00  0.00    +0.206 A 
ATOM      5  N   UNL     1      -2.266   5.631   1.078  0.00  0.00    -0.208 NA
ENDROOT
BRANCH   1   7
ATOM      6  N   UNL     1      -3.880   7.262   2.943  0.00  0.00    -0.280 N 
ATOM      7  C   UNL     1      -4.120   7.267   1.617  0.00  0.00    +0.270 C 
ATOM      8  O   UNL     1      -5.018   7.952   1.165  0.00  0.00    -0.268 OA
ATOM      9  H   UNL     1      -3.216   6.659   3.313  0.00  0.00    +0.155 HD
BRANCH   6  14
ATOM     10  C   UNL     1      -6.752  10.761   6.361  0.00  0.00    +0.044 C 
ATOM     11  C   UNL     1      -5.989   9.832   5.453  0.00  0.00    -0.050 A 
ATOM     12  C   UNL     1      -5.603   8.585   5.910  0.00  0.00    +0.005 A 
ATOM     13  C   UNL     1      -4.904   7.730   5.080  0.00  0.00    +0.023 A 
ATOM     14  C   UNL     1      -4.589   8.124   3.786  0.00  0.00    +0.034 A 
ATOM     15  C   UNL     1      -4.974   9.380   3.332  0.00  0.00    +0.023 A 
ATOM     16  C   UNL     1      -5.677  10.227   4.165  0.00  0.00    +0.005 A 
ENDBRANCH   6  14
ENDBRANCH   1   7
BRANCH   4  17
ATOM     17  C   UNL     1      -0.630   4.106  -0.028  0.00  0.00    +0.173 C 
BRANCH  17  18
ATOM     18  S   UNL     1      -1.256   2.417   0.149  0.00  0.00    -0.076 S 
BRANCH  18  19
ATOM     19  C   UNL     1       0.258   1.520   0.075  0.00  0.00    +0.197 A 
ATOM     20  N   UNL     1       1.460   2.027  -0.075  0.00  0.00    -0.122 NA
ATOM     21  N   UNL     1       2.334   1.084  -0.091  0.00  0.00    -0.133 NA
ATOM     22  C   UNL     1       1.749  -0.072   0.048  0.00  0.00    +0.135 A 
ATOM     23  N   UNL     1       0.404   0.162   0.159  0.00  0.00    -0.274 N 
ATOM     24  C   UNL     1       2.428  -1.417   0.079  0.00  0.00    +0.088 C 
BRANCH  23  25
ATOM     25  C   UNL     1      -0.611  -0.791   0.324  0.00  0.00    +0.050 A 
ATOM     26  C   UNL     1      -0.662  -1.561   1.478  0.00  0.00    +0.026 A 
ATOM     27  C   UNL     1      -1.666  -2.495   1.640  0.00  0.00    +0.005 A 
ATOM     28  C   UNL     1      -2.614  -2.672   0.649  0.00  0.00    -0.050 A 
ATOM     29  C   UNL     1      -2.563  -1.911  -0.504  0.00  0.00    +0.005 A 
ATOM     30  C   UNL     1      -1.564  -0.971  -0.669  0.00  0.00    +0.026 A 
ATOM     31  C   UNL     1      -3.705  -3.696   0.827  0.00  0.00    +0.044 C 
ENDBRANCH  23  25
ENDBRANCH  18  19
ENDBRANCH  17  18
ENDBRANCH   4  17
TORSDOF 6
