REMARK  Name = ZINC19315488
REMARK  6 active torsions:
REMARK  status: ('A' for Active; 'I' for Inactive)
REMARK    1  A    between atoms: C_3  and  C_6
REMARK    2  A    between atoms: C_6  and  N_7
REMARK    3  A    between atoms: C_8  and  C_28
REMARK    4  A    between atoms: C_11  and  S_12
REMARK    5  A    between atoms: S_12  and  C_13
REMARK    6  A    between atoms: C_13  and  C_14
REMARK                            x       y       z     vdW  Elec       q    Type
REMARK                         _______ _______ _______ _____ _____    ______ ____
ROOT
ATOM      1  N   UNL     1      -2.904   1.130   1.417  0.00  0.00    -0.295 N 
ATOM      2  C   UNL     1      -2.766  -0.053   2.106  0.00  0.00    +0.165 A 
ATOM      3  N   UNL     1      -3.337   0.114   3.276  0.00  0.00    -0.128 NA
ATOM      4  N   UNL     1      -3.824   1.300   3.362  0.00  0.00    -0.122 NA
ATOM      5  C   UNL     1      -3.588   1.966   2.253  0.00  0.00    +0.193 A 
ENDROOT
BRANCH   2   6
ATOM      6  C   UNL     1      -2.098  -1.279   1.621  0.00  0.00    +0.019 A 
ATOM      7  C   UNL     1      -1.236  -1.221   0.524  0.00  0.00    +0.013 A 
ATOM      8  C   UNL     1      -0.612  -2.367   0.080  0.00  0.00    +0.021 A 
ATOM      9  C   UNL     1      -0.847  -3.577   0.712  0.00  0.00    +0.041 A 
ATOM     10  C   UNL     1      -1.704  -3.642   1.797  0.00  0.00    +0.021 A 
ATOM     11  C   UNL     1      -2.330  -2.501   2.255  0.00  0.00    +0.013 A 
ATOM     12 CL   UNL     1      -0.063  -5.017   0.142  0.00  0.00    -0.084 Cl
ENDBRANCH   2   6
BRANCH   1  13
ATOM     13  C   UNL     1      -2.422   1.429   0.066  0.00  0.00    +0.200 C 
BRANCH  13  16
ATOM     14  C   UNL     1       1.059   2.613   0.321  0.00  0.00    +0.041 A 
ATOM     15  C   UNL     1       0.104   1.571   0.290  0.00  0.00    +0.046 A 
ATOM     16  C   UNL     1      -1.102   2.151   0.152  0.00  0.00    +0.125 A 
ATOM     17  O   UNL     1      -0.930   3.482   0.106  0.00  0.00    -0.466 OA
ATOM     18  C   UNL     1       0.379   3.768   0.205  0.00  0.00    +0.195 A 
ENDBRANCH  13  16
ENDBRANCH   1  13
BRANCH   5  19
ATOM     19  S   UNL     1      -4.065   3.627   1.910  0.00  0.00    -0.077 S 
BRANCH  19  20
ATOM     20  C   UNL     1      -4.904   4.040   3.460  0.00  0.00    +0.173 C 
BRANCH  20  21
ATOM     21  C   UNL     1      -5.412   5.457   3.394  0.00  0.00    +0.226 C 
ATOM     22  O   UNL     1      -5.225   6.122   2.398  0.00  0.00    -0.275 OA
ATOM     23  N   UNL     1      -6.074   5.985   4.443  0.00  0.00    -0.297 N 
ATOM     24  C   UNL     1      -6.312   5.196   5.661  0.00  0.00    +0.108 C 
ATOM     25  C   UNL     1      -7.807   5.218   5.989  0.00  0.00    +0.019 C 
ATOM     26  C   UNL     1      -8.297   6.668   6.066  0.00  0.00    +0.007 C 
ATOM     27  C   UNL     1      -8.076   7.344   4.714  0.00  0.00    +0.010 C 
ATOM     28  C   UNL     1      -6.571   7.364   4.403  0.00  0.00    +0.079 C 
ATOM     29  C   UNL     1      -6.353   7.974   3.019  0.00  0.00    +0.023 C 
ATOM     30  C   UNL     1      -6.878   9.413   3.019  0.00  0.00    +0.002 C 
ATOM     31  C   UNL     1      -8.368   9.422   3.362  0.00  0.00    +0.000 C 
ATOM     32  C   UNL     1      -8.599   8.780   4.737  0.00  0.00    +0.005 C 
ENDBRANCH  20  21
ENDBRANCH  19  20
ENDBRANCH   5  19
TORSDOF 6
