REMARK  Name = ZINC39537873
REMARK  9 active torsions:
REMARK  status: ('A' for Active; 'I' for Inactive)
REMARK    1  A    between atoms: C_1  and  C_2
REMARK    2  A    between atoms: C_2  and  C_4
REMARK    3  A    between atoms: C_2  and  N_16
REMARK    4  A    between atoms: C_7  and  C_10
REMARK    5  A    between atoms: N_16  and  C_17
REMARK    6  A    between atoms: N_16  and  C_18
REMARK    7  A    between atoms: C_18  and  C_19
REMARK    8  A    between atoms: N_27  and  C_30
REMARK    9  A    between atoms: C_30  and  C_31
REMARK                            x       y       z     vdW  Elec       q    Type
REMARK                         _______ _______ _______ _____ _____    ______ ____
ROOT
ATOM      1  C   UNL     1      -2.514  -2.753   0.191  0.00  0.00    +0.001 A 
ATOM      2  C   UNL     1      -2.883  -3.299  -0.995  0.00  0.00    +0.017 A 
ATOM      3  C   UNL     1      -4.191  -3.948  -1.090  0.00  0.00    -0.001 A 
ATOM      4  C   UNL     1      -4.625  -4.529  -2.287  0.00  0.00    +0.011 A 
ATOM      5  C   UNL     1      -5.851  -5.127  -2.343  0.00  0.00    +0.021 A 
ATOM      6  C   UNL     1      -6.672  -5.165  -1.222  0.00  0.00    +0.043 A 
ATOM      7  C   UNL     1      -6.263  -4.599  -0.032  0.00  0.00    +0.046 A 
ATOM      8  C   UNL     1      -5.019  -3.984   0.048  0.00  0.00    +0.054 A 
ATOM      9  N   UNL     1      -4.585  -3.411   1.225  0.00  0.00    -0.302 N 
ATOM     10  C   UNL     1      -3.379  -2.821   1.303  0.00  0.00    +0.253 A 
ATOM     11  O   UNL     1      -3.026  -2.329   2.361  0.00  0.00    -0.267 OA
ATOM     12 CL   UNL     1      -8.226  -5.933  -1.319  0.00  0.00    -0.083 Cl
ENDROOT
BRANCH   1  13
ATOM     13  C   UNL     1      -1.174  -2.078   0.322  0.00  0.00    -0.037 C 
BRANCH  13  14
ATOM     14  N   UNL     1      -1.331  -0.632   0.112  0.00  0.00    +0.384 N 
ATOM     15  C   UNL     1      -2.147  -0.066   1.194  0.00  0.00    -0.095 C 
ATOM     16  H   UNL     1      -1.787  -0.469  -0.773  0.00  0.00    -0.081 HD
BRANCH  14  18
ATOM     17  C   UNL     1      -0.179   1.526   0.006  0.00  0.00    -0.011 C 
ATOM     18  C   UNL     1      -0.009   0.009   0.107  0.00  0.00    -0.049 C 
BRANCH  18  19
ATOM     19  C   UNL     1       0.798  -0.495  -1.091  0.00  0.00    +0.081 C 
ATOM     20  C   UNL     1       0.106  -0.109  -2.413  0.00  0.00    +0.079 C 
ATOM     21  C   UNL     1       1.115   0.778  -3.107  0.00  0.00    +0.068 C 
ATOM     22  N   UNL     1       2.165   0.893  -2.370  0.00  0.00    -0.191 NA
ATOM     23  N   UNL     1       2.098   0.191  -1.164  0.00  0.00    -0.267 N 
ATOM     24  H   UNL     1       2.792   0.160  -0.487  0.00  0.00    +0.168 HD
BRANCH  21  25
ATOM     25  C   UNL     1       0.926   1.412  -4.425  0.00  0.00    -0.002 A 
ATOM     26  C   UNL     1      -0.262   1.219  -5.133  0.00  0.00    +0.010 A 
ATOM     27  C   UNL     1      -0.432   1.815  -6.365  0.00  0.00    +0.001 A 
ATOM     28  C   UNL     1       0.571   2.604  -6.899  0.00  0.00    +0.000 A 
ATOM     29  C   UNL     1       1.751   2.800  -6.203  0.00  0.00    +0.001 A 
ATOM     30  C   UNL     1       1.933   2.214  -4.968  0.00  0.00    +0.010 A 
ENDBRANCH  21  25
ENDBRANCH  18  19
ENDBRANCH  14  18
ENDBRANCH  13  14
ENDBRANCH   1  13
BRANCH   9  31
ATOM     31  C   UNL     1      -5.448  -3.450   2.408  0.00  0.00    +0.180 C 
BRANCH  31  32
ATOM     32  C   UNL     1      -5.159  -4.700   3.200  0.00  0.00    +0.061 A 
ATOM     33  C   UNL     1      -4.272  -4.647   4.259  0.00  0.00    +0.025 A 
ATOM     34  C   UNL     1      -4.014  -5.802   4.981  0.00  0.00    +0.003 A 
ATOM     35  C   UNL     1      -4.659  -6.972   4.608  0.00  0.00    +0.020 A 
ATOM     36  C   UNL     1      -5.532  -6.948   3.538  0.00  0.00    +0.111 A 
ATOM     37  N   UNL     1      -5.759  -5.829   2.877  0.00  0.00    -0.258 NA
ENDBRANCH  31  32
ENDBRANCH   9  31
TORSDOF 7
