REMARK  Name = ZINC39431114
REMARK  7 active torsions:
REMARK  status: ('A' for Active; 'I' for Inactive)
REMARK    1  A    between atoms: C_1  and  C_2
REMARK    2  A    between atoms: C_2  and  C_4
REMARK    3  A    between atoms: C_2  and  S_16
REMARK    4  A    between atoms: S_16  and  C_17
REMARK    5  A    between atoms: C_21  and  C_31
REMARK    6  A    between atoms: N_23  and  C_24
REMARK    7  A    between atoms: C_24  and  C_25
REMARK                            x       y       z     vdW  Elec       q    Type
REMARK                         _______ _______ _______ _____ _____    ______ ____
ROOT
ATOM      1  C   UNL     1       2.657   0.161   1.511  0.00  0.00    +0.139 C 
ATOM      2  N   UNL     1       3.063  -0.479   0.254  0.00  0.00    -0.198 NA
ATOM      3  N   UNL     1       3.737   0.288  -0.441  0.00  0.00    -0.201 NA
ATOM      4  C   UNL     1       3.910   1.589   0.218  0.00  0.00    +0.147 C 
ATOM      5  N   UNL     1       2.878   1.613   1.288  0.00  0.00    +0.425 N 
ATOM      6  H   UNL     1       2.034   2.062   0.967  0.00  0.00    -0.073 HD
ENDROOT
BRANCH   4   7
ATOM      7  C   UNL     1       5.289   1.695   0.817  0.00  0.00    +0.114 A 
ATOM      8  C   UNL     1       6.165   2.693   0.602  0.00  0.00    +0.045 A 
ATOM      9  C   UNL     1       7.323   2.390   1.354  0.00  0.00    +0.041 A 
ATOM     10  C   UNL     1       7.085   1.226   1.984  0.00  0.00    +0.195 A 
ATOM     11  O   UNL     1       5.849   0.812   1.659  0.00  0.00    -0.468 OA
ENDBRANCH   4   7
BRANCH   1  12
ATOM     12  S   UNL     1       0.905  -0.166   1.849  0.00  0.00    -0.140 S 
BRANCH  12  14
ATOM     13  C   UNL     1       1.346  -2.835   1.447  0.00  0.00    +0.027 C 
ATOM     14  C   UNL     1       0.895  -1.849   2.526  0.00  0.00    +0.109 C 
BRANCH  14  15
ATOM     15  C   UNL     1      -0.498  -2.201   2.978  0.00  0.00    +0.123 A 
ATOM     16  N   UNL     1      -0.731  -3.462   3.428  0.00  0.00    -0.309 N 
ATOM     17  H   UNL     1      -0.006  -4.105   3.449  0.00  0.00    +0.170 HD
ATOM     18  C   UNL     1      -1.966  -3.827   3.845  0.00  0.00    +0.259 A 
ATOM     19  O   UNL     1      -2.188  -4.953   4.251  0.00  0.00    -0.267 OA
ATOM     20  C   UNL     1      -3.027  -2.811   3.791  0.00  0.00    +0.065 A 
ATOM     21  C   UNL     1      -4.332  -3.086   4.197  0.00  0.00    +0.015 A 
ATOM     22  C   UNL     1      -5.287  -2.096   4.124  0.00  0.00    +0.001 A 
ATOM     23  C   UNL     1      -4.961  -0.832   3.650  0.00  0.00    +0.002 A 
ATOM     24  C   UNL     1      -3.678  -0.541   3.244  0.00  0.00    +0.028 A 
ATOM     25  C   UNL     1      -2.692  -1.527   3.308  0.00  0.00    +0.078 A 
ATOM     26  N   UNL     1      -1.414  -1.282   2.924  0.00  0.00    -0.233 NA
ENDBRANCH  14  15
ENDBRANCH  12  14
ENDBRANCH   1  12
BRANCH   5  27
ATOM     27  C   UNL     1       3.390   2.261   2.503  0.00  0.00    -0.035 C 
BRANCH  27  28
ATOM     28  C   UNL     1       2.342   2.199   3.585  0.00  0.00    -0.064 A 
ATOM     29  C   UNL     1       1.413   3.216   3.706  0.00  0.00    +0.002 A 
ATOM     30  C   UNL     1       0.452   3.159   4.698  0.00  0.00    +0.000 A 
ATOM     31  C   UNL     1       0.420   2.086   5.569  0.00  0.00    +0.000 A 
ATOM     32  C   UNL     1       1.349   1.069   5.447  0.00  0.00    +0.000 A 
ATOM     33  C   UNL     1       2.307   1.123   4.452  0.00  0.00    +0.002 A 
ENDBRANCH  27  28
ENDBRANCH   5  27
TORSDOF 6
