REMARK  Name = ZINC64507221
REMARK  8 active torsions:
REMARK  status: ('A' for Active; 'I' for Inactive)
REMARK    1  A    between atoms: C_1  and  C_2
REMARK    2  A    between atoms: C_5  and  C_14
REMARK    3  A    between atoms: N_6  and  C_8
REMARK    4  A    between atoms: N_17  and  C_19
REMARK    5  A    between atoms: C_19  and  C_20
REMARK    6  A    between atoms: N_22  and  C_23
REMARK    7  A    between atoms: C_23  and  C_24
REMARK    8  A    between atoms: C_24  and  C_25
REMARK                            x       y       z     vdW  Elec       q    Type
REMARK                         _______ _______ _______ _____ _____    ______ ____
ROOT
ATOM      1  C   UNL     1      -0.057   1.513  -0.315  0.00  0.00    +0.070 C 
ATOM      2  C   UNL     1      -0.031   0.006  -0.325  0.00  0.00    +0.086 A 
ATOM      3  C   UNL     1      -1.271  -0.751  -0.131  0.00  0.00    +0.121 A 
ATOM      4  C   UNL     1      -1.186  -2.222  -0.151  0.00  0.00    +0.091 A 
ATOM      5  C   UNL     1      -2.461  -2.691   0.049  0.00  0.00    +0.055 A 
ATOM      6  N   UNL     1      -3.274  -1.628   0.182  0.00  0.00    -0.236 N 
ATOM      7  N   UNL     1      -2.531  -0.446   0.070  0.00  0.00    -0.164 NA
ATOM      8  C   UNL     1      -2.876  -4.139   0.107  0.00  0.00    +0.066 C 
ATOM      9  C   UNL     1       0.133  -2.824  -0.363  0.00  0.00    +0.279 A 
ATOM     10  O   UNL     1       0.266  -4.035  -0.390  0.00  0.00    -0.265 OA
ATOM     11  N   UNL     1       1.197  -2.012  -0.529  0.00  0.00    -0.220 N 
ATOM     12  N   UNL     1       1.089  -0.623  -0.511  0.00  0.00    -0.171 NA
ENDROOT
BRANCH   6  13
ATOM     13  C   UNL     1      -4.656  -1.693   0.401  0.00  0.00    +0.066 A 
ATOM     14  C   UNL     1      -5.175  -2.612   1.302  0.00  0.00    +0.028 A 
ATOM     15  C   UNL     1      -6.538  -2.674   1.516  0.00  0.00    +0.002 A 
ATOM     16  C   UNL     1      -7.386  -1.821   0.833  0.00  0.00    +0.000 A 
ATOM     17  C   UNL     1      -6.872  -0.904  -0.066  0.00  0.00    +0.002 A 
ATOM     18  C   UNL     1      -5.509  -0.834  -0.280  0.00  0.00    +0.028 A 
ENDBRANCH   6  13
BRANCH  11  19
ATOM     19  C   UNL     1       2.517  -2.612  -0.740  0.00  0.00    +0.243 C 
BRANCH  19  20
ATOM     20  C   UNL     1       2.747  -2.813  -2.216  0.00  0.00    +0.235 C 
ATOM     21  O   UNL     1       1.893  -2.486  -3.013  0.00  0.00    -0.274 OA
ATOM     22  N   UNL     1       3.901  -3.355  -2.651  0.00  0.00    -0.313 N 
ATOM     23  H   UNL     1       4.585  -3.617  -2.013  0.00  0.00    +0.149 HD
BRANCH  22  24
ATOM     24  C   UNL     1       4.125  -3.550  -4.085  0.00  0.00    +0.108 C 
BRANCH  24  25
ATOM     25  C   UNL     1       5.503  -4.177  -4.306  0.00  0.00    +0.052 C 
BRANCH  25  26
ATOM     26  C   UNL     1       5.733  -4.377  -5.782  0.00  0.00    -0.040 C 
ATOM     27  C   UNL     1       6.383  -3.542  -6.624  0.00  0.00    +0.000 A 
ATOM     28  C   UNL     1       7.045  -2.248  -6.426  0.00  0.00    +0.030 A 
ATOM     29  C   UNL     1       7.623  -1.636  -7.486  0.00  0.00    +0.042 A 
ATOM     30  C   UNL     1       7.604  -2.208  -8.767  0.00  0.00    +0.022 A 
ATOM     31  C   UNL     1       7.016  -3.395  -9.026  0.00  0.00    +0.027 A 
ATOM     32  C   UNL     1       6.378  -4.125  -7.985  0.00  0.00    +0.043 A 
ATOM     33  N   UNL     1       5.749  -5.274  -7.984  0.00  0.00    -0.380 N 
ATOM     34  C   UNL     1       5.289  -5.555  -6.620  0.00  0.00    +0.144 C 
ATOM     35 CL   UNL     1       8.407  -0.105  -7.255  0.00  0.00    -0.084 Cl
ATOM     36  H   UNL     1       5.613  -5.846  -8.756  0.00  0.00    +0.160 HD
ENDBRANCH  25  26
ENDBRANCH  24  25
ENDBRANCH  22  24
ENDBRANCH  19  20
ENDBRANCH  11  19
TORSDOF 6
