REMARK  Name = ZINC17092973
REMARK  7 active torsions:
REMARK  status: ('A' for Active; 'I' for Inactive)
REMARK    1  A    between atoms: C_1  and  O_2
REMARK    2  A    between atoms: O_2  and  C_3
REMARK    3  A    between atoms: C_6  and  C_11
REMARK    4  A    between atoms: C_8  and  O_9
REMARK    5  A    between atoms: O_9  and  C_10
REMARK    6  A    between atoms: C_16  and  C_22
REMARK    7  A    between atoms: C_25  and  N_28
REMARK                            x       y       z     vdW  Elec       q    Type
REMARK                         _______ _______ _______ _____ _____    ______ ____
ROOT
ATOM      1  C   UNL     1       2.359   0.095  -0.739  0.00  0.00    +0.032 C 
ATOM      2  C   UNL     1       2.469   1.434  -0.006  0.00  0.00    +0.059 C 
ATOM      3  C   UNL     1       1.126   2.119   0.003  0.00  0.00    +0.018 C 
ATOM      4  C   UNL     1      -0.017   1.401   0.010  0.00  0.00    +0.020 C 
ATOM      5  C   UNL     1      -1.351   2.108   0.020  0.00  0.00    +0.063 C 
ATOM      6  C   UNL     1      -1.236   3.391   0.850  0.00  0.00    +0.109 C 
ATOM      7  C   UNL     1      -0.012   4.153   0.411  0.00  0.00    +0.218 C 
ATOM      8  O   UNL     1      -0.016   5.365   0.424  0.00  0.00    -0.275 OA
ATOM      9  N   UNL     1       1.085   3.490   0.004  0.00  0.00    -0.289 N 
ATOM     10  C   UNL     1       0.002  -0.004   0.002  0.00  0.00    +0.162 C 
ATOM     11  O   UNL     1      -1.047  -0.617   0.024  0.00  0.00    -0.292 OA
ATOM     12  C   UNL     1       1.302  -0.762  -0.033  0.00  0.00    +0.088 C 
ATOM     13  H   UNL     1       1.861   3.990  -0.293  0.00  0.00    +0.155 HD
ENDROOT
BRANCH   1  17
ATOM     14  C   UNL     1       6.134  -1.912  -0.634  0.00  0.00    +0.161 A 
ATOM     15  C   UNL     1       5.492  -1.575   0.547  0.00  0.00    +0.049 A 
ATOM     16  C   UNL     1       4.274  -0.922   0.510  0.00  0.00    +0.008 A 
ATOM     17  C   UNL     1       3.689  -0.613  -0.704  0.00  0.00    -0.040 A 
ATOM     18  C   UNL     1       4.324  -0.946  -1.886  0.00  0.00    +0.053 A 
ATOM     19  C   UNL     1       5.547  -1.596  -1.856  0.00  0.00    +0.162 A 
BRANCH  14  21
ATOM     20  C   UNL     1       7.876  -2.843   0.690  0.00  0.00    +0.277 C 
ATOM     21  O   UNL     1       7.334  -2.550  -0.599  0.00  0.00    -0.491 OA
ENDBRANCH  14  21
BRANCH  19  22
ATOM     22  O   UNL     1       6.173  -1.925  -3.018  0.00  0.00    -0.491 OA
ATOM     23  C   UNL     1       5.512  -1.570  -4.234  0.00  0.00    +0.277 C 
ENDBRANCH  19  22
ENDBRANCH   1  17
BRANCH   5  24
ATOM     24  C   UNL     1      -1.749   2.453  -1.393  0.00  0.00    -0.039 A 
ATOM     25  C   UNL     1      -0.944   3.278  -2.155  0.00  0.00    +0.006 A 
ATOM     26  C   UNL     1      -1.306   3.591  -3.452  0.00  0.00    +0.033 A 
ATOM     27  C   UNL     1      -2.478   3.084  -3.983  0.00  0.00    +0.126 A 
ATOM     28  C   UNL     1      -3.285   2.263  -3.219  0.00  0.00    +0.033 A 
ATOM     29  C   UNL     1      -2.921   1.947  -1.923  0.00  0.00    +0.006 A 
BRANCH  27  30
ATOM     30  N   UNL     1      -2.868   3.422  -5.371  0.00  0.00    +0.056 N 
ATOM     31  O   UNL     1      -3.900   2.976  -5.839  0.00  0.00    -0.126 OA
ATOM     32  O   UNL     1      -2.156   4.145  -6.045  0.00  0.00    -0.126 OA
ENDBRANCH  27  30
ENDBRANCH   5  24
TORSDOF 5
