REMARK  Name = ZINC12427658
REMARK  6 active torsions:
REMARK  status: ('A' for Active; 'I' for Inactive)
REMARK    1  A    between atoms: C_1  and  C_2
REMARK    2  A    between atoms: C_2  and  C_4
REMARK    3  A    between atoms: C_2  and  S_16
REMARK    4  A    between atoms: S_16  and  C_17
REMARK    5  A    between atoms: N_30  and  C_31
REMARK    6  A    between atoms: C_31  and  C_32
REMARK                            x       y       z     vdW  Elec       q    Type
REMARK                         _______ _______ _______ _____ _____    ______ ____
ROOT
ATOM      1  C   UNL     1      -0.222  -4.479   0.988  0.00  0.00    +0.198 A 
ATOM      2  N   UNL     1       0.713  -5.181   0.396  0.00  0.00    -0.120 NA
ATOM      3  N   UNL     1       0.469  -6.535   0.655  0.00  0.00    -0.109 NA
ATOM      4  C   UNL     1      -0.615  -6.621   1.392  0.00  0.00    +0.240 A 
ATOM      5  N   UNL     1      -1.070  -5.350   1.617  0.00  0.00    -0.256 N 
ATOM      6  C   UNL     1      -2.217  -5.133   2.377  0.00  0.00    +0.064 A 
ATOM      7  C   UNL     1      -2.686  -3.849   2.611  0.00  0.00    +0.027 A 
ATOM      8  C   UNL     1      -3.825  -3.662   3.370  0.00  0.00    +0.002 A 
ATOM      9  C   UNL     1      -4.506  -4.746   3.900  0.00  0.00    +0.001 A 
ATOM     10  C   UNL     1      -4.053  -6.030   3.677  0.00  0.00    +0.015 A 
ATOM     11  C   UNL     1      -2.905  -6.232   2.914  0.00  0.00    +0.064 A 
ATOM     12  C   UNL     1      -2.388  -7.588   2.653  0.00  0.00    +0.263 A 
ATOM     13  O   UNL     1      -2.958  -8.564   3.102  0.00  0.00    -0.267 OA
ATOM     14  N   UNL     1      -1.273  -7.727   1.908  0.00  0.00    -0.273 N 
ENDROOT
BRANCH   1  15
ATOM     15  S   UNL     1      -0.366  -2.723   0.972  0.00  0.00    -0.075 S 
BRANCH  15  17
ATOM     16  C   UNL     1       0.889  -2.671  -1.458  0.00  0.00    +0.027 C 
ATOM     17  C   UNL     1       1.050  -2.175  -0.020  0.00  0.00    +0.117 C 
BRANCH  17  18
ATOM     18  C   UNL     1       1.117  -0.670  -0.012  0.00  0.00    +0.124 A 
ATOM     19  N   UNL     1       2.340  -0.078  -0.020  0.00  0.00    -0.309 N 
ATOM     20  H   UNL     1       3.139  -0.628  -0.031  0.00  0.00    +0.170 HD
ATOM     21  C   UNL     1       2.453   1.270  -0.014  0.00  0.00    +0.259 A 
ATOM     22  O   UNL     1       3.543   1.813  -0.021  0.00  0.00    -0.267 OA
ATOM     23  C   UNL     1       1.209   2.054   0.002  0.00  0.00    +0.065 A 
ATOM     24  C   UNL     1       1.216   3.447   0.009  0.00  0.00    +0.015 A 
ATOM     25  C   UNL     1       0.021   4.132   0.025  0.00  0.00    +0.001 A 
ATOM     26  C   UNL     1      -1.187   3.445   0.032  0.00  0.00    +0.002 A 
ATOM     27  C   UNL     1      -1.215   2.069   0.030  0.00  0.00    +0.028 A 
ATOM     28  C   UNL     1      -0.016   1.352   0.009  0.00  0.00    +0.078 A 
ATOM     29  N   UNL     1       0.002  -0.004   0.002  0.00  0.00    -0.233 NA
ENDBRANCH  17  18
ENDBRANCH  15  17
ENDBRANCH   1  15
BRANCH  14  30
ATOM     30  C   UNL     1      -0.747  -9.068   1.640  0.00  0.00    +0.155 C 
BRANCH  30  31
ATOM     31  C   UNL     1       0.227  -9.452   2.724  0.00  0.00    -0.013 C 
ATOM     32  C   UNL     1       0.055 -10.562   3.397  0.00  0.00    +0.005 C 
ENDBRANCH  30  31
ENDBRANCH  14  30
TORSDOF 5
