REMARK  Name = ZINC63506879
REMARK  12 active torsions:
REMARK  status: ('A' for Active; 'I' for Inactive)
REMARK    1  A    between atoms: C_1  and  C_2
REMARK    2  A    between atoms: C_4  and  C_17
REMARK    3  A    between atoms: C_7  and  O_12
REMARK    4  A    between atoms: O_12  and  C_13
REMARK    5  A    between atoms: C_17  and  C_18
REMARK    6  A    between atoms: C_18  and  N_19
REMARK    7  A    between atoms: C_24  and  C_25
REMARK    8  A    between atoms: C_24  and  O_26
REMARK    9  A    between atoms: C_28  and  C_34
REMARK   10  A    between atoms: C_28  and  C_35
REMARK   11  A    between atoms: C_30  and  C_32
REMARK   12  A    between atoms: C_30  and  C_33
REMARK                            x       y       z     vdW  Elec       q    Type
REMARK                         _______ _______ _______ _____ _____    ______ ____
ROOT
ATOM      1  N   UNL     1      -4.818  -0.826  -1.543  0.00  0.00    -0.235 N 
ATOM      2  C   UNL     1      -5.720   0.175  -1.546  0.00  0.00    +0.406 C 
ATOM      3  O   UNL     1      -5.784   1.032  -0.688  0.00  0.00    -0.226 OA
ATOM      4  O   UNL     1      -6.543   0.118  -2.611  0.00  0.00    -0.439 OA
ATOM      5  C   UNL     1      -5.893  -0.682  -3.615  0.00  0.00    +0.158 C 
ATOM      6  C   UNL     1      -5.092  -1.662  -2.733  0.00  0.00    +0.175 C 
ATOM      7  C   UNL     1      -3.794  -2.124  -3.386  0.00  0.00    +0.068 C 
ATOM      8  C   UNL     1      -6.907  -1.434  -4.459  0.00  0.00    +0.040 C 
ATOM      9  C   UNL     1      -7.710  -0.487  -5.345  0.00  0.00    -0.070 C 
ATOM     10  N   UNL     1      -6.902   0.487  -6.053  0.00  0.00    +0.386 N 
ATOM     11  C   UNL     1      -5.806   1.130  -5.351  0.00  0.00    -0.070 C 
ATOM     12  C   UNL     1      -4.991   0.161  -4.494  0.00  0.00    +0.040 C 
ATOM     13  C   UNL     1      -6.293   2.310  -4.507  0.00  0.00    -0.010 C 
ATOM     14  C   UNL     1      -4.845   1.708  -6.419  0.00  0.00    -0.010 C 
ATOM     15  C   UNL     1      -8.808   0.197  -4.522  0.00  0.00    -0.010 C 
ATOM     16  C   UNL     1      -8.427  -1.356  -6.408  0.00  0.00    -0.010 C 
ATOM     17  H   UNL     1      -6.524   0.040  -6.895  0.00  0.00    -0.084 HD
ATOM     18  H   UNL     1      -7.525   1.220  -6.409  0.00  0.00    -0.084 HD
ENDROOT
BRANCH   6  19
ATOM     19  O   UNL     1      -5.899  -2.788  -2.369  0.00  0.00    -0.368 OA
ATOM     20  H   UNL     1      -5.484  -3.378  -1.726  0.00  0.00    +0.212 HD
ENDBRANCH   6  19
BRANCH   1  21
ATOM     21  C   UNL     1      -3.765  -1.048  -0.551  0.00  0.00    +0.118 C 
BRANCH  21  22
ATOM     22  C   UNL     1      -2.494  -0.315  -0.984  0.00  0.00    +0.052 C 
BRANCH  22  25
ATOM     23  C   UNL     1      -0.019   1.526   0.010  0.00  0.00    +0.035 C 
ATOM     24  C   UNL     1       0.002  -0.004   0.002  0.00  0.00    +0.103 C 
ATOM     25  C   UNL     1      -1.410  -0.545   0.038  0.00  0.00    -0.037 C 
ATOM     26  C   UNL     1      -1.503  -1.275   1.172  0.00  0.00    +0.003 A 
ATOM     27  C   UNL     1      -2.598  -2.045   1.773  0.00  0.00    +0.056 A 
ATOM     28  C   UNL     1      -2.393  -2.691   2.946  0.00  0.00    +0.131 A 
ATOM     29  C   UNL     1      -1.160  -2.651   3.620  0.00  0.00    +0.048 A 
ATOM     30  C   UNL     1      -0.095  -1.970   3.147  0.00  0.00    +0.029 A 
ATOM     31  C   UNL     1      -0.204  -1.234   1.883  0.00  0.00    +0.043 A 
ATOM     32  N   UNL     1       0.658  -0.508   1.214  0.00  0.00    -0.378 N 
ATOM     33  H   UNL     1       1.576  -0.332   1.476  0.00  0.00    +0.160 HD
BRANCH  28  34
ATOM     34  O   UNL     1      -3.416  -3.401   3.491  0.00  0.00    -0.406 OA
BRANCH  34  35
ATOM     35  C   UNL     1      -3.157  -4.065   4.729  0.00  0.00    +0.575 C 
ATOM     36  F   UNL     1      -2.796  -3.122   5.698  0.00  0.00    -0.133 F 
ATOM     37  F   UNL     1      -4.309  -4.743   5.145  0.00  0.00    -0.133 F 
ATOM     38  F   UNL     1      -2.114  -4.981   4.558  0.00  0.00    -0.133 F 
ENDBRANCH  34  35
ENDBRANCH  28  34
ENDBRANCH  22  25
ENDBRANCH  21  22
ENDBRANCH   1  21
TORSDOF 6
