REMARK  Name = ZINC27985892
REMARK  3 active torsions:
REMARK  status: ('A' for Active; 'I' for Inactive)
REMARK    1  A    between atoms: C_6  and  C_7
REMARK    2  A    between atoms: C_13  and  C_15
REMARK    3  A    between atoms: N_18  and  C_20
REMARK                            x       y       z     vdW  Elec       q    Type
REMARK                         _______ _______ _______ _____ _____    ______ ____
ROOT
ATOM      1  C   UNL     1       3.348  -4.913   4.789  0.00  0.00    +0.156 A 
ATOM      2  C   UNL     1       2.989  -5.225   3.401  0.00  0.00    +0.197 A 
ATOM      3  N   UNL     1       3.111  -6.511   3.225  0.00  0.00    -0.033 NA
ATOM      4  O   UNL     1       3.537  -7.080   4.451  0.00  0.00    -0.240 OA
ATOM      5  N   UNL     1       3.663  -6.029   5.392  0.00  0.00    -0.047 NA
ATOM      6  N   UNL     1       2.591  -4.305   2.435  0.00  0.00    -0.261 N 
ATOM      7  C   UNL     1       2.292  -4.722   1.189  0.00  0.00    +0.270 C 
ATOM      8  O   UNL     1       2.370  -5.902   0.908  0.00  0.00    -0.268 OA
ATOM      9  H   UNL     1       2.520  -3.237   2.689  0.00  0.00    +0.157 HD
ENDROOT
BRANCH   7  10
ATOM     10  C   UNL     1       1.870  -3.746   0.164  0.00  0.00    +0.151 A 
ATOM     11  C   UNL     1       1.527  -4.024  -1.170  0.00  0.00    +0.006 A 
ATOM     12  C   UNL     1       1.209  -2.831  -1.730  0.00  0.00    +0.044 A 
ATOM     13  N   UNL     1       1.353  -1.895  -0.778  0.00  0.00    -0.263 N 
ATOM     14  N   UNL     1       1.744  -2.439   0.323  0.00  0.00    -0.166 NA
ATOM     15  C   UNL     1       0.784  -2.664  -3.166  0.00  0.00    +0.055 C 
ATOM     16  C   UNL     1       1.175  -3.932  -3.936  0.00  0.00    +0.006 C 
ATOM     17  C   UNL     1       0.678  -5.167  -3.180  0.00  0.00    +0.005 C 
ATOM     18  C   UNL     1       1.496  -5.343  -1.893  0.00  0.00    +0.039 C 
BRANCH  13  19
ATOM     19  C   UNL     1       1.107  -0.463  -0.965  0.00  0.00    +0.130 C 
ATOM     20  C   UNL     1       0.002  -0.004   0.002  0.00  0.00    +0.051 C 
ATOM     21  C   UNL     1      -0.019   1.551   0.011  0.00  0.00    +0.168 C 
ATOM     22  S   UNL     1       1.788   1.913  -0.005  0.00  0.00    -0.029 S 
ATOM     23  O   UNL     1       2.044   2.949  -0.943  0.00  0.00    -0.174 OA
ATOM     24  O   UNL     1       2.243   2.053   1.334  0.00  0.00    -0.174 OA
ATOM     25  C   UNL     1       2.411   0.322  -0.686  0.00  0.00    +0.192 C 
ENDBRANCH  13  19
ENDBRANCH   7  10
BRANCH   1  31
ATOM     26  C   UNL     1       3.717  -2.451   4.648  0.00  0.00    +0.011 A 
ATOM     27  C   UNL     1       3.712  -1.196   5.223  0.00  0.00    +0.020 A 
ATOM     28  C   UNL     1       3.352  -1.043   6.551  0.00  0.00    +0.041 A 
ATOM     29  C   UNL     1       2.991  -2.145   7.308  0.00  0.00    +0.020 A 
ATOM     30  C   UNL     1       2.988  -3.403   6.740  0.00  0.00    +0.011 A 
ATOM     31  C   UNL     1       3.349  -3.563   5.404  0.00  0.00    +0.007 A 
ATOM     32 CL   UNL     1       3.354   0.537   7.271  0.00  0.00    -0.084 Cl
ENDBRANCH   1  31
TORSDOF 3
