REMARK  Name = ZINC24841532
REMARK  9 active torsions:
REMARK  status: ('A' for Active; 'I' for Inactive)
REMARK    1  A    between atoms: C_1  and  C_2
REMARK    2  A    between atoms: C_5  and  N_9
REMARK    3  A    between atoms: C_7  and  C_8
REMARK    4  A    between atoms: C_10  and  C_31
REMARK    5  A    between atoms: C_13  and  S_14
REMARK    6  A    between atoms: S_14  and  C_15
REMARK    7  A    between atoms: C_15  and  C_16
REMARK    8  A    between atoms: C_18  and  O_19
REMARK    9  A    between atoms: C_28  and  C_30
REMARK                            x       y       z     vdW  Elec       q    Type
REMARK                         _______ _______ _______ _____ _____    ______ ____
ROOT
ATOM      1  N   UNL     1       1.810  -8.661   3.412  0.00  0.00    -0.270 N 
ATOM      2  C   UNL     1       1.029  -9.307   4.346  0.00  0.00    +0.169 A 
ATOM      3  N   UNL     1      -0.217  -9.205   3.943  0.00  0.00    -0.128 NA
ATOM      4  N   UNL     1      -0.269  -8.545   2.841  0.00  0.00    -0.122 NA
ATOM      5  C   UNL     1       0.941  -8.184   2.471  0.00  0.00    +0.197 A 
ENDROOT
BRANCH   1  10
ATOM      6  C   UNL     1       7.457  -8.091   3.470  0.00  0.00    +0.044 C 
ATOM      7  C   UNL     1       5.958  -8.242   3.454  0.00  0.00    -0.047 A 
ATOM      8  C   UNL     1       5.187  -7.577   4.390  0.00  0.00    +0.005 A 
ATOM      9  C   UNL     1       3.813  -7.714   4.379  0.00  0.00    +0.026 A 
ATOM     10  C   UNL     1       3.205  -8.520   3.426  0.00  0.00    +0.051 A 
ATOM     11  C   UNL     1       3.981  -9.191   2.491  0.00  0.00    +0.030 A 
ATOM     12  C   UNL     1       5.355  -9.046   2.505  0.00  0.00    -0.046 A 
ATOM     13  C   UNL     1       6.198  -9.770   1.486  0.00  0.00    +0.044 C 
ENDBRANCH   1  10
BRANCH   2  14
ATOM     14  C   UNL     1       1.503  -9.991   5.566  0.00  0.00    +0.022 A 
ATOM     15  C   UNL     1       2.848 -10.356   5.711  0.00  0.00    +0.031 A 
ATOM     16  C   UNL     1       3.248 -10.988   6.869  0.00  0.00    +0.111 A 
ATOM     17  N   UNL     1       2.382 -11.259   7.827  0.00  0.00    -0.263 NA
ATOM     18  C   UNL     1       1.106 -10.937   7.730  0.00  0.00    +0.111 A 
ATOM     19  C   UNL     1       0.620 -10.298   6.609  0.00  0.00    +0.031 A 
ENDBRANCH   2  14
BRANCH   5  20
ATOM     20  S   UNL     1       1.363  -7.264   1.029  0.00  0.00    -0.081 S 
BRANCH  20  21
ATOM     21  C   UNL     1      -0.284  -7.021   0.319  0.00  0.00    +0.113 C 
BRANCH  21  22
ATOM     22  C   UNL     1      -0.168  -6.234  -0.961  0.00  0.00    -0.020 A 
ATOM     23  C   UNL     1      -0.002  -6.862  -2.154  0.00  0.00    +0.092 A 
ATOM     24  C   UNL     1       0.105  -6.104  -3.338  0.00  0.00    +0.285 A 
ATOM     25  O   UNL     1       0.046  -4.763  -3.323  0.00  0.00    -0.425 OA
ATOM     26  C   UNL     1      -0.117  -4.076  -2.172  0.00  0.00    +0.141 A 
ATOM     27  C   UNL     1      -0.230  -4.771  -0.953  0.00  0.00    +0.022 A 
ATOM     28  C   UNL     1      -0.400  -4.064   0.243  0.00  0.00    +0.013 A 
ATOM     29  C   UNL     1      -0.450  -2.701   0.225  0.00  0.00    +0.024 A 
ATOM     30  C   UNL     1      -0.345  -2.007  -0.980  0.00  0.00    +0.037 A 
ATOM     31  C   UNL     1      -0.176  -2.692  -2.175  0.00  0.00    +0.070 A 
ATOM     32  N   UNL     1      -0.404  -0.613  -0.984  0.00  0.00    -0.286 N 
ATOM     33  C   UNL     1      -0.995   0.034  -2.008  0.00  0.00    +0.214 C 
ATOM     34  O   UNL     1      -1.396  -0.589  -2.968  0.00  0.00    -0.276 OA
ATOM     35  C   UNL     1      -1.158   1.531  -1.960  0.00  0.00    +0.109 C 
ATOM     36  H   UNL     1       0.033  -0.042  -0.151  0.00  0.00    +0.155 HD
BRANCH  24  37
ATOM     37  O   UNL     1       0.253  -6.680  -4.400  0.00  0.00    -0.480 OA
ATOM     38  H   UNL     1       0.338  -6.101  -5.332  0.00  0.00    +0.295 HD
ENDBRANCH  24  37
ENDBRANCH  21  22
ENDBRANCH  20  21
ENDBRANCH   5  20
TORSDOF 6
