REMARK  Name = ZINC36584076
REMARK  19 active torsions:
REMARK  status: ('A' for Active; 'I' for Inactive)
REMARK    1  A    between atoms: C_1  and  C_2
REMARK    2  A    between atoms: C_2  and  C_3
REMARK    3  A    between atoms: C_2  and  C_4
REMARK    4  A    between atoms: C_2  and  C_5
REMARK    5  A    between atoms: C_5  and  C_6
REMARK    6  A    between atoms: C_6  and  C_7
REMARK    7  A    between atoms: C_6  and  C_8
REMARK    8  A    between atoms: C_6  and  N_9
REMARK    9  A    between atoms: C_10  and  C_12
REMARK   10  A    between atoms: C_12  and  C_14
REMARK   11  A    between atoms: C_12  and  N_27
REMARK   12  A    between atoms: C_14  and  C_15
REMARK   13  A    between atoms: C_14  and  C_21
REMARK   14  A    between atoms: N_27  and  C_37
REMARK   15  A    between atoms: C_28  and  C_30
REMARK   16  A    between atoms: C_35  and  O_36
REMARK   17  A    between atoms: C_37  and  C_38
REMARK   18  A    between atoms: C_37  and  C_39
REMARK   19  A    between atoms: C_37  and  C_40
REMARK                            x       y       z     vdW  Elec       q    Type
REMARK                         _______ _______ _______ _____ _____    ______ ____
ROOT
ATOM      1  C   UNL     1       6.525   3.852  -2.004  0.00  0.00    +0.174 C 
ENDROOT
BRANCH   1   3
ATOM      2  N   UNL     1       5.269   5.700  -0.944  0.00  0.00    -0.309 N 
ATOM      3  C   UNL     1       6.011   4.585  -0.792  0.00  0.00    +0.235 C 
ATOM      4  O   UNL     1       6.265   4.172   0.320  0.00  0.00    -0.274 OA
ATOM      5  H   UNL     1       5.027   6.004  -1.832  0.00  0.00    +0.149 HD
BRANCH   2   6
ATOM      6  C   UNL     1       4.829   6.453   0.234  0.00  0.00    +0.030 C 
ATOM      7  C   UNL     1       5.999   6.607   1.207  0.00  0.00    +0.031 C 
ATOM      8  C   UNL     1       3.688   5.701   0.922  0.00  0.00    +0.031 C 
BRANCH   6   9
ATOM      9  C   UNL     1       4.340   7.836  -0.199  0.00  0.00    +0.031 C 
BRANCH   9  11
ATOM     10  C   UNL     1       5.746   7.524  -2.241  0.00  0.00    +0.010 C 
ATOM     11  C   UNL     1       5.386   8.486  -1.107  0.00  0.00    -0.036 C 
ATOM     12  C   UNL     1       6.641   8.805  -0.292  0.00  0.00    +0.010 C 
ATOM     13  C   UNL     1       4.818   9.779  -1.696  0.00  0.00    +0.010 C 
ENDBRANCH   9  11
ENDBRANCH   6   9
ENDBRANCH   2   6
ENDBRANCH   1   3
BRANCH   1  14
ATOM     14  N   UNL     1       7.263   2.660  -1.577  0.00  0.00    -0.280 N 
ATOM     15  C   UNL     1       8.597   2.592  -1.759  0.00  0.00    +0.251 C 
ATOM     16  O   UNL     1       9.173   3.473  -2.368  0.00  0.00    -0.270 OA
BRANCH  15  17
ATOM     17  C   UNL     1       9.357   1.448  -1.220  0.00  0.00    +0.078 A 
ATOM     18  C   UNL     1       8.688   0.307  -0.774  0.00  0.00    +0.017 A 
ATOM     19  C   UNL     1       9.404  -0.758  -0.272  0.00  0.00    +0.001 A 
ATOM     20  C   UNL     1      10.787  -0.702  -0.207  0.00  0.00    +0.004 A 
ATOM     21  C   UNL     1      11.461   0.420  -0.645  0.00  0.00    +0.046 A 
ATOM     22  C   UNL     1      10.757   1.499  -1.158  0.00  0.00    +0.129 A 
BRANCH  22  23
ATOM     23  O   UNL     1      11.418   2.600  -1.593  0.00  0.00    -0.506 OA
ATOM     24  H   UNL     1      11.562   3.269  -0.909  0.00  0.00    +0.292 HD
ENDBRANCH  22  23
ENDBRANCH  15  17
BRANCH  14  25
ATOM     25  C   UNL     1       6.551   1.543  -0.952  0.00  0.00    +0.030 C 
ATOM     26  C   UNL     1       5.105   1.954  -0.668  0.00  0.00    +0.031 C 
ATOM     27  C   UNL     1       6.563   0.339  -1.896  0.00  0.00    +0.031 C 
ATOM     28  C   UNL     1       7.242   1.168   0.361  0.00  0.00    +0.031 C 
ENDBRANCH  14  25
ENDBRANCH   1  14
BRANCH   1  29
ATOM     29  C   UNL     1       5.347   3.433  -2.885  0.00  0.00    +0.078 C 
BRANCH  29  30
ATOM     30  C   UNL     1       4.877   4.617  -3.691  0.00  0.00    -0.038 A 
ATOM     31  C   UNL     1       5.767   5.303  -4.494  0.00  0.00    +0.004 A 
ATOM     32  C   UNL     1       5.336   6.389  -5.233  0.00  0.00    +0.000 A 
ATOM     33  C   UNL     1       4.014   6.788  -5.169  0.00  0.00    +0.000 A 
ATOM     34  C   UNL     1       3.123   6.101  -4.366  0.00  0.00    +0.000 A 
ATOM     35  C   UNL     1       3.553   5.012  -3.630  0.00  0.00    +0.004 A 
ENDBRANCH  29  30
BRANCH  29  36
ATOM     36  C   UNL     1       5.782   2.332  -3.817  0.00  0.00    -0.038 A 
ATOM     37  C   UNL     1       4.864   1.401  -4.264  0.00  0.00    +0.004 A 
ATOM     38  C   UNL     1       5.263   0.391  -5.119  0.00  0.00    +0.000 A 
ATOM     39  C   UNL     1       6.582   0.313  -5.528  0.00  0.00    +0.000 A 
ATOM     40  C   UNL     1       7.500   1.245  -5.082  0.00  0.00    +0.000 A 
ATOM     41  C   UNL     1       7.099   2.257  -4.230  0.00  0.00    +0.004 A 
ENDBRANCH  29  36
ENDBRANCH   1  29
TORSDOF 11
