REMARK  Name = ZINC09490856
REMARK  11 active torsions:
REMARK  status: ('A' for Active; 'I' for Inactive)
REMARK    1  A    between atoms: C_1  and  C_2
REMARK    2  A    between atoms: C_2  and  O_3
REMARK    3  A    between atoms: O_3  and  C_4
REMARK    4  A    between atoms: C_4  and  C_5
REMARK    5  A    between atoms: C_5  and  C_6
REMARK    6  A    between atoms: C_6  and  N_7
REMARK    7  A    between atoms: C_8  and  C_10
REMARK    8  A    between atoms: C_19  and  C_22
REMARK    9  A    between atoms: C_22  and  S_23
REMARK   10  A    between atoms: S_23  and  C_26
REMARK   11  A    between atoms: C_26  and  C_27
REMARK                            x       y       z     vdW  Elec       q    Type
REMARK                         _______ _______ _______ _____ _____    ______ ____
ROOT
ATOM      1  C   UNL     1       8.805   2.168  -2.738  0.00  0.00    +0.039 A 
ATOM      2  C   UNL     1       7.681   1.493  -3.224  0.00  0.00    +0.015 A 
ATOM      3  C   UNL     1       6.531   2.193  -3.521  0.00  0.00    +0.025 A 
ATOM      4  C   UNL     1       6.489   3.567  -3.336  0.00  0.00    +0.049 A 
ATOM      5  C   UNL     1       7.606   4.250  -2.843  0.00  0.00    +0.055 A 
ATOM      6  C   UNL     1       8.762   3.553  -2.549  0.00  0.00    +0.038 A 
ATOM      7  N   UNL     1       7.539   5.633  -2.637  0.00  0.00    -0.282 N 
ATOM      8  C   UNL     1       6.365   6.288  -2.720  0.00  0.00    +0.239 C 
ATOM      9  O   UNL     1       6.344   7.499  -2.661  0.00  0.00    -0.273 OA
ATOM     10  C   UNL     1       5.074   5.527  -2.887  0.00  0.00    +0.178 C 
ATOM     11  N   UNL     1       5.336   4.293  -3.641  0.00  0.00    -0.330 N 
ATOM     12  H   UNL     1       8.349   6.127  -2.433  0.00  0.00    +0.155 HD
ATOM     13  H   UNL     1       4.725   3.991  -4.331  0.00  0.00    +0.147 HD
ENDROOT
BRANCH   1  15
ATOM     14  N   UNL     1      10.078   0.084  -2.607  0.00  0.00    -0.311 N 
ATOM     15  C   UNL     1      10.036   1.419  -2.424  0.00  0.00    +0.244 C 
ATOM     16  O   UNL     1      11.014   2.006  -2.002  0.00  0.00    -0.270 OA
ATOM     17  H   UNL     1       9.298  -0.384  -2.944  0.00  0.00    +0.149 HD
BRANCH  14  18
ATOM     18  C   UNL     1      11.301  -0.660  -2.295  0.00  0.00    +0.107 C 
BRANCH  18  19
ATOM     19  C   UNL     1      11.083  -2.146  -2.589  0.00  0.00    +0.047 C 
BRANCH  19  20
ATOM     20  C   UNL     1      12.360  -2.923  -2.264  0.00  0.00    +0.161 C 
BRANCH  20  21
ATOM     21  O   UNL     1      12.156  -4.310  -2.538  0.00  0.00    -0.380 OA
BRANCH  21  23
ATOM     22  C   UNL     1      12.965  -6.587  -2.595  0.00  0.00    +0.034 C 
ATOM     23  C   UNL     1      13.295  -5.130  -2.267  0.00  0.00    +0.156 C 
ENDBRANCH  21  23
ENDBRANCH  20  21
ENDBRANCH  19  20
ENDBRANCH  18  19
ENDBRANCH  14  18
ENDBRANCH   1  15
BRANCH  10  24
ATOM     24  C   UNL     1       4.506   5.174  -1.510  0.00  0.00    +0.198 C 
BRANCH  24  25
ATOM     25  S   UNL     1       2.956   4.254  -1.713  0.00  0.00    -0.025 S 
ATOM     26  O   UNL     1       3.249   3.010  -2.334  0.00  0.00    -0.174 OA
ATOM     27  O   UNL     1       1.997   5.116  -2.311  0.00  0.00    -0.174 OA
BRANCH  25  28
ATOM     28  C   UNL     1       2.452   3.936   0.000  0.00  0.00    +0.201 C 
BRANCH  28  29
ATOM     29  C   UNL     1       1.157   3.166   0.008  0.00  0.00    -0.025 A 
ATOM     30  C   UNL     1       1.175   1.783   0.000  0.00  0.00    +0.005 A 
ATOM     31  C   UNL     1      -0.013   1.076   0.008  0.00  0.00    +0.001 A 
ATOM     32  C   UNL     1      -1.219   1.751   0.017  0.00  0.00    +0.015 A 
ATOM     33  C   UNL     1      -1.238   3.133   0.029  0.00  0.00    +0.018 A 
ATOM     34  C   UNL     1      -0.049   3.841   0.022  0.00  0.00    +0.020 A 
ATOM     35 BR   UNL     1      -2.888   4.057   0.049  0.00  0.00    -0.050 Br
ENDBRANCH  28  29
ENDBRANCH  25  28
ENDBRANCH  24  25
ENDBRANCH  10  24
TORSDOF 10
