REMARK  Name = ZINC19236473
REMARK  7 active torsions:
REMARK  status: ('A' for Active; 'I' for Inactive)
REMARK    1  A    between atoms: C_1  and  C_2
REMARK    2  A    between atoms: C_12  and  C_14
REMARK    3  A    between atoms: C_14  and  C_16
REMARK    4  A    between atoms: C_14  and  N_31
REMARK    5  A    between atoms: N_20  and  C_21
REMARK    6  A    between atoms: C_21  and  C_22
REMARK    7  A    between atoms: C_34  and  C_37
REMARK                            x       y       z     vdW  Elec       q    Type
REMARK                         _______ _______ _______ _____ _____    ______ ____
ROOT
ATOM      1  C   UNL     1      -1.742  -1.518   1.719  0.00  0.00    +0.039 C 
ENDROOT
BRANCH   1  13
ATOM      2  C   UNL     1      -5.843  -6.647   2.005  0.00  0.00    +0.046 C 
ATOM      3  C   UNL     1      -5.085  -6.042   0.851  0.00  0.00    -0.026 A 
ATOM      4  C   UNL     1      -5.202  -6.581  -0.412  0.00  0.00    +0.005 A 
ATOM      5  C   UNL     1      -4.509  -6.032  -1.483  0.00  0.00    +0.001 A 
ATOM      6  C   UNL     1      -3.699  -4.947  -1.304  0.00  0.00    +0.010 A 
ATOM      7  C   UNL     1      -3.566  -4.383  -0.031  0.00  0.00    -0.001 A 
ATOM      8  C   UNL     1      -4.266  -4.937   1.057  0.00  0.00    +0.052 A 
ATOM      9  N   UNL     1      -4.132  -4.377   2.310  0.00  0.00    -0.322 N 
ATOM     10  H   UNL     1      -4.677  -4.804   3.164  0.00  0.00    +0.169 HD
ATOM     11  C   UNL     1      -3.341  -3.308   2.508  0.00  0.00    +0.251 A 
ATOM     12  O   UNL     1      -3.246  -2.839   3.629  0.00  0.00    -0.268 OA
ATOM     13  C   UNL     1      -2.617  -2.716   1.451  0.00  0.00    +0.011 A 
ATOM     14  C   UNL     1      -2.711  -3.216   0.195  0.00  0.00    +0.017 A 
ENDBRANCH   1  13
BRANCH   1  15
ATOM     15  N   UNL     1      -0.786  -1.839   2.787  0.00  0.00    +0.389 N 
ATOM     16  C   UNL     1      -0.084  -3.097   2.504  0.00  0.00    -0.077 C 
ATOM     17  C   UNL     1       0.793  -3.473   3.701  0.00  0.00    -0.015 C 
ATOM     18  C   UNL     1       1.801  -2.351   3.962  0.00  0.00    -0.018 C 
ATOM     19  C   UNL     1       1.045  -1.042   4.206  0.00  0.00    -0.015 C 
ATOM     20  C   UNL     1       0.161  -0.736   2.994  0.00  0.00    -0.077 C 
ATOM     21  C   UNL     1       2.640  -2.694   5.194  0.00  0.00    +0.007 C 
ATOM     22  H   UNL     1      -1.353  -1.974   3.720  0.00  0.00    -0.080 HD
ENDBRANCH   1  15
BRANCH   1  23
ATOM     23  C   UNL     1      -2.600  -0.354   2.145  0.00  0.00    +0.143 A 
ATOM     24  N   UNL     1      -3.171  -0.189   3.313  0.00  0.00    -0.115 NA
ATOM     25  N   UNL     1      -3.820   0.923   3.285  0.00  0.00    -0.023 NA
ATOM     26  N   UNL     1      -3.674   1.474   2.131  0.00  0.00    -0.044 NA
ATOM     27  N   UNL     1      -2.926   0.719   1.400  0.00  0.00    -0.226 N 
BRANCH  27  28
ATOM     28  C   UNL     1      -2.513   0.977   0.019  0.00  0.00    +0.182 C 
BRANCH  28  29
ATOM     29  C   UNL     1      -1.219   1.750   0.017  0.00  0.00    -0.022 A 
ATOM     30  C   UNL     1      -1.242   3.133   0.033  0.00  0.00    +0.009 A 
ATOM     31  C   UNL     1      -0.058   3.846   0.024  0.00  0.00    +0.050 A 
ATOM     32  C   UNL     1       1.155   3.177   0.008  0.00  0.00    +0.166 A 
ATOM     33  C   UNL     1       1.178   1.784   0.000  0.00  0.00    +0.167 A 
ATOM     34  C   UNL     1      -0.013   1.076   0.008  0.00  0.00    +0.055 A 
ATOM     35  O   UNL     1       2.478   1.369  -0.015  0.00  0.00    -0.453 OA
ATOM     36  C   UNL     1       3.243   2.517  -0.428  0.00  0.00    +0.466 C 
ATOM     37  O   UNL     1       2.441   3.634  -0.002  0.00  0.00    -0.453 OA
ENDBRANCH  28  29
ENDBRANCH  27  28
ENDBRANCH   1  23
TORSDOF 5
