REMARK  Name = ZINC13959438
REMARK  7 active torsions:
REMARK  status: ('A' for Active; 'I' for Inactive)
REMARK    1  A    between atoms: C_1  and  C_2
REMARK    2  A    between atoms: C_6  and  C_41
REMARK    3  A    between atoms: C_7  and  N_8
REMARK    4  A    between atoms: N_17  and  C_20
REMARK    5  A    between atoms: C_20  and  C_21
REMARK    6  A    between atoms: C_24  and  C_35
REMARK    7  A    between atoms: C_27  and  C_29
REMARK                            x       y       z     vdW  Elec       q    Type
REMARK                         _______ _______ _______ _____ _____    ______ ____
ROOT
ATOM      1  C   UNL     1      -2.254   1.980   6.039  0.00  0.00    +0.226 C 
ENDROOT
BRANCH   1   9
ATOM      2  N   UNL     1       0.025  -0.013   2.419  0.00  0.00    -0.206 N 
ATOM      3  C   UNL     1       1.162   0.382   3.065  0.00  0.00    +0.255 C 
ATOM      4  O   UNL     1       2.280   0.435   2.600  0.00  0.00    -0.272 OA
ATOM      5  C   UNL     1       0.751   0.737   4.460  0.00  0.00    +0.246 C 
ATOM      6  C   UNL     1      -0.694   1.268   4.106  0.00  0.00    +0.216 C 
ATOM      7  C   UNL     1      -1.115   0.347   3.092  0.00  0.00    +0.251 C 
ATOM      8  O   UNL     1      -2.245  -0.035   2.876  0.00  0.00    -0.273 OA
ATOM      9  N   UNL     1      -0.992   1.934   5.297  0.00  0.00    -0.214 N 
ATOM     10  N   UNL     1       0.260   2.561   5.604  0.00  0.00    -0.082 NA
ATOM     11  N   UNL     1       1.252   1.925   5.125  0.00  0.00    -0.156 NA
BRANCH   2  18
ATOM     12  C   UNL     1      -0.018   1.503   0.010  0.00  0.00    +0.046 C 
ATOM     13  C   UNL     1       0.002  -0.004   0.002  0.00  0.00    -0.028 A 
ATOM     14  C   UNL     1       0.006  -0.689  -1.198  0.00  0.00    +0.005 A 
ATOM     15  C   UNL     1       0.025  -2.071  -1.206  0.00  0.00    +0.001 A 
ATOM     16  C   UNL     1       0.040  -2.773  -0.014  0.00  0.00    +0.005 A 
ATOM     17  C   UNL     1       0.037  -2.093   1.188  0.00  0.00    -0.028 A 
ATOM     18  C   UNL     1       0.023  -0.705   1.200  0.00  0.00    +0.050 A 
ATOM     19  C   UNL     1       0.054  -2.858   2.487  0.00  0.00    +0.046 C 
ENDBRANCH   2  18
ENDBRANCH   1   9
BRANCH   1  20
ATOM     20  C   UNL     1      -2.294   0.849   7.033  0.00  0.00    +0.254 C 
ATOM     21  O   UNL     1      -1.360   0.079   7.115  0.00  0.00    -0.272 OA
ATOM     22  N   UNL     1      -3.368   0.691   7.833  0.00  0.00    -0.184 N 
ATOM     23  C   UNL     1      -3.533  -0.362   8.847  0.00  0.00    +0.137 C 
ATOM     24  C   UNL     1      -4.921  -0.068   9.450  0.00  0.00    +0.087 C 
ATOM     25  C   UNL     1      -5.398   1.149   8.691  0.00  0.00    +0.069 C 
ATOM     26  N   UNL     1      -4.500   1.503   7.838  0.00  0.00    -0.181 NA
BRANCH  25  27
ATOM     27  C   UNL     1      -6.690   1.830   8.899  0.00  0.00    -0.002 A 
ATOM     28  C   UNL     1      -7.583   1.360   9.865  0.00  0.00    +0.010 A 
ATOM     29  C   UNL     1      -8.789   2.002  10.055  0.00  0.00    +0.001 A 
ATOM     30  C   UNL     1      -9.115   3.108   9.290  0.00  0.00    +0.000 A 
ATOM     31  C   UNL     1      -8.236   3.579   8.331  0.00  0.00    +0.001 A 
ATOM     32  C   UNL     1      -7.023   2.951   8.136  0.00  0.00    +0.010 A 
ENDBRANCH  25  27
BRANCH  23  33
ATOM     33  C   UNL     1      -3.509  -1.725   8.204  0.00  0.00    -0.025 A 
ATOM     34  C   UNL     1      -4.114  -1.922   6.977  0.00  0.00    +0.005 A 
ATOM     35  C   UNL     1      -4.091  -3.172   6.388  0.00  0.00    +0.000 A 
ATOM     36  C   UNL     1      -3.463  -4.226   7.025  0.00  0.00    +0.000 A 
ATOM     37  C   UNL     1      -2.857  -4.029   8.252  0.00  0.00    +0.000 A 
ATOM     38  C   UNL     1      -2.876  -2.777   8.839  0.00  0.00    +0.005 A 
ENDBRANCH  23  33
ENDBRANCH   1  20
TORSDOF 5
