REMARK  Name = ZINC12765768
REMARK  9 active torsions:
REMARK  status: ('A' for Active; 'I' for Inactive)
REMARK    1  A    between atoms: C_1  and  N_54
REMARK    2  A    between atoms: C_2  and  C_3
REMARK    3  A    between atoms: C_2  and  N_54
REMARK    4  A    between atoms: C_12  and  C_13
REMARK    5  A    between atoms: C_12  and  N_54
REMARK    6  A    between atoms: N_15  and  C_16
REMARK    7  A    between atoms: C_21  and  C_22
REMARK    8  A    between atoms: N_24  and  C_25
REMARK    9  A    between atoms: C_25  and  C_26
REMARK                            x       y       z     vdW  Elec       q    Type
REMARK                         _______ _______ _______ _____ _____    ______ ____
ROOT
ATOM      1  C   UNL     1       8.221  -2.067   0.753  0.00  0.00    +0.201 C 
ATOM      2  O   UNL     1       7.796  -2.217  -0.372  0.00  0.00    -0.278 OA
ATOM      3  N   UNL     1       9.468  -2.475   1.063  0.00  0.00    -0.286 N 
ATOM      4  H   UNL     1       9.837  -2.284   1.939  0.00  0.00    +0.155 HD
ENDROOT
BRANCH   3   5
ATOM      5  C   UNL     1      10.226  -3.170   0.124  0.00  0.00    +0.045 A 
ATOM      6  C   UNL     1       9.600  -3.895  -0.881  0.00  0.00    +0.024 A 
ATOM      7  C   UNL     1      10.353  -4.579  -1.813  0.00  0.00    +0.002 A 
ATOM      8  C   UNL     1      11.737  -4.558  -1.748  0.00  0.00    +0.001 A 
ATOM      9  C   UNL     1      12.376  -3.849  -0.754  0.00  0.00    +0.015 A 
ATOM     10  C   UNL     1      11.627  -3.147   0.193  0.00  0.00    +0.058 A 
BRANCH  10  11
ATOM     11  C   UNL     1      12.305  -2.386   1.260  0.00  0.00    +0.246 C 
ATOM     12  O   UNL     1      11.652  -1.852   2.135  0.00  0.00    -0.270 OA
ATOM     13  N   UNL     1      13.649  -2.283   1.264  0.00  0.00    -0.304 N 
ATOM     14  H   UNL     1      14.170  -2.709   0.566  0.00  0.00    +0.149 HD
BRANCH  13  15
ATOM     15  C   UNL     1      14.322  -1.527   2.323  0.00  0.00    +0.179 C 
BRANCH  15  16
ATOM     16  C   UNL     1      15.812  -1.566   2.098  0.00  0.00    +0.122 A 
ATOM     17  C   UNL     1      16.522  -0.679   1.377  0.00  0.00    +0.046 A 
ATOM     18  C   UNL     1      17.872  -1.095   1.432  0.00  0.00    +0.041 A 
ATOM     19  C   UNL     1      17.907  -2.210   2.183  0.00  0.00    +0.195 A 
ATOM     20  O   UNL     1      16.657  -2.488   2.588  0.00  0.00    -0.466 OA
ENDBRANCH  15  16
ENDBRANCH  13  15
ENDBRANCH  10  11
ENDBRANCH   3   5
BRANCH   1  21
ATOM     21  C   UNL     1       7.355  -1.426   1.807  0.00  0.00    +0.019 C 
BRANCH  21  23
ATOM     22  C   UNL     1       6.199  -0.026   0.204  0.00  0.00    -0.095 C 
ATOM     23  N   UNL     1       6.043  -1.098   1.210  0.00  0.00    +0.386 N 
ATOM     24  H   UNL     1       5.667  -1.935   0.749  0.00  0.00    -0.081 HD
BRANCH  23  25
ATOM     25  C   UNL     1       5.102  -0.667   2.265  0.00  0.00    -0.043 C 
BRANCH  25  26
ATOM     26  C   UNL     1       3.722  -0.553   1.669  0.00  0.00    -0.060 A 
ATOM     27  C   UNL     1       2.883  -1.651   1.655  0.00  0.00    +0.005 A 
ATOM     28  C   UNL     1       1.617  -1.551   1.109  0.00  0.00    +0.050 A 
ATOM     29  C   UNL     1       1.186  -0.348   0.573  0.00  0.00    +0.166 A 
ATOM     30  C   UNL     1       2.032   0.759   0.587  0.00  0.00    +0.166 A 
ATOM     31  C   UNL     1       3.299   0.651   1.137  0.00  0.00    +0.051 A 
ATOM     32  O   UNL     1       1.383   1.811   0.008  0.00  0.00    -0.453 OA
ATOM     33  C   UNL     1      -0.011   1.450   0.009  0.00  0.00    +0.466 C 
ATOM     34  O   UNL     1       0.008   0.011  -0.015  0.00  0.00    -0.453 OA
ENDBRANCH  25  26
ENDBRANCH  23  25
ENDBRANCH  21  23
ENDBRANCH   1  21
TORSDOF 8
