REMARK  Name = ZINC20449682
REMARK  7 active torsions:
REMARK  status: ('A' for Active; 'I' for Inactive)
REMARK    1  A    between atoms: C_1  and  N_2
REMARK    2  A    between atoms: C_5  and  C_7
REMARK    3  A    between atoms: C_12  and  C_14
REMARK    4  A    between atoms: C_18  and  O_22
REMARK    5  A    between atoms: C_19  and  O_20
REMARK    6  A    between atoms: O_20  and  C_21
REMARK    7  A    between atoms: O_22  and  C_23
REMARK                            x       y       z     vdW  Elec       q    Type
REMARK                         _______ _______ _______ _____ _____    ______ ____
ROOT
ATOM      1  C   UNL     1      -0.018   1.461   0.010  0.00  0.00    +0.174 C 
ATOM      2  N   UNL     1       0.002  -0.004   0.002  0.00  0.00    -0.248 N 
ATOM      3  C   UNL     1       0.008  -0.804  -1.110  0.00  0.00    +0.177 A 
ATOM      4  C   UNL     1       0.028  -2.119  -0.657  0.00  0.00    +0.109 A 
ATOM      5  C   UNL     1       0.034  -2.082   0.743  0.00  0.00    +0.092 A 
ATOM      6  N   UNL     1       0.025  -0.834   1.130  0.00  0.00    -0.172 NA
ATOM      7  N   UNL     1       0.034  -2.919  -1.788  0.00  0.00    -0.335 N 
ATOM      8  H   UNL     1       0.047  -3.889  -1.809  0.00  0.00    +0.167 HD
ATOM      9  C   UNL     1       0.017  -2.081  -2.868  0.00  0.00    +0.145 A 
ATOM     10  N   UNL     1       0.002  -0.836  -2.451  0.00  0.00    -0.208 NA
ENDROOT
BRANCH   9  11
ATOM     11  C   UNL     1       0.017  -2.510  -4.282  0.00  0.00    +0.063 A 
ATOM     12  C   UNL     1       0.029  -3.869  -4.603  0.00  0.00    +0.015 A 
ATOM     13  C   UNL     1       0.029  -4.265  -5.924  0.00  0.00    +0.004 A 
ATOM     14  C   UNL     1       0.017  -3.321  -6.937  0.00  0.00    +0.049 A 
ATOM     15  C   UNL     1       0.005  -1.970  -6.633  0.00  0.00    +0.162 A 
ATOM     16  C   UNL     1      -0.000  -1.556  -5.305  0.00  0.00    +0.172 A 
BRANCH  16  17
ATOM     17  O   UNL     1      -0.017  -0.231  -5.003  0.00  0.00    -0.491 OA
ATOM     18  C   UNL     1       1.248   0.418  -4.865  0.00  0.00    +0.277 C 
ENDBRANCH  16  17
BRANCH  15  19
ATOM     19  O   UNL     1      -0.005  -1.048  -7.632  0.00  0.00    -0.491 OA
ATOM     20  C   UNL     1      -0.004  -1.544  -8.972  0.00  0.00    +0.277 C 
ENDBRANCH  15  19
ENDBRANCH   9  11
BRANCH   5  21
ATOM     21  C   UNL     1       0.053  -3.283   1.653  0.00  0.00    +0.042 C 
ATOM     22  C   UNL     1      -0.147  -3.039   3.150  0.00  0.00    +0.010 C 
ATOM     23  C   UNL     1       1.235  -3.421   2.615  0.00  0.00    +0.010 C 
ENDBRANCH   5  21
TORSDOF 4
