REMARK  Name = ZINC38989409
REMARK  8 active torsions:
REMARK  status: ('A' for Active; 'I' for Inactive)
REMARK    1  A    between atoms: C_3  and  C_33
REMARK    2  A    between atoms: C_5  and  N_7
REMARK    3  A    between atoms: C_8  and  C_10
REMARK    4  A    between atoms: C_10  and  S_11
REMARK    5  A    between atoms: S_11  and  C_12
REMARK    6  A    between atoms: C_16  and  C_20
REMARK    7  A    between atoms: N_18  and  N_19
REMARK    8  A    between atoms: C_23  and  C_26
REMARK                            x       y       z     vdW  Elec       q    Type
REMARK                         _______ _______ _______ _____ _____    ______ ____
ROOT
ATOM      1  C   UNL     1      -1.363  -6.707   0.442  0.00  0.00    +0.214 C 
ATOM      2  N   UNL     1      -0.509  -7.044   1.603  0.00  0.00    -0.228 NA
ATOM      3  N   UNL     1       0.304  -8.181   1.145  0.00  0.00    -0.234 NA
ATOM      4  C   UNL     1       0.591  -7.839  -0.273  0.00  0.00    +0.185 C 
ATOM      5  N   UNL     1      -0.663  -7.213  -0.757  0.00  0.00    -0.197 NA
ATOM      6  H   UNL     1       0.075  -6.262   1.861  0.00  0.00    +0.143 HD
ATOM      7  H   UNL     1       1.157  -8.255   1.679  0.00  0.00    +0.143 HD
ENDROOT
BRANCH   4   8
ATOM      8  C   UNL     1       0.906  -9.103  -1.075  0.00  0.00    +0.187 C 
ATOM      9  C   UNL     1       2.100  -9.830  -0.483  0.00  0.00    +0.034 C 
ATOM     10  C   UNL     1       3.011  -9.816  -1.475  0.00  0.00    +0.091 C 
ATOM     11  N   UNL     1       2.513  -9.179  -2.567  0.00  0.00    -0.154 NA
ATOM     12  N   UNL     1       1.359  -8.757  -2.433  0.00  0.00    -0.176 NA
BRANCH  10  13
ATOM     13  C   UNL     1       4.367 -10.411  -1.387  0.00  0.00    +0.002 A 
ATOM     14  C   UNL     1       4.777 -11.048  -0.217  0.00  0.00    +0.011 A 
ATOM     15  C   UNL     1       6.039 -11.600  -0.140  0.00  0.00    +0.020 A 
ATOM     16  C   UNL     1       6.899 -11.521  -1.222  0.00  0.00    +0.041 A 
ATOM     17  C   UNL     1       6.497 -10.889  -2.387  0.00  0.00    +0.020 A 
ATOM     18  C   UNL     1       5.234 -10.340  -2.476  0.00  0.00    +0.011 A 
ATOM     19 CL   UNL     1       8.486 -12.217  -1.119  0.00  0.00    -0.084 Cl
ENDBRANCH  10  13
ENDBRANCH   4   8
BRANCH   5  20
ATOM     20  N   UNL     1      -1.484  -8.176  -1.473  0.00  0.00    -0.264 NA
ATOM     21  H   UNL     1      -2.353  -7.759  -1.772  0.00  0.00    +0.137 HD
ATOM     22  H   UNL     1      -0.982  -8.568  -2.256  0.00  0.00    +0.137 HD
ENDBRANCH   5  20
BRANCH   1  23
ATOM     23  S   UNL     1      -1.575  -4.910   0.325  0.00  0.00    -0.115 S 
BRANCH  23  24
ATOM     24  C   UNL     1       0.119  -4.276   0.192  0.00  0.00    +0.168 C 
BRANCH  24  26
ATOM     25  N   UNL     1       1.237  -2.080  -0.021  0.00  0.00    -0.285 N 
ATOM     26  C   UNL     1       0.087  -2.773   0.087  0.00  0.00    +0.227 C 
ATOM     27  O   UNL     1      -0.975  -2.187   0.101  0.00  0.00    -0.275 OA
ATOM     28  H   UNL     1       2.081  -2.551  -0.110  0.00  0.00    +0.155 HD
BRANCH  25  33
ATOM     29  C   UNL     1       2.115   1.418  -0.740  0.00  0.00    +0.002 A 
ATOM     30  C   UNL     1       1.173   2.086   0.021  0.00  0.00    +0.012 A 
ATOM     31  C   UNL     1       0.252   1.374   0.767  0.00  0.00    +0.057 A 
ATOM     32  C   UNL     1       0.271  -0.007   0.755  0.00  0.00    +0.035 A 
ATOM     33  C   UNL     1       1.216  -0.681  -0.007  0.00  0.00    +0.034 A 
ATOM     34  C   UNL     1       2.139   0.037  -0.756  0.00  0.00    +0.023 A 
BRANCH  31  35
ATOM     35  C   UNL     1      -0.772   2.106   1.595  0.00  0.00    +0.417 C 
ATOM     36  F   UNL     1      -0.593   3.485   1.448  0.00  0.00    -0.166 F 
ATOM     37  F   UNL     1      -2.057   1.754   1.166  0.00  0.00    -0.166 F 
ATOM     38  F   UNL     1      -0.619   1.757   2.942  0.00  0.00    -0.166 F 
ENDBRANCH  31  35
ENDBRANCH  25  33
ENDBRANCH  24  26
ENDBRANCH  23  24
ENDBRANCH   1  23
TORSDOF 8
