REMARK  Name = ZINC38748472
REMARK  7 active torsions:
REMARK  status: ('A' for Active; 'I' for Inactive)
REMARK    1  A    between atoms: C_1  and  N_2
REMARK    2  A    between atoms: C_11  and  C_14
REMARK    3  A    between atoms: C_14  and  C_15
REMARK    4  A    between atoms: N_17  and  C_18
REMARK    5  A    between atoms: C_18  and  C_19
REMARK    6  A    between atoms: C_19  and  C_21
REMARK    7  A    between atoms: C_19  and  C_28
REMARK                            x       y       z     vdW  Elec       q    Type
REMARK                         _______ _______ _______ _____ _____    ______ ____
ROOT
ATOM      1  C   UNL     1       1.320  -1.437   6.087  0.00  0.00    +0.117 C 
ENDROOT
BRANCH   1   4
ATOM      2  C   UNL     1       1.085  -1.761   3.684  0.00  0.00    +0.215 C 
ATOM      3  O   UNL     1       1.476  -0.624   3.522  0.00  0.00    -0.276 OA
ATOM      4  N   UNL     1       0.972  -2.264   4.929  0.00  0.00    -0.314 N 
ATOM      5  H   UNL     1       0.660  -3.173   5.059  0.00  0.00    +0.149 HD
BRANCH   2   6
ATOM      6  C   UNL     1       0.727  -2.611   2.492  0.00  0.00    +0.120 C 
BRANCH   6  17
ATOM      7  C   UNL     1      -0.018   1.461   0.010  0.00  0.00    +0.153 C 
ATOM      8  N   UNL     1       0.002  -0.004   0.002  0.00  0.00    -0.236 N 
ATOM      9  C   UNL     1       0.005  -0.656  -1.179  0.00  0.00    +0.260 C 
ATOM     10  O   UNL     1      -0.193  -0.061  -2.221  0.00  0.00    -0.269 OA
ATOM     11  C   UNL     1       0.257  -2.114  -1.173  0.00  0.00    +0.043 A 
ATOM     12  C   UNL     1       0.058  -2.898  -2.304  0.00  0.00    +0.013 A 
ATOM     13  C   UNL     1       0.296  -4.258  -2.237  0.00  0.00    +0.001 A 
ATOM     14  C   UNL     1       0.728  -4.832  -1.054  0.00  0.00    +0.000 A 
ATOM     15  C   UNL     1       0.931  -4.053   0.073  0.00  0.00    +0.006 A 
ATOM     16  C   UNL     1       0.704  -2.696   0.017  0.00  0.00    -0.016 A 
ATOM     17  C   UNL     1       0.944  -1.808   1.208  0.00  0.00    +0.112 C 
ATOM     18  N   UNL     1       0.022  -0.674   1.185  0.00  0.00    -0.230 NA
ATOM     19  H   UNL     1      -0.907  -0.962   1.454  0.00  0.00    +0.145 HD
ENDBRANCH   6  17
ENDBRANCH   2   6
ENDBRANCH   1   4
BRANCH   1  20
ATOM     20  C   UNL     1       1.103  -2.240   7.371  0.00  0.00    +0.069 C 
BRANCH  20  21
ATOM     21  C   UNL     1       1.343  -1.353   8.566  0.00  0.00    -0.013 A 
ATOM     22  C   UNL     1       0.376  -1.024   9.615  0.00  0.00    +0.003 A 
ATOM     23  C   UNL     1      -0.954  -1.375   9.854  0.00  0.00    +0.010 A 
ATOM     24  C   UNL     1      -1.597  -0.888  10.957  0.00  0.00    +0.001 A 
ATOM     25  C   UNL     1      -0.939  -0.046  11.842  0.00  0.00    +0.002 A 
ATOM     26  C   UNL     1       0.374   0.314  11.626  0.00  0.00    +0.026 A 
ATOM     27  C   UNL     1       1.048  -0.171  10.510  0.00  0.00    +0.047 A 
ATOM     28  N   UNL     1       2.327  -0.003  10.027  0.00  0.00    -0.360 N 
ATOM     29  C   UNL     1       2.486  -0.719   8.872  0.00  0.00    +0.088 A 
ATOM     30  H   UNL     1       3.014   0.539  10.447  0.00  0.00    +0.165 HD
ENDBRANCH  20  21
BRANCH  20  31
ATOM     31  C   UNL     1       2.064  -3.401   7.406  0.00  0.00    -0.020 A 
ATOM     32  C   UNL     1       3.427  -3.170   7.388  0.00  0.00    +0.006 A 
ATOM     33  C   UNL     1       4.309  -4.234   7.420  0.00  0.00    +0.000 A 
ATOM     34  C   UNL     1       3.828  -5.530   7.470  0.00  0.00    +0.001 A 
ATOM     35  C   UNL     1       2.466  -5.761   7.488  0.00  0.00    +0.020 A 
ATOM     36  C   UNL     1       1.583  -4.696   7.462  0.00  0.00    +0.045 A 
ATOM     37 CL   UNL     1      -0.129  -4.986   7.491  0.00  0.00    -0.083 Cl
ENDBRANCH  20  31
ENDBRANCH   1  20
TORSDOF 6
