REMARK  Name = ZINC63083814
REMARK  7 active torsions:
REMARK  status: ('A' for Active; 'I' for Inactive)
REMARK    1  A    between atoms: C_1  and  C_2
REMARK    2  A    between atoms: C_2  and  C_4
REMARK    3  A    between atoms: C_9  and  N_10
REMARK    4  A    between atoms: C_11  and  C_13
REMARK    5  A    between atoms: C_13  and  S_14
REMARK    6  A    between atoms: S_14  and  C_15
REMARK    7  A    between atoms: C_21  and  N_25
REMARK                            x       y       z     vdW  Elec       q    Type
REMARK                         _______ _______ _______ _____ _____    ______ ____
ROOT
ATOM      1  N   UNL     1       0.220  -2.743  -0.036  0.00  0.00    -0.284 N 
ATOM      2  C   UNL     1       0.435  -4.073  -0.003  0.00  0.00    +0.227 C 
ATOM      3  O   UNL     1       0.622  -4.683  -1.035  0.00  0.00    -0.275 OA
ATOM      4  H   UNL     1       0.128  -2.247   0.792  0.00  0.00    +0.155 HD
ENDROOT
BRANCH   1  10
ATOM      5  C   UNL     1      -0.861  -1.104  -1.460  0.00  0.00    +0.042 A 
ATOM      6  C   UNL     1      -0.939  -0.439  -2.693  0.00  0.00    +0.062 A 
ATOM      7  C   UNL     1      -0.052  -0.750  -3.700  0.00  0.00    +0.167 A 
ATOM      8  C   UNL     1       0.928  -1.727  -3.496  0.00  0.00    +0.168 A 
ATOM      9  C   UNL     1       1.013  -2.388  -2.281  0.00  0.00    +0.073 A 
ATOM     10  C   UNL     1       0.130  -2.082  -1.258  0.00  0.00    +0.048 A 
ATOM     11  O   UNL     1       1.669  -1.842  -4.635  0.00  0.00    -0.453 OA
ATOM     12  C   UNL     1       0.881  -1.227  -5.672  0.00  0.00    +0.466 C 
ATOM     13  O   UNL     1       0.082  -0.259  -4.968  0.00  0.00    -0.453 OA
BRANCH   5  15
ATOM     14  C   UNL     1      -2.787   0.350  -0.565  0.00  0.00    +0.091 C 
ATOM     15  C   UNL     1      -1.802  -0.777  -0.387  0.00  0.00    +0.162 C 
ATOM     16  O   UNL     1      -1.789  -1.413   0.646  0.00  0.00    -0.292 OA
ENDBRANCH   5  15
ENDBRANCH   1  10
BRANCH   2  17
ATOM     17  C   UNL     1       0.443  -4.803   1.315  0.00  0.00    +0.169 C 
BRANCH  17  18
ATOM     18  S   UNL     1       0.756  -6.567   1.028  0.00  0.00    -0.106 S 
BRANCH  18  19
ATOM     19  C   UNL     1       0.734  -7.293   2.690  0.00  0.00    +0.236 C 
ATOM     20  N   UNL     1       1.742  -6.644   3.537  0.00  0.00    -0.355 N 
ATOM     21  C   UNL     1       1.117  -6.094   4.537  0.00  0.00    +0.061 A 
ATOM     22  C   UNL     1       1.575  -5.315   5.696  0.00  0.00    +0.029 A 
ATOM     23  C   UNL     1       0.675  -4.863   6.591  0.00  0.00    +0.035 A 
ATOM     24  C   UNL     1      -0.705  -5.104   6.467  0.00  0.00    +0.128 A 
ATOM     25  C   UNL     1      -1.231  -5.806   5.444  0.00  0.00    +0.060 A 
ATOM     26  C   UNL     1      -0.344  -6.349   4.406  0.00  0.00    +0.063 A 
ATOM     27  N   UNL     1      -0.565  -7.049   3.329  0.00  0.00    -0.355 N 
ATOM     28  H   UNL     1      -1.429  -7.352   3.008  0.00  0.00    +0.162 HD
ATOM     29  H   UNL     1       2.699  -6.629   3.380  0.00  0.00    +0.162 HD
BRANCH  24  30
ATOM     30  N   UNL     1      -1.616  -4.566   7.502  0.00  0.00    +0.056 N 
ATOM     31  O   UNL     1      -1.169  -3.933   8.431  0.00  0.00    -0.126 OA
ATOM     32  O   UNL     1      -2.806  -4.759   7.419  0.00  0.00    -0.126 OA
ENDBRANCH  24  30
ENDBRANCH  18  19
ENDBRANCH  17  18
ENDBRANCH   2  17
TORSDOF 6
