REMARK  Name = ZINC36490745
REMARK  15 active torsions:
REMARK  status: ('A' for Active; 'I' for Inactive)
REMARK    1  A    between atoms: C_1  and  C_2
REMARK    2  A    between atoms: C_2  and  C_4
REMARK    3  A    between atoms: C_2  and  C_10
REMARK    4  A    between atoms: C_10  and  C_12
REMARK    5  A    between atoms: C_10  and  N_23
REMARK    6  A    between atoms: N_14  and  C_15
REMARK    7  A    between atoms: C_15  and  C_16
REMARK    8  A    between atoms: C_15  and  C_17
REMARK    9  A    between atoms: C_15  and  C_18
REMARK   10  A    between atoms: C_18  and  C_19
REMARK   11  A    between atoms: C_19  and  C_20
REMARK   12  A    between atoms: C_19  and  C_21
REMARK   13  A    between atoms: C_19  and  C_22
REMARK   14  A    between atoms: N_23  and  C_24
REMARK   15  A    between atoms: C_30  and  C_32
REMARK                            x       y       z     vdW  Elec       q    Type
REMARK                         _______ _______ _______ _____ _____    ______ ____
ROOT
ATOM      1  C   UNL     1      -3.177   0.088  -1.159  0.00  0.00    +0.169 C 
ENDROOT
BRANCH   1   2
ATOM      2  C   UNL     1      -4.011   0.407  -2.373  0.00  0.00    +0.235 C 
ATOM      3  O   UNL     1      -4.421  -0.489  -3.079  0.00  0.00    -0.274 OA
ATOM      4  N   UNL     1      -4.300   1.689  -2.674  0.00  0.00    -0.309 N 
ATOM      5  H   UNL     1      -3.896   2.409  -2.167  0.00  0.00    +0.149 HD
BRANCH   4   6
ATOM      6  C   UNL     1      -5.226   1.993  -3.768  0.00  0.00    +0.030 C 
ATOM      7  C   UNL     1      -4.601   1.566  -5.098  0.00  0.00    +0.031 C 
ATOM      8  C   UNL     1      -6.537   1.233  -3.554  0.00  0.00    +0.031 C 
BRANCH   6   9
ATOM      9  C   UNL     1      -5.507   3.497  -3.796  0.00  0.00    +0.031 C 
BRANCH   9  10
ATOM     10  C   UNL     1      -5.716   4.002  -2.367  0.00  0.00    -0.036 C 
ATOM     11  C   UNL     1      -4.358   4.288  -1.723  0.00  0.00    +0.010 C 
ATOM     12  C   UNL     1      -6.547   5.287  -2.397  0.00  0.00    +0.010 C 
ATOM     13  C   UNL     1      -6.453   2.938  -1.552  0.00  0.00    +0.010 C 
ENDBRANCH   9  10
ENDBRANCH   6   9
ENDBRANCH   4   6
ENDBRANCH   1   2
BRANCH   1  14
ATOM     14  N   UNL     1      -3.373  -1.315  -0.787  0.00  0.00    -0.285 N 
ATOM     15  C   UNL     1      -3.978  -1.625   0.377  0.00  0.00    +0.237 C 
ATOM     16  O   UNL     1      -4.226  -2.783   0.642  0.00  0.00    -0.274 OA
BRANCH  15  17
ATOM     17  C   UNL     1      -4.348  -0.534   1.349  0.00  0.00    +0.159 C 
ATOM     18  C   UNL     1      -3.268  -0.408   2.446  0.00  0.00    +0.041 C 
ATOM     19  C   UNL     1      -3.840  -1.318   3.558  0.00  0.00    +0.098 C 
ATOM     20  C   UNL     1      -5.330  -1.330   3.297  0.00  0.00    +0.214 C 
ATOM     21  O   UNL     1      -6.172  -1.692   4.092  0.00  0.00    -0.276 OA
ATOM     22  N   UNL     1      -5.587  -0.881   2.054  0.00  0.00    -0.304 N 
ATOM     23  H   UNL     1      -6.476  -0.797   1.673  0.00  0.00    +0.149 HD
ENDBRANCH  15  17
BRANCH  14  24
ATOM     24  C   UNL     1      -2.911  -2.381  -1.679  0.00  0.00    +0.077 C 
ATOM     25  C   UNL     1      -4.118  -3.122  -2.256  0.00  0.00    +0.022 C 
ATOM     26  C   UNL     1      -3.635  -4.235  -3.188  0.00  0.00    +0.002 C 
ATOM     27  C   UNL     1      -2.763  -5.216  -2.402  0.00  0.00    +0.000 C 
ATOM     28  C   UNL     1      -1.556  -4.475  -1.825  0.00  0.00    +0.002 C 
ATOM     29  C   UNL     1      -2.038  -3.361  -0.893  0.00  0.00    +0.022 C 
ENDBRANCH  14  24
ENDBRANCH   1  14
BRANCH   1  31
ATOM     30  C   UNL     1      -1.535   1.712  -2.114  0.00  0.00    +0.015 C 
ATOM     31  C   UNL     1      -1.700   0.331  -1.476  0.00  0.00    +0.045 C 
BRANCH  31  32
ATOM     32  C   UNL     1      -0.895   0.266  -0.204  0.00  0.00    -0.042 A 
ATOM     33  C   UNL     1      -1.226   1.077   0.865  0.00  0.00    +0.004 A 
ATOM     34  C   UNL     1      -0.488   1.018   2.032  0.00  0.00    +0.000 A 
ATOM     35  C   UNL     1       0.580   0.146   2.131  0.00  0.00    +0.000 A 
ATOM     36  C   UNL     1       0.910  -0.666   1.062  0.00  0.00    +0.000 A 
ATOM     37  C   UNL     1       0.170  -0.610  -0.103  0.00  0.00    +0.004 A 
ENDBRANCH  31  32
ENDBRANCH   1  31
TORSDOF 9
