REMARK  Name = ZINC59747034
REMARK  10 active torsions:
REMARK  status: ('A' for Active; 'I' for Inactive)
REMARK    1  A    between atoms: C_1  and  C_2
REMARK    2  A    between atoms: C_3  and  N_26
REMARK    3  A    between atoms: C_5  and  S_9
REMARK    4  A    between atoms: S_9  and  N_12
REMARK    5  A    between atoms: N_12  and  C_13
REMARK    6  A    between atoms: C_13  and  C_14
REMARK    7  A    between atoms: C_14  and  C_16
REMARK    8  A    between atoms: C_14  and  N_23
REMARK    9  A    between atoms: N_23  and  C_24
REMARK   10  A    between atoms: N_23  and  C_25
REMARK                            x       y       z     vdW  Elec       q    Type
REMARK                         _______ _______ _______ _____ _____    ______ ____
ROOT
ATOM      1  N   UNL     1       2.161  -5.234   0.014  0.00  0.00    -0.191 NA
ATOM      2  H   UNL     1       2.554  -5.678  -0.753  0.00  0.00    +0.148 HD
ENDROOT
BRANCH   1   3
ATOM      3  S   UNL     1       0.526  -4.975   0.072  0.00  0.00    +0.058 S 
ATOM      4  O   UNL     1       0.088  -5.427   1.346  0.00  0.00    -0.153 OA
ATOM      5  O   UNL     1      -0.009  -5.483  -1.142  0.00  0.00    -0.153 OA
BRANCH   3  10
ATOM      6  C   UNL     1      -0.339   0.997  -0.031  0.00  0.00    +0.047 C 
ATOM      7  C   UNL     1      -0.122  -0.495  -0.005  0.00  0.00    -0.002 A 
ATOM      8  C   UNL     1      -0.069  -1.206  -1.189  0.00  0.00    +0.132 A 
ATOM      9  C   UNL     1       0.129  -2.574  -1.165  0.00  0.00    +0.061 A 
ATOM     10  C   UNL     1       0.275  -3.231   0.043  0.00  0.00    +0.109 A 
ATOM     11  C   UNL     1       0.222  -2.521   1.227  0.00  0.00    +0.049 A 
ATOM     12  C   UNL     1       0.029  -1.151   1.204  0.00  0.00    +0.048 A 
ATOM     13 CL   UNL     1      -0.029  -0.256   2.691  0.00  0.00    -0.083 Cl
BRANCH   8  14
ATOM     14  N   UNL     1      -0.225  -0.504  -2.482  0.00  0.00    +0.057 N 
ATOM     15  O   UNL     1      -0.844  -1.024  -3.381  0.00  0.00    -0.126 OA
ATOM     16  O   UNL     1       0.265   0.590  -2.639  0.00  0.00    -0.126 OA
ENDBRANCH   8  14
ENDBRANCH   3  10
ENDBRANCH   1   3
BRANCH   1  17
ATOM     17  C   UNL     1       3.012  -4.794   1.122  0.00  0.00    +0.095 C 
BRANCH  17  18
ATOM     18  C   UNL     1       4.366  -5.503   1.038  0.00  0.00    -0.023 C 
BRANCH  18  19
ATOM     19  C   UNL     1       4.169  -6.985   1.229  0.00  0.00    -0.060 A 
ATOM     20  C   UNL     1       4.009  -7.503   2.501  0.00  0.00    +0.005 A 
ATOM     21  C   UNL     1       3.828  -8.861   2.677  0.00  0.00    +0.038 A 
ATOM     22  C   UNL     1       3.807  -9.704   1.579  0.00  0.00    +0.123 A 
ATOM     23  C   UNL     1       3.967  -9.185   0.306  0.00  0.00    +0.038 A 
ATOM     24  C   UNL     1       4.143  -7.825   0.132  0.00  0.00    +0.005 A 
ATOM     25  F   UNL     1       3.630 -11.033   1.750  0.00  0.00    -0.205 F 
ENDBRANCH  18  19
BRANCH  18  26
ATOM     26  N   UNL     1       5.254  -4.988   2.089  0.00  0.00    +0.381 N 
ATOM     27  C   UNL     1       6.577  -5.614   1.961  0.00  0.00    -0.096 C 
ATOM     28  C   UNL     1       5.386  -3.532   1.948  0.00  0.00    -0.096 C 
ATOM     29  H   UNL     1       4.866  -5.205   2.994  0.00  0.00    -0.082 HD
ENDBRANCH  18  26
ENDBRANCH  17  18
ENDBRANCH   1  17
TORSDOF 7
