REMARK  Name = ZINC64604190
REMARK  9 active torsions:
REMARK  status: ('A' for Active; 'I' for Inactive)
REMARK    1  A    between atoms: C_1  and  C_2
REMARK    2  A    between atoms: C_2  and  C_3
REMARK    3  A    between atoms: C_9  and  C_11
REMARK    4  A    between atoms: C_11  and  C_12
REMARK    5  A    between atoms: C_12  and  C_13
REMARK    6  A    between atoms: C_15  and  C_18
REMARK    7  A    between atoms: C_18  and  S_19
REMARK    8  A    between atoms: S_19  and  C_20
REMARK    9  A    between atoms: C_26  and  C_30
REMARK                            x       y       z     vdW  Elec       q    Type
REMARK                         _______ _______ _______ _____ _____    ______ ____
ROOT
ATOM      1  C   UNL     1       4.669  -3.390   8.409  0.00  0.00    +0.228 A 
ATOM      2  N   UNL     1       5.381  -2.631   9.194  0.00  0.00    -0.195 NA
ATOM      3  C   UNL     1       6.262  -3.373   9.876  0.00  0.00    +0.182 A 
ATOM      4  N   UNL     1       6.120  -4.620   9.530  0.00  0.00    -0.060 NA
ATOM      5  O   UNL     1       5.074  -4.657   8.570  0.00  0.00    -0.338 OA
ENDROOT
BRANCH   1   6
ATOM      6  C   UNL     1       3.575  -2.924   7.483  0.00  0.00    +0.108 C 
BRANCH   6   7
ATOM      7  C   UNL     1       4.172  -2.591   6.115  0.00  0.00    +0.105 C 
BRANCH   7  14
ATOM      8  C   UNL     1       0.731  -0.503   1.223  0.00  0.00    +0.103 A 
ATOM      9  N   UNL     1       0.268  -0.803   2.420  0.00  0.00    -0.145 NA
ATOM     10  N   UNL     1       1.072  -1.211   3.306  0.00  0.00    -0.126 NA
ATOM     11  C   UNL     1       2.362  -1.344   3.067  0.00  0.00    +0.188 A 
ATOM     12  S   UNL     1       2.466  -0.863   1.455  0.00  0.00    -0.035 S 
ATOM     13  N   UNL     1       3.372  -1.774   3.921  0.00  0.00    -0.263 N 
ATOM     14  C   UNL     1       3.078  -2.125   5.189  0.00  0.00    +0.219 C 
ATOM     15  O   UNL     1       1.933  -2.065   5.585  0.00  0.00    -0.275 OA
ATOM     16  H   UNL     1       4.287  -1.823   3.604  0.00  0.00    +0.157 HD
BRANCH   8  18
ATOM     17  C   UNL     1      -0.019   1.526   0.010  0.00  0.00    +0.011 C 
ATOM     18  C   UNL     1       0.002  -0.004   0.002  0.00  0.00    +0.061 C 
ENDBRANCH   8  18
ENDBRANCH   7  14
ENDBRANCH   6   7
ENDBRANCH   1   6
BRANCH   3  19
ATOM     19  C   UNL     1       7.256  -2.850  10.880  0.00  0.00    +0.152 C 
BRANCH  19  20
ATOM     20  S   UNL     1       6.508  -2.855  12.532  0.00  0.00    -0.107 S 
BRANCH  20  21
ATOM     21  C   UNL     1       7.816  -2.207  13.609  0.00  0.00    +0.236 C 
ATOM     22  N   UNL     1       9.017  -3.043  13.502  0.00  0.00    -0.355 N 
ATOM     23  C   UNL     1       9.981  -2.288  13.061  0.00  0.00    +0.061 A 
ATOM     24  C   UNL     1      11.395  -2.549  12.755  0.00  0.00    +0.028 A 
ATOM     25  C   UNL     1      12.173  -1.546  12.301  0.00  0.00    +0.005 A 
ATOM     26  C   UNL     1      11.689  -0.240  12.104  0.00  0.00    -0.048 A 
ATOM     27  C   UNL     1      10.410   0.106  12.354  0.00  0.00    +0.030 A 
ATOM     28  C   UNL     1       9.469  -0.906  12.852  0.00  0.00    +0.061 A 
ATOM     29  N   UNL     1       8.207  -0.860  13.172  0.00  0.00    -0.355 N 
ATOM     30  C   UNL     1      12.637   0.814  11.593  0.00  0.00    +0.044 C 
ATOM     31  H   UNL     1       9.081  -3.986  13.720  0.00  0.00    +0.162 HD
ATOM     32  H   UNL     1       7.631  -0.081  13.129  0.00  0.00    +0.162 HD
ENDBRANCH  20  21
ENDBRANCH  19  20
ENDBRANCH   3  19
TORSDOF 7
