REMARK  Name = ZINC40570296
REMARK  12 active torsions:
REMARK  status: ('A' for Active; 'I' for Inactive)
REMARK    1  A    between atoms: C_1  and  C_2
REMARK    2  A    between atoms: C_2  and  C_3
REMARK    3  A    between atoms: C_2  and  O_4
REMARK    4  A    between atoms: O_4  and  C_5
REMARK    5  A    between atoms: C_5  and  C_7
REMARK    6  A    between atoms: C_8  and  N_31
REMARK    7  A    between atoms: C_10  and  C_21
REMARK    8  A    between atoms: N_18  and  C_20
REMARK    9  A    between atoms: C_23  and  O_29
REMARK   10  A    between atoms: C_26  and  O_27
REMARK   11  A    between atoms: O_27  and  C_28
REMARK   12  A    between atoms: O_29  and  C_30
REMARK                            x       y       z     vdW  Elec       q    Type
REMARK                         _______ _______ _______ _____ _____    ______ ____
ROOT
ATOM      1  C   UNL     1       0.573  -1.167   3.449  0.00  0.00    +0.119 A 
ATOM      2  C   UNL     1      -0.011  -1.453   4.666  0.00  0.00    +0.056 A 
ATOM      3  C   UNL     1       0.839  -1.927   5.744  0.00  0.00    +0.037 A 
ATOM      4  C   UNL     1       0.477  -2.283   7.077  0.00  0.00    +0.000 A 
ATOM      5  C   UNL     1       1.467  -2.717   7.956  0.00  0.00    -0.034 A 
ATOM      6  C   UNL     1       2.778  -2.800   7.530  0.00  0.00    +0.043 A 
ATOM      7  N   UNL     1       3.101  -2.465   6.291  0.00  0.00    -0.244 NA
ATOM      8  C   UNL     1       2.208  -2.048   5.421  0.00  0.00    +0.112 A 
ATOM      9  S   UNL     1       2.295  -1.538   3.723  0.00  0.00    -0.060 S 
ATOM     10  C   UNL     1       3.873  -3.274   8.453  0.00  0.00    +0.037 C 
ATOM     11  C   UNL     1       3.389  -3.218   9.902  0.00  0.00    -0.073 C 
ATOM     12  N   UNL     1       2.096  -3.913   9.992  0.00  0.00    +0.381 N 
ATOM     13  C   UNL     1       1.065  -3.085   9.360  0.00  0.00    -0.041 C 
ATOM     14  C   UNL     1       1.753  -4.133  11.403  0.00  0.00    -0.096 C 
ATOM     15  H   UNL     1       2.156  -4.800   9.515  0.00  0.00    -0.082 HD
ENDROOT
BRANCH   4  16
ATOM     16  C   UNL     1      -0.932  -2.191   7.521  0.00  0.00    +0.028 A 
ATOM     17  C   UNL     1      -1.783  -3.287   7.381  0.00  0.00    +0.057 A 
ATOM     18  C   UNL     1      -3.099  -3.195   7.799  0.00  0.00    +0.121 A 
ATOM     19  C   UNL     1      -3.574  -2.014   8.355  0.00  0.00    +0.049 A 
ATOM     20  C   UNL     1      -2.736  -0.925   8.495  0.00  0.00    +0.050 A 
ATOM     21  C   UNL     1      -1.415  -1.006   8.087  0.00  0.00    +0.128 A 
BRANCH  21  22
ATOM     22  O   UNL     1      -0.591   0.065   8.231  0.00  0.00    -0.494 OA
ATOM     23  C   UNL     1      -1.152   1.241   8.817  0.00  0.00    +0.277 C 
ENDBRANCH  21  22
BRANCH  18  24
ATOM     24  O   UNL     1      -3.929  -4.263   7.664  0.00  0.00    -0.495 OA
ATOM     25  C   UNL     1      -5.275  -4.100   8.115  0.00  0.00    +0.277 C 
ENDBRANCH  18  24
ENDBRANCH   4  16
BRANCH   2  26
ATOM     26  N   UNL     1      -1.376  -1.291   4.856  0.00  0.00    -0.356 N 
ATOM     27  H   UNL     1      -1.933  -0.974   4.127  0.00  0.00    +0.142 HD
ATOM     28  H   UNL     1      -1.774  -1.496   5.716  0.00  0.00    +0.142 HD
ENDBRANCH   2  26
BRANCH   1  29
ATOM     29  C   UNL     1      -0.046  -0.698   2.268  0.00  0.00    +0.348 C 
ATOM     30  O   UNL     1      -1.246  -0.493   2.249  0.00  0.00    -0.244 OA
BRANCH  29  31
ATOM     31  O   UNL     1       0.693  -0.477   1.160  0.00  0.00    -0.458 OA
BRANCH  31  33
ATOM     32  C   UNL     1      -0.019   1.526   0.010  0.00  0.00    +0.052 C 
ATOM     33  C   UNL     1       0.002  -0.004   0.002  0.00  0.00    +0.171 C 
ATOM     34  C   UNL     1       0.718  -0.497  -1.257  0.00  0.00    +0.052 C 
ENDBRANCH  31  33
ENDBRANCH  29  31
ENDBRANCH   1  29
TORSDOF 7
