REMARK  Name = ZINC14546712
REMARK  7 active torsions:
REMARK  status: ('A' for Active; 'I' for Inactive)
REMARK    1  A    between atoms: C_1  and  C_2
REMARK    2  A    between atoms: C_2  and  O_3
REMARK    3  A    between atoms: O_3  and  C_4
REMARK    4  A    between atoms: C_7  and  N_10
REMARK    5  A    between atoms: N_10  and  S_11
REMARK    6  A    between atoms: S_11  and  C_14
REMARK    7  A    between atoms: C_27  and  C_30
REMARK                            x       y       z     vdW  Elec       q    Type
REMARK                         _______ _______ _______ _____ _____    ______ ____
ROOT
ATOM      1  C   UNL     1       3.336  -0.170   0.428  0.00  0.00    +0.109 A 
ATOM      2  C   UNL     1       2.623   1.001   0.245  0.00  0.00    +0.030 A 
ATOM      3  C   UNL     1       1.279   0.954  -0.064  0.00  0.00    +0.025 A 
ATOM      4  C   UNL     1       0.632  -0.269  -0.194  0.00  0.00    +0.031 A 
ATOM      5  C   UNL     1       1.363  -1.450  -0.021  0.00  0.00    -0.018 A 
ATOM      6  C   UNL     1       2.703  -1.392   0.295  0.00  0.00    +0.034 A 
ATOM      7  C   UNL     1       0.646  -2.729  -0.213  0.00  0.00    +0.049 C 
ATOM      8  C   UNL     1       1.090  -3.985   0.444  0.00  0.00    -0.023 C 
ATOM      9  C   UNL     1       0.023  -4.741   0.676  0.00  0.00    -0.030 C 
ATOM     10  C   UNL     1      -1.242  -4.017   0.211  0.00  0.00    +0.033 C 
ATOM     11  C   UNL     1      -0.810  -2.548   0.309  0.00  0.00    +0.029 C 
ATOM     12  C   UNL     1      -1.465  -1.569  -0.649  0.00  0.00    +0.108 C 
ATOM     13  N   UNL     1      -0.740  -0.292  -0.474  0.00  0.00    -0.336 N 
ATOM     14  H   UNL     1      -1.223   0.545  -0.555  0.00  0.00    +0.147 HD
ENDROOT
BRANCH  12  15
ATOM     15  C   UNL     1      -1.325  -2.057  -2.068  0.00  0.00    +0.010 A 
ATOM     16  C   UNL     1      -0.424  -1.448  -2.923  0.00  0.00    +0.047 A 
ATOM     17  C   UNL     1      -0.291  -1.901  -4.224  0.00  0.00    +0.020 A 
ATOM     18  C   UNL     1      -1.067  -2.953  -4.673  0.00  0.00    +0.003 A 
ATOM     19  C   UNL     1      -1.972  -3.558  -3.820  0.00  0.00    +0.020 A 
ATOM     20  C   UNL     1      -2.101  -3.110  -2.517  0.00  0.00    +0.047 A 
ATOM     21 CL   UNL     1      -3.236  -3.870  -1.447  0.00  0.00    -0.083 Cl
ATOM     22 CL   UNL     1       0.545  -0.122  -2.362  0.00  0.00    -0.083 Cl
ENDBRANCH  12  15
BRANCH   1  23
ATOM     23  S   UNL     1       5.049  -0.104   0.833  0.00  0.00    +0.072 S 
ATOM     24  O   UNL     1       5.299   1.202   1.334  0.00  0.00    -0.150 OA
ATOM     25  O   UNL     1       5.334  -1.276   1.584  0.00  0.00    -0.150 OA
BRANCH  23  26
ATOM     26  N   UNL     1       5.893  -0.236  -0.587  0.00  0.00    -0.216 N 
ATOM     27  H   UNL     1       6.470   0.488  -0.876  0.00  0.00    +0.174 HD
BRANCH  26  31
ATOM     28  C   UNL     1       5.535  -3.676  -2.913  0.00  0.00    +0.121 A 
ATOM     29  C   UNL     1       5.461  -2.426  -3.509  0.00  0.00    +0.047 A 
ATOM     30  C   UNL     1       5.580  -1.285  -2.739  0.00  0.00    +0.028 A 
ATOM     31  C   UNL     1       5.772  -1.391  -1.368  0.00  0.00    +0.048 A 
ATOM     32  C   UNL     1       5.851  -2.643  -0.773  0.00  0.00    +0.028 A 
ATOM     33  C   UNL     1       5.727  -3.782  -1.544  0.00  0.00    +0.047 A 
BRANCH  28  34
ATOM     34  O   UNL     1       5.419  -4.798  -3.672  0.00  0.00    -0.492 OA
BRANCH  34  36
ATOM     35  C   UNL     1       5.353  -7.191  -4.003  0.00  0.00    +0.048 C 
ATOM     36  C   UNL     1       5.504  -6.053  -2.993  0.00  0.00    +0.225 C 
ENDBRANCH  34  36
ENDBRANCH  28  34
ENDBRANCH  26  31
ENDBRANCH  23  26
ENDBRANCH   1  23
TORSDOF 6
