REMARK  Name = ZINC09599761
REMARK  7 active torsions:
REMARK  status: ('A' for Active; 'I' for Inactive)
REMARK    1  A    between atoms: C_1  and  C_2
REMARK    2  A    between atoms: N_8  and  S_9
REMARK    3  A    between atoms: S_9  and  C_12
REMARK    4  A    between atoms: C_15  and  C_18
REMARK    5  A    between atoms: N_20  and  C_21
REMARK    6  A    between atoms: C_22  and  C_31
REMARK    7  A    between atoms: N_33  and  C_34
REMARK                            x       y       z     vdW  Elec       q    Type
REMARK                         _______ _______ _______ _____ _____    ______ ____
ROOT
ATOM      1  C   UNL     1       8.171  -0.670   1.068  0.00  0.00    +0.249 C 
ATOM      2  O   UNL     1       8.824  -0.038   0.261  0.00  0.00    -0.270 OA
ATOM      3  N   UNL     1       6.903  -0.305   1.343  0.00  0.00    -0.275 N 
ATOM      4  H   UNL     1       6.382  -0.809   1.987  0.00  0.00    +0.156 HD
ENDROOT
BRANCH   3   5
ATOM      5  C   UNL     1       6.345   0.792   0.707  0.00  0.00    +0.085 A 
ATOM      6  C   UNL     1       5.071   1.318   0.856  0.00  0.00    +0.069 A 
ATOM      7  C   UNL     1       4.726   2.492   0.065  0.00  0.00    -0.023 A 
ATOM      8  C   UNL     1       5.707   2.939  -0.748  0.00  0.00    -0.004 A 
ATOM      9  S   UNL     1       7.068   1.839  -0.467  0.00  0.00    -0.077 S 
ATOM     10  C   UNL     1       5.655   4.098  -1.694  0.00  0.00    +0.043 C 
ATOM     11  C   UNL     1       5.089   5.323  -0.964  0.00  0.00    +0.005 C 
ATOM     12  C   UNL     1       3.571   5.317  -1.117  0.00  0.00    +0.001 C 
ATOM     13  C   UNL     1       3.052   3.882  -1.158  0.00  0.00    +0.005 C 
ATOM     14  C   UNL     1       3.362   3.165   0.151  0.00  0.00    +0.037 C 
BRANCH   6  15
ATOM     15  C   UNL     1       4.103   0.714   1.777  0.00  0.00    +0.246 C 
ATOM     16  O   UNL     1       3.354  -0.161   1.385  0.00  0.00    -0.270 OA
ATOM     17  N   UNL     1       4.044   1.127   3.058  0.00  0.00    -0.314 N 
ATOM     18  C   UNL     1       3.078   0.523   3.979  0.00  0.00    +0.128 C 
ATOM     19  H   UNL     1       4.641   1.825   3.371  0.00  0.00    +0.149 HD
ENDBRANCH   6  15
ENDBRANCH   3   5
BRANCH   1  23
ATOM     20  C   UNL     1       9.883  -4.032   3.019  0.00  0.00    +0.106 A 
ATOM     21  C   UNL     1      10.629  -3.315   2.100  0.00  0.00    +0.029 A 
ATOM     22  C   UNL     1      10.079  -2.222   1.463  0.00  0.00    +0.015 A 
ATOM     23  C   UNL     1       8.766  -1.840   1.746  0.00  0.00    +0.037 A 
ATOM     24  C   UNL     1       8.021  -2.565   2.678  0.00  0.00    +0.015 A 
ATOM     25  C   UNL     1       8.581  -3.660   3.304  0.00  0.00    +0.029 A 
BRANCH  20  26
ATOM     26  S   UNL     1      10.594  -5.426   3.828  0.00  0.00    +0.061 S 
ATOM     27  O   UNL     1       9.512  -6.254   4.236  0.00  0.00    -0.153 OA
ATOM     28  O   UNL     1      11.637  -5.896   2.986  0.00  0.00    -0.153 OA
BRANCH  26  35
ATOM     29  C   UNL     1      13.271  -4.510   3.783  0.00  0.00    +0.026 C 
ATOM     30  C   UNL     1      12.674  -4.318   5.178  0.00  0.00    +0.077 C 
ATOM     31  C   UNL     1      13.536  -5.049   6.207  0.00  0.00    +0.020 C 
ATOM     32  C   UNL     1      12.862  -4.976   7.578  0.00  0.00    +0.003 C 
ATOM     33  C   UNL     1      11.496  -5.664   7.514  0.00  0.00    +0.017 C 
ATOM     34  C   UNL     1      10.609  -4.935   6.500  0.00  0.00    +0.110 C 
ATOM     35  N   UNL     1      11.315  -4.874   5.213  0.00  0.00    -0.174 NA
ENDBRANCH  26  35
ENDBRANCH  20  26
ENDBRANCH   1  23
TORSDOF 5
