REMARK  Name = ZINC08588905
REMARK  16 active torsions:
REMARK  status: ('A' for Active; 'I' for Inactive)
REMARK    1  A    between atoms: C_1  and  C_2
REMARK    2  A    between atoms: C_2  and  C_3
REMARK    3  A    between atoms: C_3  and  C_4
REMARK    4  A    between atoms: C_4  and  N_5
REMARK    5  A    between atoms: N_5  and  C_6
REMARK    6  A    between atoms: N_5  and  C_10
REMARK    7  A    between atoms: C_6  and  C_7
REMARK    8  A    between atoms: C_7  and  C_8
REMARK    9  A    between atoms: C_8  and  C_9
REMARK   10  A    between atoms: C_10  and  C_11
REMARK   11  A    between atoms: C_11  and  C_12
REMARK   12  A    between atoms: C_12  and  N_13
REMARK   13  A    between atoms: C_14  and  C_16
REMARK   14  A    between atoms: C_16  and  N_17
REMARK   15  A    between atoms: C_23  and  C_36
REMARK   16  A    between atoms: C_24  and  C_29
REMARK                            x       y       z     vdW  Elec       q    Type
REMARK                         _______ _______ _______ _____ _____    ______ ____
ROOT
ATOM      1  N   UNL     1      -4.157  -8.974  -3.694  0.00  0.00    -0.262 N 
ATOM      2  C   UNL     1      -4.932  -9.788  -2.938  0.00  0.00    +0.113 A 
ATOM      3  C   UNL     1      -4.858 -11.023  -3.450  0.00  0.00    -0.002 A 
ATOM      4  C   UNL     1      -4.012 -10.959  -4.597  0.00  0.00    +0.099 A 
ATOM      5  N   UNL     1      -3.591  -9.742  -4.727  0.00  0.00    -0.170 NA
ATOM      6  C   UNL     1      -3.822 -12.193  -5.391  0.00  0.00    +0.047 A 
ATOM      7  C   UNL     1      -2.946 -12.541  -6.415  0.00  0.00    +0.009 A 
ATOM      8  C   UNL     1      -3.225 -13.843  -6.733  0.00  0.00    +0.193 A 
ATOM      9  O   UNL     1      -4.227 -14.273  -5.933  0.00  0.00    -0.454 OA
ATOM     10  C   UNL     1      -4.630 -13.281  -5.141  0.00  0.00    +0.116 A 
ATOM     11  C   UNL     1      -5.770 -13.248  -4.158  0.00  0.00    +0.080 C 
ATOM     12  C   UNL     1      -5.485 -12.310  -2.985  0.00  0.00    +0.046 C 
ATOM     13  C   UNL     1      -1.898 -11.661  -7.046  0.00  0.00    +0.048 C 
ENDROOT
BRANCH   8  14
ATOM     14  C   UNL     1      -2.552 -14.637  -7.767  0.00  0.00    +0.282 C 
ATOM     15  O   UNL     1      -1.659 -14.142  -8.429  0.00  0.00    -0.267 OA
ATOM     16  N   UNL     1      -2.923 -15.914  -7.983  0.00  0.00    -0.295 N 
ATOM     17  C   UNL     1      -3.986 -16.632  -7.264  0.00  0.00    +0.108 C 
ATOM     18  C   UNL     1      -4.034 -18.067  -7.830  0.00  0.00    +0.020 C 
ATOM     19  C   UNL     1      -2.620 -18.247  -8.442  0.00  0.00    +0.020 C 
ATOM     20  C   UNL     1      -2.334 -16.822  -8.985  0.00  0.00    +0.108 C 
ENDBRANCH   8  14
BRANCH   1  21
ATOM     21  C   UNL     1      -3.949  -7.541  -3.477  0.00  0.00    +0.239 C 
BRANCH  21  23
ATOM     22  N   UNL     1      -2.042  -5.995  -3.175  0.00  0.00    -0.314 N 
ATOM     23  C   UNL     1      -2.473  -7.256  -3.377  0.00  0.00    +0.234 C 
ATOM     24  O   UNL     1      -1.673  -8.162  -3.477  0.00  0.00    -0.274 OA
ATOM     25  H   UNL     1      -2.682  -5.271  -3.095  0.00  0.00    +0.149 HD
BRANCH  22  26
ATOM     26  C   UNL     1      -0.606  -5.719  -3.078  0.00  0.00    +0.102 C 
BRANCH  26  27
ATOM     27  C   UNL     1      -0.390  -4.221  -2.851  0.00  0.00    +0.000 C 
BRANCH  27  28
ATOM     28  C   UNL     1       1.109  -3.932  -2.749  0.00  0.00    -0.077 C 
BRANCH  28  29
ATOM     29  N   UNL     1       1.317  -2.495  -2.531  0.00  0.00    +0.380 N 
ATOM     30  H   UNL     1       0.856  -1.974  -3.261  0.00  0.00    -0.082 HD
BRANCH  29  31
ATOM     31  C   UNL     1       0.758  -2.111  -1.228  0.00  0.00    -0.079 C 
BRANCH  31  32
ATOM     32  C   UNL     1       0.846  -0.593  -1.062  0.00  0.00    -0.019 C 
BRANCH  32  34
ATOM     33  C   UNL     1       0.232   1.339   0.399  0.00  0.00    +0.004 C 
ATOM     34  C   UNL     1       0.144  -0.179   0.234  0.00  0.00    -0.005 C 
ENDBRANCH  32  34
ENDBRANCH  31  32
ENDBRANCH  29  31
BRANCH  29  35
ATOM     35  C   UNL     1       2.756  -2.199  -2.552  0.00  0.00    -0.079 C 
BRANCH  35  36
ATOM     36  C   UNL     1       3.310  -2.463  -3.954  0.00  0.00    -0.019 C 
BRANCH  36  37
ATOM     37  C   UNL     1       4.776  -2.030  -4.013  0.00  0.00    -0.005 C 
ATOM     38  C   UNL     1       5.330  -2.294  -5.414  0.00  0.00    +0.004 C 
ENDBRANCH  36  37
ENDBRANCH  35  36
ENDBRANCH  29  35
ENDBRANCH  28  29
ENDBRANCH  27  28
ENDBRANCH  26  27
ENDBRANCH  22  26
ENDBRANCH  21  23
ENDBRANCH   1  21
TORSDOF 13
