REMARK  Name = ZINC40161635
REMARK  3 active torsions:
REMARK  status: ('A' for Active; 'I' for Inactive)
REMARK    1  A    between atoms: C_1  and  N_2
REMARK    2  A    between atoms: N_2  and  C_3
REMARK    3  A    between atoms: C_9  and  C_11
REMARK                            x       y       z     vdW  Elec       q    Type
REMARK                         _______ _______ _______ _____ _____    ______ ____
ROOT
ATOM      1  C   UNL     1      -0.018   1.461   0.010  0.00  0.00    +0.132 C 
ATOM      2  N   UNL     1       0.002  -0.004   0.002  0.00  0.00    -0.301 N 
ATOM      3  C   UNL     1       0.000  -0.672  -1.169  0.00  0.00    +0.219 C 
ATOM      4  O   UNL     1       0.017  -1.884  -1.175  0.00  0.00    -0.275 OA
ENDROOT
BRANCH   2   5
ATOM      5  C   UNL     1       0.024  -0.743   1.267  0.00  0.00    +0.076 C 
ATOM      6  C   UNL     1      -1.222  -0.395   2.083  0.00  0.00    +0.022 C 
ATOM      7  C   UNL     1      -1.199  -1.167   3.404  0.00  0.00    +0.002 C 
ATOM      8  C   UNL     1       0.052  -0.785   4.196  0.00  0.00    +0.000 C 
ATOM      9  C   UNL     1       1.299  -1.133   3.380  0.00  0.00    +0.002 C 
ATOM     10  C   UNL     1       1.276  -0.361   2.059  0.00  0.00    +0.022 C 
ENDBRANCH   2   5
BRANCH   3  11
ATOM     11  C   UNL     1      -0.023   0.089  -2.470  0.00  0.00    +0.075 C 
ATOM     12  C   UNL     1       1.364   0.577  -2.922  0.00  0.00    +0.013 C 
ATOM     13  C   UNL     1       1.514  -0.769  -3.650  0.00  0.00    +0.001 C 
ATOM     14  C   UNL     1      -0.022  -0.817  -3.713  0.00  0.00    +0.013 C 
ENDBRANCH   3  11
TORSDOF 2
