REMARK  Name = ZINC61538465
REMARK  2 active torsions:
REMARK  status: ('A' for Active; 'I' for Inactive)
REMARK    1  A    between atoms: C_3  and  C_20
REMARK    2  A    between atoms: C_20  and  O_21
REMARK                            x       y       z     vdW  Elec       q    Type
REMARK                         _______ _______ _______ _____ _____    ______ ____
ROOT
ATOM      1  C   UNL     1      -0.019   1.545   0.011  0.00  0.00    +0.021 C 
ATOM      2  C   UNL     1       1.497   1.877  -0.002  0.00  0.00    +0.026 C 
ATOM      3  C   UNL     1       2.105   0.750   0.860  0.00  0.00    +0.102 C 
ATOM      4  N   UNL     1       1.153  -0.370   0.847  0.00  0.00    -0.294 N 
ATOM      5  C   UNL     1       0.002  -0.004   0.002  0.00  0.00    +0.108 C 
ATOM      6  C   UNL     1       1.312  -1.568   1.515  0.00  0.00    +0.224 A 
ATOM      7  N   UNL     1       0.380  -2.510   1.421  0.00  0.00    -0.181 NA
ATOM      8  C   UNL     1       0.537  -3.662   2.065  0.00  0.00    +0.223 A 
ATOM      9  N   UNL     1       1.626  -3.868   2.801  0.00  0.00    -0.184 NA
ATOM     10  C   UNL     1       2.552  -2.927   2.893  0.00  0.00    +0.229 A 
ATOM     11  N   UNL     1       2.401  -1.782   2.249  0.00  0.00    -0.184 NA
ATOM     12 CL   UNL     1       3.971  -3.200   3.856  0.00  0.00    -0.041 Cl
ATOM     13  N   UNL     1      -0.429  -4.643   1.970  0.00  0.00    -0.295 N 
ATOM     14  C   UNL     1      -1.638  -4.440   1.157  0.00  0.00    +0.136 C 
ATOM     15  C   UNL     1      -1.807  -5.649   0.230  0.00  0.00    +0.179 C 
ATOM     16  O   UNL     1      -1.758  -6.848   1.007  0.00  0.00    -0.377 OA
ATOM     17  C   UNL     1      -0.514  -7.061   1.678  0.00  0.00    +0.179 C 
ATOM     18  C   UNL     1      -0.277  -5.926   2.675  0.00  0.00    +0.136 C 
ENDROOT
BRANCH   3  19
ATOM     19  C   UNL     1       3.444   0.307   0.267  0.00  0.00    +0.178 C 
BRANCH  19  20
ATOM     20  O   UNL     1       4.054  -0.652   1.133  0.00  0.00    -0.393 OA
ATOM     21  H   UNL     1       4.908  -0.978   0.819  0.00  0.00    +0.209 HD
ENDBRANCH  19  20
ENDBRANCH   3  19
TORSDOF 2
