REMARK  Name = ZINC08837921
REMARK  3 active torsions:
REMARK  status: ('A' for Active; 'I' for Inactive)
REMARK    1  A    between atoms: C_12  and  C_32
REMARK    2  A    between atoms: N_20  and  C_23
REMARK    3  A    between atoms: C_26  and  N_29
REMARK                            x       y       z     vdW  Elec       q    Type
REMARK                         _______ _______ _______ _____ _____    ______ ____
ROOT
ATOM      1  C   UNL     1      -4.021   1.334  -3.293  0.00  0.00    +0.001 A 
ATOM      2  C   UNL     1      -3.896   0.709  -2.064  0.00  0.00    +0.002 A 
ATOM      3  C   UNL     1      -2.705   0.775  -1.362  0.00  0.00    +0.024 A 
ATOM      4  C   UNL     1      -1.634   1.465  -1.885  0.00  0.00    +0.038 A 
ATOM      5  C   UNL     1      -1.754   2.096  -3.152  0.00  0.00    -0.004 A 
ATOM      6  C   UNL     1      -2.956   2.024  -3.839  0.00  0.00    +0.010 A 
ATOM      7  C   UNL     1      -0.579   2.812  -3.698  0.00  0.00    +0.007 C 
ATOM      8  C   UNL     1       0.651   2.482  -3.256  0.00  0.00    -0.003 C 
ATOM      9  C   UNL     1       0.678   1.354  -2.260  0.00  0.00    +0.110 C 
ATOM     10  N   UNL     1      -0.429   1.639  -1.293  0.00  0.00    -0.310 N 
ATOM     11  C   UNL     1      -0.013   1.086   0.008  0.00  0.00    +0.177 C 
ATOM     12  C   UNL     1       1.354   1.659  -0.002  0.00  0.00    +0.119 C 
ATOM     13  C   UNL     1       1.930   1.214  -1.414  0.00  0.00    +0.114 C 
ATOM     14  C   UNL     1       2.994   2.289  -1.435  0.00  0.00    +0.232 C 
ATOM     15  O   UNL     1       3.353   2.963  -2.376  0.00  0.00    -0.274 OA
ATOM     16  N   UNL     1       3.462   2.325  -0.144  0.00  0.00    -0.210 N 
ATOM     17  C   UNL     1       2.567   1.790   0.757  0.00  0.00    +0.232 C 
ATOM     18  O   UNL     1       2.758   1.497   1.918  0.00  0.00    -0.274 OA
ENDROOT
BRANCH  11  19
ATOM     19  C   UNL     1      -0.843   1.625   1.144  0.00  0.00    +0.270 C 
ATOM     20  O   UNL     1      -1.632   2.518   0.945  0.00  0.00    -0.269 OA
ATOM     21  N   UNL     1      -0.705   1.112   2.383  0.00  0.00    -0.178 N 
ATOM     22  C   UNL     1      -1.389   1.498   3.518  0.00  0.00    +0.098 A 
ATOM     23  C   UNL     1      -2.365   2.451   3.779  0.00  0.00    +0.030 A 
ATOM     24  C   UNL     1      -2.857   2.591   5.059  0.00  0.00    +0.002 A 
ATOM     25  C   UNL     1      -2.384   1.786   6.086  0.00  0.00    +0.002 A 
ATOM     26  C   UNL     1      -1.425   0.844   5.849  0.00  0.00    +0.032 A 
ATOM     27  C   UNL     1      -0.910   0.682   4.557  0.00  0.00    +0.113 A 
ATOM     28  N   UNL     1       0.024  -0.147   4.030  0.00  0.00    -0.129 NA
ATOM     29  N   UNL     1       0.158   0.076   2.770  0.00  0.00    -0.057 NA
ENDBRANCH  11  19
BRANCH  16  30
ATOM     30  C   UNL     1       4.711   2.849   0.217  0.00  0.00    +0.044 A 
ATOM     31  C   UNL     1       5.105   2.853   1.549  0.00  0.00    +0.026 A 
ATOM     32  C   UNL     1       6.339   3.365   1.901  0.00  0.00    +0.034 A 
ATOM     33  C   UNL     1       7.176   3.883   0.930  0.00  0.00    +0.126 A 
ATOM     34  C   UNL     1       6.784   3.887  -0.396  0.00  0.00    +0.034 A 
ATOM     35  C   UNL     1       5.554   3.371  -0.754  0.00  0.00    +0.026 A 
BRANCH  33  36
ATOM     36  N   UNL     1       8.496   4.436   1.312  0.00  0.00    +0.056 N 
ATOM     37  O   UNL     1       9.234   4.893   0.458  0.00  0.00    -0.126 OA
ATOM     38  O   UNL     1       8.842   4.434   2.479  0.00  0.00    -0.126 OA
ENDBRANCH  33  36
ENDBRANCH  16  30
TORSDOF 3
