REMARK  Name = ZINC01424302
REMARK  10 active torsions:
REMARK  status: ('A' for Active; 'I' for Inactive)
REMARK    1  A    between atoms: C_1  and  C_2
REMARK    2  A    between atoms: C_3  and  C_13
REMARK    3  A    between atoms: C_13  and  C_14
REMARK    4  A    between atoms: C_14  and  N_15
REMARK    5  A    between atoms: N_15  and  S_16
REMARK    6  A    between atoms: S_16  and  C_19
REMARK    7  A    between atoms: C_21  and  O_28
REMARK    8  A    between atoms: C_24  and  O_25
REMARK    9  A    between atoms: O_25  and  C_26
REMARK   10  A    between atoms: O_28  and  C_29
REMARK                            x       y       z     vdW  Elec       q    Type
REMARK                         _______ _______ _______ _____ _____    ______ ____
ROOT
ATOM      1  N   UNL     1      -0.020   1.094   2.454  0.00  0.00    -0.190 NA
ATOM      2  H   UNL     1       0.633   0.382   2.371  0.00  0.00    +0.148 HD
ENDROOT
BRANCH   1   3
ATOM      3  S   UNL     1      -0.334   1.762   3.936  0.00  0.00    +0.062 S 
ATOM      4  O   UNL     1       0.479   1.069   4.874  0.00  0.00    -0.153 OA
ATOM      5  O   UNL     1      -0.272   3.171   3.768  0.00  0.00    -0.153 OA
BRANCH   3   6
ATOM      6  C   UNL     1      -2.006   1.376   4.338  0.00  0.00    +0.150 A 
ATOM      7  C   UNL     1      -2.287   0.557   5.415  0.00  0.00    +0.079 A 
ATOM      8  C   UNL     1      -3.602   0.254   5.731  0.00  0.00    +0.140 A 
ATOM      9  C   UNL     1      -4.637   0.773   4.966  0.00  0.00    +0.086 A 
ATOM     10  C   UNL     1      -4.356   1.592   3.889  0.00  0.00    +0.071 A 
ATOM     11  C   UNL     1      -3.040   1.899   3.576  0.00  0.00    +0.148 A 
ATOM     12 CL   UNL     1      -6.284   0.393   5.362  0.00  0.00    -0.080 Cl
BRANCH  11  13
ATOM     13  O   UNL     1      -2.764   2.709   2.519  0.00  0.00    -0.493 OA
ATOM     14  C   UNL     1      -3.878   3.212   1.779  0.00  0.00    +0.277 C 
ENDBRANCH  11  13
BRANCH   8  15
ATOM     15  O   UNL     1      -3.877  -0.553   6.791  0.00  0.00    -0.494 OA
ATOM     16  C   UNL     1      -2.763  -1.052   7.534  0.00  0.00    +0.277 C 
ENDBRANCH   8  15
ENDBRANCH   3   6
ENDBRANCH   1   3
BRANCH   1  17
ATOM     17  C   UNL     1      -0.729   1.579   1.267  0.00  0.00    +0.110 C 
BRANCH  17  18
ATOM     18  C   UNL     1      -0.013   1.086   0.008  0.00  0.00    +0.054 C 
BRANCH  18  21
ATOM     19  C   UNL     1      -2.308  -0.382  -1.478  0.00  0.00    +0.063 C 
ATOM     20  C   UNL     1      -1.735   0.957  -1.862  0.00  0.00    +0.017 A 
ATOM     21  C   UNL     1      -0.742   1.585  -1.213  0.00  0.00    -0.018 A 
ATOM     22  C   UNL     1      -0.496   2.844  -1.920  0.00  0.00    +0.004 A 
ATOM     23  C   UNL     1       0.394   3.904  -1.735  0.00  0.00    +0.025 A 
ATOM     24  C   UNL     1       0.372   4.967  -2.593  0.00  0.00    +0.019 A 
ATOM     25  C   UNL     1      -0.530   5.002  -3.649  0.00  0.00    +0.017 A 
ATOM     26  C   UNL     1      -1.417   3.967  -3.850  0.00  0.00    +0.027 A 
ATOM     27  C   UNL     1      -1.411   2.875  -2.988  0.00  0.00    +0.047 A 
ATOM     28  N   UNL     1      -2.151   1.716  -2.922  0.00  0.00    -0.358 N 
ATOM     29  H   UNL     1      -2.859   1.471  -3.538  0.00  0.00    +0.166 HD
ATOM     30 BR   UNL     1       1.579   6.401  -2.342  0.00  0.00    -0.050 Br
ENDBRANCH  18  21
ENDBRANCH  17  18
ENDBRANCH   1  17
TORSDOF 7
