REMARK  Name = ZINC15593653
REMARK  6 active torsions:
REMARK  status: ('A' for Active; 'I' for Inactive)
REMARK    1  A    between atoms: C_4  and  C_7
REMARK    2  A    between atoms: C_7  and  N_59
REMARK    3  A    between atoms: C_10  and  N_13
REMARK    4  A    between atoms: C_14  and  C_16
REMARK    5  A    between atoms: N_19  and  S_22
REMARK    6  A    between atoms: S_22  and  C_25
REMARK                            x       y       z     vdW  Elec       q    Type
REMARK                         _______ _______ _______ _____ _____    ______ ____
ROOT
ATOM      1  N   UNL     1      -1.836   4.946  -2.520  0.00  0.00    -0.314 N 
ATOM      2  C   UNL     1      -1.602   3.627  -2.375  0.00  0.00    +0.216 C 
ATOM      3  O   UNL     1      -1.958   2.850  -3.235  0.00  0.00    -0.276 OA
ATOM      4  H   UNL     1      -1.552   5.568  -1.832  0.00  0.00    +0.149 HD
ENDROOT
BRANCH   1   7
ATOM      5  C   UNL     1      -1.614   7.200  -5.162  0.00  0.00    -0.077 C 
ATOM      6  C   UNL     1      -1.504   5.692  -4.851  0.00  0.00    +0.002 C 
ATOM      7  C   UNL     1      -2.521   5.441  -3.717  0.00  0.00    +0.055 C 
ATOM      8  C   UNL     1      -3.159   6.819  -3.439  0.00  0.00    -0.056 C 
ATOM      9  N   UNL     1      -2.155   7.766  -3.921  0.00  0.00    +0.384 N 
ATOM     10  H   UNL     1      -1.407   7.869  -3.225  0.00  0.00    -0.081 HD
BRANCH   9  11
ATOM     11  C   UNL     1      -2.771   9.106  -4.182  0.00  0.00    -0.043 C 
BRANCH  11  15
ATOM     12  C   UNL     1      -6.382   8.536  -6.391  0.00  0.00    +0.000 A 
ATOM     13  C   UNL     1      -6.412   8.547  -5.009  0.00  0.00    +0.000 A 
ATOM     14  C   UNL     1      -5.243   8.731  -4.294  0.00  0.00    +0.002 A 
ATOM     15  C   UNL     1      -4.045   8.904  -4.962  0.00  0.00    -0.064 A 
ATOM     16  C   UNL     1      -4.016   8.899  -6.344  0.00  0.00    +0.002 A 
ATOM     17  C   UNL     1      -5.184   8.709  -7.058  0.00  0.00    +0.000 A 
ENDBRANCH  11  15
ENDBRANCH   9  11
ENDBRANCH   1   7
BRANCH   2  18
ATOM     18  C   UNL     1      -0.898   3.118  -1.144  0.00  0.00    +0.077 C 
ATOM     19  C   UNL     1      -0.759   1.596  -1.228  0.00  0.00    +0.030 C 
ATOM     20  C   UNL     1      -0.013   1.086   0.008  0.00  0.00    +0.110 C 
ATOM     21  N   UNL     1      -0.706   1.562   1.213  0.00  0.00    -0.176 NA
ATOM     22  C   UNL     1      -0.975   3.001   1.350  0.00  0.00    +0.110 C 
ATOM     23  C   UNL     1      -1.711   3.490   0.099  0.00  0.00    +0.030 C 
BRANCH  21  24
ATOM     24  S   UNL     1      -1.179   0.499   2.390  0.00  0.00    +0.062 S 
ATOM     25  O   UNL     1      -2.252   1.116   3.088  0.00  0.00    -0.153 OA
ATOM     26  O   UNL     1      -1.308  -0.770   1.764  0.00  0.00    -0.153 OA
BRANCH  24  27
ATOM     27  C   UNL     1       0.154   0.362   3.535  0.00  0.00    +0.125 A 
ATOM     28  C   UNL     1      -0.005   0.802   4.836  0.00  0.00    +0.050 A 
ATOM     29  C   UNL     1       1.042   0.695   5.734  0.00  0.00    +0.043 A 
ATOM     30  C   UNL     1       2.247   0.147   5.331  0.00  0.00    +0.021 A 
ATOM     31  C   UNL     1       2.405  -0.293   4.031  0.00  0.00    +0.023 A 
ATOM     32  C   UNL     1       1.357  -0.191   3.133  0.00  0.00    +0.067 A 
ATOM     33 CL   UNL     1       1.553  -0.750   1.502  0.00  0.00    -0.082 Cl
ATOM     34 CL   UNL     1       0.843   1.248   7.368  0.00  0.00    -0.083 Cl
ENDBRANCH  24  27
ENDBRANCH  21  24
ENDBRANCH   2  18
TORSDOF 6
