REMARK  Name = ZINC09428594
REMARK  7 active torsions:
REMARK  status: ('A' for Active; 'I' for Inactive)
REMARK    1  A    between atoms: C_1  and  C_2
REMARK    2  A    between atoms: C_2  and  C_3
REMARK    3  A    between atoms: C_3  and  C_4
REMARK    4  A    between atoms: C_4  and  O_5
REMARK    5  A    between atoms: O_5  and  C_6
REMARK    6  A    between atoms: C_6  and  C_8
REMARK    7  A    between atoms: C_9  and  N_29
REMARK                            x       y       z     vdW  Elec       q    Type
REMARK                         _______ _______ _______ _____ _____    ______ ____
ROOT
ATOM      1  C   UNL     1       0.228   5.974   1.275  0.00  0.00    +0.117 C 
ATOM      2  C   UNL     1       1.376   6.695   1.174  0.00  0.00    +0.195 C 
ATOM      3  O   UNL     1       1.987   6.870  -0.006  0.00  0.00    -0.446 OA
ATOM      4  C   UNL     1       1.302   6.716  -1.155  0.00  0.00    +0.115 C 
ATOM      5  C   UNL     1       0.159   6.005  -1.198  0.00  0.00    +0.057 C 
ATOM      6  C   UNL     1      -0.385   5.360   0.050  0.00  0.00    +0.141 C 
ATOM      7  C   UNL     1      -0.163   3.880   0.023  0.00  0.00    -0.001 A 
ATOM      8  C   UNL     1       0.994   3.132  -0.017  0.00  0.00    +0.022 A 
ATOM      9  C   UNL     1       0.851   1.748  -0.029  0.00  0.00    +0.018 A 
ATOM     10  C   UNL     1      -0.396   1.155  -0.004  0.00  0.00    +0.017 A 
ATOM     11  C   UNL     1      -1.564   1.901   0.030  0.00  0.00    +0.025 A 
ATOM     12  C   UNL     1      -1.433   3.291   0.050  0.00  0.00    +0.038 A 
ATOM     13  N   UNL     1      -2.414   4.266   0.088  0.00  0.00    -0.284 N 
ATOM     14  C   UNL     1      -1.892   5.510   0.090  0.00  0.00    +0.237 C 
ATOM     15  O   UNL     1      -2.511   6.552   0.119  0.00  0.00    -0.274 OA
ATOM     16 BR   UNL     1       2.394   0.657  -0.082  0.00  0.00    -0.050 Br
ATOM     17  C   UNL     1      -0.555   5.842  -2.401  0.00  0.00    +0.164 C 
ATOM     18  O   UNL     1      -1.571   5.176  -2.406  0.00  0.00    -0.292 OA
ATOM     19  C   UNL     1      -0.082   6.477  -3.680  0.00  0.00    +0.080 C 
ATOM     20  C   UNL     1       0.708   7.745  -3.339  0.00  0.00    +0.016 C 
ATOM     21  C   UNL     1       1.855   7.364  -2.402  0.00  0.00    +0.075 C 
ATOM     22  H   UNL     1      -3.365   4.077   0.111  0.00  0.00    +0.155 HD
ENDROOT
BRANCH   2  23
ATOM     23  N   UNL     1       1.919   7.253   2.300  0.00  0.00    -0.329 N 
ATOM     24  H   UNL     1       1.536   7.060   3.170  0.00  0.00    +0.145 HD
ATOM     25  H   UNL     1       2.686   7.842   2.228  0.00  0.00    +0.145 HD
ENDBRANCH   2  23
BRANCH   1  26
ATOM     26  C   UNL     1      -0.385   5.803   2.526  0.00  0.00    +0.342 C 
ATOM     27  O   UNL     1      -0.247   4.755   3.133  0.00  0.00    -0.245 OA
BRANCH  26  28
ATOM     28  O   UNL     1      -1.126   6.799   3.057  0.00  0.00    -0.461 OA
BRANCH  28  29
ATOM     29  C   UNL     1      -1.720   6.556   4.333  0.00  0.00    +0.232 C 
BRANCH  29  30
ATOM     30  C   UNL     1      -2.515   7.788   4.769  0.00  0.00    +0.041 C 
BRANCH  30  32
ATOM     31  C   UNL     1      -3.947   8.761   6.571  0.00  0.00    +0.004 C 
ATOM     32  C   UNL     1      -3.151   7.528   6.136  0.00  0.00    -0.000 C 
ENDBRANCH  30  32
ENDBRANCH  29  30
ENDBRANCH  28  29
ENDBRANCH  26  28
ENDBRANCH   1  26
TORSDOF 6
