REMARK  Name = ZINC35337352
REMARK  10 active torsions:
REMARK  status: ('A' for Active; 'I' for Inactive)
REMARK    1  A    between atoms: C_1  and  C_2
REMARK    2  A    between atoms: C_8  and  N_10
REMARK    3  A    between atoms: C_11  and  C_13
REMARK    4  A    between atoms: C_13  and  O_14
REMARK    5  A    between atoms: O_14  and  C_15
REMARK    6  A    between atoms: C_15  and  C_17
REMARK    7  A    between atoms: C_17  and  N_18
REMARK    8  A    between atoms: C_23  and  C_30
REMARK    9  A    between atoms: C_26  and  C_28
REMARK   10  A    between atoms: C_26  and  C_29
REMARK                            x       y       z     vdW  Elec       q    Type
REMARK                         _______ _______ _______ _____ _____    ______ ____
ROOT
ATOM      1  C   UNL     1       6.701   1.357   4.468  0.00  0.00    +0.238 C 
ENDROOT
BRANCH   1   2
ATOM      2  N   UNL     1       8.075   1.851   4.582  0.00  0.00    -0.213 N 
ATOM      3  C   UNL     1       9.171   1.065   4.528  0.00  0.00    +0.247 C 
ATOM      4  O   UNL     1       9.204  -0.138   4.381  0.00  0.00    -0.273 OA
ATOM      5  C   UNL     1      10.347   2.000   4.688  0.00  0.00    +0.113 C 
ATOM      6  C   UNL     1      11.238   1.951   3.452  0.00  0.00    +0.038 C 
ATOM      7  C   UNL     1      12.405   2.927   3.622  0.00  0.00    -0.011 C 
ATOM      8  C   UNL     1      13.210   2.546   4.866  0.00  0.00    +0.009 C 
ATOM      9  C   UNL     1      12.309   2.622   6.101  0.00  0.00    -0.032 C 
ATOM     10  C   UNL     1      11.142   1.645   5.940  0.00  0.00    +0.041 C 
ATOM     11  C   UNL     1      13.117   2.251   7.346  0.00  0.00    +0.011 C 
ATOM     12  C   UNL     1      11.767   4.045   6.249  0.00  0.00    +0.011 C 
ATOM     13  C   UNL     1      13.309   2.861   2.389  0.00  0.00    +0.007 C 
ATOM     14  N   UNL     1       9.732   3.326   4.827  0.00  0.00    -0.285 N 
ATOM     15  C   UNL     1       8.401   3.139   4.748  0.00  0.00    +0.310 C 
ATOM     16  O   UNL     1       7.586   4.038   4.821  0.00  0.00    -0.252 OA
ATOM     17  H   UNL     1      10.194   4.171   4.949  0.00  0.00    +0.151 HD
ENDBRANCH   1   2
BRANCH   1  18
ATOM     18  C   UNL     1       6.287   1.355   3.019  0.00  0.00    +0.326 C 
ATOM     19  O   UNL     1       7.060   1.728   2.169  0.00  0.00    -0.249 OA
BRANCH  18  20
ATOM     20  O   UNL     1       5.059   0.939   2.672  0.00  0.00    -0.454 OA
BRANCH  20  21
ATOM     21  C   UNL     1       4.733   0.964   1.281  0.00  0.00    +0.327 C 
BRANCH  21  23
ATOM     22  N   UNL     1       2.799   0.401  -0.154  0.00  0.00    -0.309 N 
ATOM     23  C   UNL     1       3.325   0.466   1.085  0.00  0.00    +0.251 C 
ATOM     24  O   UNL     1       2.664   0.123   2.043  0.00  0.00    -0.272 OA
ATOM     25  H   UNL     1       3.327   0.675  -0.920  0.00  0.00    +0.149 HD
BRANCH  22  32
ATOM     26  C   UNL     1       0.854   2.022  -1.560  0.00  0.00    +0.009 C 
ATOM     27  C   UNL     1       0.860   0.494  -1.641  0.00  0.00    +0.006 C 
ATOM     28  C   UNL     1      -0.571  -0.011  -1.840  0.00  0.00    +0.005 C 
ATOM     29  C   UNL     1      -0.565  -1.539  -1.921  0.00  0.00    +0.000 C 
ATOM     30  C   UNL     1       0.005  -2.117  -0.624  0.00  0.00    +0.002 C 
ATOM     31  C   UNL     1       1.435  -1.611  -0.425  0.00  0.00    +0.022 C 
ATOM     32  C   UNL     1       1.429  -0.083  -0.344  0.00  0.00    +0.076 C 
ENDBRANCH  22  32
ENDBRANCH  21  23
ENDBRANCH  20  21
ENDBRANCH  18  20
ENDBRANCH   1  18
TORSDOF 6
