REMARK  Name = ZINC12659666
REMARK  9 active torsions:
REMARK  status: ('A' for Active; 'I' for Inactive)
REMARK    1  A    between atoms: C_1  and  C_2
REMARK    2  A    between atoms: C_13  and  C_15
REMARK    3  A    between atoms: C_15  and  C_17
REMARK    4  A    between atoms: C_17  and  C_18
REMARK    5  A    between atoms: C_25  and  O_26
REMARK    6  A    between atoms: O_26  and  C_27
REMARK    7  A    between atoms: C_33  and  N_84
REMARK    8  A    between atoms: C_37  and  C_44
REMARK    9  A    between atoms: C_40  and  O_43
REMARK                            x       y       z     vdW  Elec       q    Type
REMARK                         _______ _______ _______ _____ _____    ______ ____
ROOT
ATOM      1  C   UNL     1      -8.590  -1.186  -0.620  0.00  0.00    +0.012 C 
ATOM      2  C   UNL     1      -7.072  -1.100  -0.950  0.00  0.00    -0.019 C 
ATOM      3  C   UNL     1      -6.383  -0.947   0.379  0.00  0.00    +0.008 C 
ATOM      4  C   UNL     1      -5.013  -0.283   0.309  0.00  0.00    +0.005 C 
ATOM      5  C   UNL     1      -5.181   1.072  -0.383  0.00  0.00    +0.003 C 
ATOM      6  C   UNL     1      -5.588   0.814  -1.830  0.00  0.00    +0.000 C 
ATOM      7  C   UNL     1      -6.921   0.083  -1.909  0.00  0.00    -0.001 C 
ATOM      8  C   UNL     1      -7.044  -0.541  -3.324  0.00  0.00    +0.005 C 
ATOM      9  C   UNL     1      -6.474  -1.966  -3.179  0.00  0.00    +0.012 C 
ATOM     10  C   UNL     1      -6.744  -2.378  -1.718  0.00  0.00    +0.061 C 
ATOM     11  C   UNL     1      -4.479   0.043  -2.541  0.00  0.00    +0.031 C 
ATOM     12  C   UNL     1      -3.180   0.785  -2.384  0.00  0.00    -0.027 C 
ATOM     13  C   UNL     1      -2.932   1.587  -1.392  0.00  0.00    -0.065 C 
ATOM     14  C   UNL     1      -3.911   1.898  -0.297  0.00  0.00    -0.008 C 
ATOM     15  C   UNL     1      -3.233   1.693   1.060  0.00  0.00    +0.014 C 
ATOM     16  C   UNL     1      -1.921   2.475   1.129  0.00  0.00    +0.032 C 
ATOM     17  C   UNL     1      -0.960   1.979   0.048  0.00  0.00    +0.119 C 
ATOM     18  C   UNL     1      -1.563   2.246  -1.333  0.00  0.00    +0.062 C 
ATOM     19  C   UNL     1      -4.314   3.373  -0.417  0.00  0.00    +0.016 C 
ENDROOT
BRANCH  10  20
ATOM     20  C   UNL     1      -5.576  -3.136  -1.159  0.00  0.00    +0.136 C 
ATOM     21  O   UNL     1      -4.456  -2.882  -1.534  0.00  0.00    -0.297 OA
BRANCH  20  22
ATOM     22  C   UNL     1      -5.800  -4.214  -0.130  0.00  0.00    +0.064 C 
BRANCH  22  23
ATOM     23  C   UNL     1      -4.479  -4.931   0.154  0.00  0.00    -0.027 C 
ATOM     24  C   UNL     1      -3.905  -5.448  -1.140  0.00  0.00    -0.012 A 
ATOM     25  C   UNL     1      -2.561  -5.348  -1.431  0.00  0.00    -0.040 A 
ATOM     26  C   UNL     1      -2.074  -5.841  -2.632  0.00  0.00    +0.053 A 
ATOM     27  C   UNL     1      -2.928  -6.434  -3.547  0.00  0.00    +0.170 A 
ATOM     28  C   UNL     1      -4.285  -6.534  -3.259  0.00  0.00    +0.208 A 
ATOM     29  C   UNL     1      -4.769  -6.041  -2.055  0.00  0.00    +0.167 A 
ATOM     30  O   UNL     1      -4.911  -7.148  -4.306  0.00  0.00    -0.449 OA
ATOM     31  C   UNL     1      -3.991  -7.054  -5.411  0.00  0.00    +0.467 C 
ATOM     32  O   UNL     1      -2.701  -6.985  -4.775  0.00  0.00    -0.452 OA
ATOM     33  C   UNL     1      -1.590  -4.709  -0.472  0.00  0.00    +0.017 C 
ATOM     34  C   UNL     1      -2.216  -4.612   0.919  0.00  0.00    -0.074 C 
ATOM     35  C   UNL     1      -4.052  -3.557   2.099  0.00  0.00    -0.095 C 
ATOM     36  N   UNL     1      -3.543  -3.979   0.775  0.00  0.00    +0.383 N 
ATOM     37  H   UNL     1      -3.457  -3.152   0.172  0.00  0.00    -0.081 HD
BRANCH  29  38
ATOM     38  O   UNL     1      -6.095  -6.138  -1.769  0.00  0.00    -0.491 OA
ATOM     39  C   UNL     1      -6.522  -7.302  -1.058  0.00  0.00    +0.277 C 
ENDBRANCH  29  38
ENDBRANCH  22  23
ENDBRANCH  20  22
ENDBRANCH  10  20
BRANCH  17  40
ATOM     40  O   UNL     1       0.287   2.665   0.167  0.00  0.00    -0.391 OA
ATOM     41  H   UNL     1       0.947   2.398  -0.488  0.00  0.00    +0.210 HD
ENDBRANCH  17  40
TORSDOF 5
