REMARK  Name = ZINC36502407
REMARK  11 active torsions:
REMARK  status: ('A' for Active; 'I' for Inactive)
REMARK    1  A    between atoms: C_1  and  C_2
REMARK    2  A    between atoms: C_5  and  S_8
REMARK    3  A    between atoms: S_8  and  C_11
REMARK    4  A    between atoms: C_11  and  N_12
REMARK    5  A    between atoms: C_13  and  C_15
REMARK    6  A    between atoms: C_15  and  C_17
REMARK    7  A    between atoms: C_15  and  N_24
REMARK    8  A    between atoms: C_22  and  O_23
REMARK    9  A    between atoms: N_24  and  C_25
REMARK   10  A    between atoms: C_25  and  C_26
REMARK   11  A    between atoms: C_31  and  C_33
REMARK                            x       y       z     vdW  Elec       q    Type
REMARK                         _______ _______ _______ _____ _____    ______ ____
ROOT
ATOM      1  C   UNL     1       2.039  -5.813   5.702  0.00  0.00    +0.196 C 
ENDROOT
BRANCH   1   2
ATOM      2  C   UNL     1       2.045  -4.612   4.792  0.00  0.00    +0.023 A 
ATOM      3  C   UNL     1       2.311  -4.767   3.445  0.00  0.00    +0.009 A 
ATOM      4  C   UNL     1       2.317  -3.665   2.610  0.00  0.00    +0.001 A 
ATOM      5  C   UNL     1       2.056  -2.406   3.119  0.00  0.00    +0.004 A 
ATOM      6  C   UNL     1       1.789  -2.247   4.465  0.00  0.00    +0.046 A 
ATOM      7  C   UNL     1       1.778  -3.351   5.305  0.00  0.00    +0.122 A 
BRANCH   7   8
ATOM      8  O   UNL     1       1.510  -3.198   6.628  0.00  0.00    -0.506 OA
ATOM      9  H   UNL     1       2.293  -3.036   7.172  0.00  0.00    +0.292 HD
ENDBRANCH   7   8
ENDBRANCH   1   2
BRANCH   1  11
ATOM     10  N   UNL     1       0.644  -5.197   7.649  0.00  0.00    -0.294 N 
ATOM     11  C   UNL     1       0.746  -5.851   6.475  0.00  0.00    +0.239 C 
ATOM     12  O   UNL     1      -0.202  -6.471   6.041  0.00  0.00    -0.273 OA
ATOM     13  H   UNL     1       1.402  -4.702   7.996  0.00  0.00    +0.150 HD
BRANCH  10  14
ATOM     14  C   UNL     1      -0.613  -5.234   8.401  0.00  0.00    +0.278 C 
BRANCH  14  15
ATOM     15  S   UNL     1      -0.538  -6.557   9.640  0.00  0.00    +0.013 S 
ATOM     16  O   UNL     1      -0.051  -7.754   9.049  0.00  0.00    -0.168 OA
ATOM     17  O   UNL     1      -1.726  -6.565  10.420  0.00  0.00    -0.168 OA
BRANCH  15  22
ATOM     18  C   UNL     1       3.805  -4.855  13.467  0.00  0.00    +0.044 C 
ATOM     19  C   UNL     1       2.720  -5.280  12.511  0.00  0.00    -0.050 A 
ATOM     20  C   UNL     1       1.411  -4.898  12.737  0.00  0.00    +0.005 A 
ATOM     21  C   UNL     1       0.416  -5.287  11.860  0.00  0.00    +0.027 A 
ATOM     22  C   UNL     1       0.730  -6.059  10.757  0.00  0.00    +0.090 A 
ATOM     23  C   UNL     1       2.039  -6.441  10.531  0.00  0.00    +0.027 A 
ATOM     24  C   UNL     1       3.035  -6.047  11.405  0.00  0.00    +0.005 A 
ENDBRANCH  15  22
ENDBRANCH  14  15
ENDBRANCH  10  14
ENDBRANCH   1  11
BRANCH   1  25
ATOM     25  N   UNL     1       2.166  -7.033   4.901  0.00  0.00    -0.274 N 
ATOM     26  C   UNL     1       3.293  -7.768   4.966  0.00  0.00    +0.248 C 
ATOM     27  O   UNL     1       3.513  -8.620   4.127  0.00  0.00    -0.270 OA
BRANCH  26  28
ATOM     28  C   UNL     1       4.264  -7.538   6.057  0.00  0.00    +0.037 A 
ATOM     29  C   UNL     1       4.992  -6.348   6.108  0.00  0.00    +0.013 A 
ATOM     30  C   UNL     1       5.896  -6.139   7.129  0.00  0.00    +0.001 A 
ATOM     31  C   UNL     1       6.083  -7.106   8.100  0.00  0.00    +0.000 A 
ATOM     32  C   UNL     1       5.365  -8.288   8.055  0.00  0.00    +0.001 A 
ATOM     33  C   UNL     1       4.454  -8.507   7.043  0.00  0.00    +0.013 A 
ENDBRANCH  26  28
BRANCH  25  34
ATOM     34  C   UNL     1       1.065  -7.455   4.030  0.00  0.00    +0.183 C 
BRANCH  34  35
ATOM     35  C   UNL     1       0.666  -8.867   4.373  0.00  0.00    +0.122 A 
ATOM     36  C   UNL     1      -0.534  -9.253   4.843  0.00  0.00    +0.046 A 
ATOM     37  C   UNL     1      -0.471 -10.654   5.025  0.00  0.00    +0.041 A 
ATOM     38  C   UNL     1       0.763 -11.040   4.656  0.00  0.00    +0.195 A 
ATOM     39  O   UNL     1       1.446  -9.954   4.256  0.00  0.00    -0.466 OA
ENDBRANCH  34  35
ENDBRANCH  25  34
ENDBRANCH   1  25
TORSDOF 10
