REMARK  Name = ZINC16734609
REMARK  9 active torsions:
REMARK  status: ('A' for Active; 'I' for Inactive)
REMARK    1  A    between atoms: C_1  and  C_2
REMARK    2  A    between atoms: C_7  and  N_30
REMARK    3  A    between atoms: C_8  and  C_13
REMARK    4  A    between atoms: N_17  and  C_21
REMARK    5  A    between atoms: C_21  and  C_22
REMARK    6  A    between atoms: C_25  and  O_28
REMARK    7  A    between atoms: O_28  and  C_29
REMARK    8  A    between atoms: N_30  and  C_31
REMARK    9  A    between atoms: C_31  and  C_32
REMARK                            x       y       z     vdW  Elec       q    Type
REMARK                         _______ _______ _______ _____ _____    ______ ____
ROOT
ATOM      1  C   UNL     1      -7.432  -3.572  -6.249  0.00  0.00    +0.045 C 
ATOM      2  C   UNL     1      -6.474  -2.745  -5.431  0.00  0.00    -0.034 A 
ATOM      3  C   UNL     1      -6.306  -3.014  -4.066  0.00  0.00    +0.008 A 
ATOM      4  C   UNL     1      -5.438  -2.260  -3.334  0.00  0.00    +0.047 A 
ATOM      5  C   UNL     1      -4.723  -1.223  -3.959  0.00  0.00    +0.142 A 
ATOM      6  N   UNL     1      -3.876  -0.491  -3.234  0.00  0.00    -0.214 NA
ATOM      7  C   UNL     1      -3.177   0.499  -3.771  0.00  0.00    +0.134 A 
ATOM      8  C   UNL     1      -3.332   0.796  -5.146  0.00  0.00    +0.081 A 
ATOM      9  C   UNL     1      -4.230   0.009  -5.906  0.00  0.00    +0.267 A 
ATOM     10  O   UNL     1      -4.392   0.228  -7.095  0.00  0.00    -0.267 OA
ATOM     11  N   UNL     1      -4.909  -0.984  -5.292  0.00  0.00    -0.267 N 
ATOM     12  C   UNL     1      -5.779  -1.743  -6.015  0.00  0.00    +0.099 A 
ENDROOT
BRANCH   8  13
ATOM     13  C   UNL     1      -2.604   1.850  -5.746  0.00  0.00    +0.037 C 
ATOM     14  C   UNL     1      -2.695   3.115  -5.243  0.00  0.00    +0.077 C 
ATOM     15  C   UNL     1      -1.970   4.287  -5.602  0.00  0.00    +0.259 C 
ATOM     16  O   UNL     1      -1.122   4.256  -6.477  0.00  0.00    -0.269 OA
ATOM     17  N   UNL     1      -2.246   5.411  -4.963  0.00  0.00    -0.251 N 
ATOM     18  C   UNL     1      -3.182   5.444  -3.988  0.00  0.00    +0.121 C 
ATOM     19  S   UNL     1      -3.692   6.771  -3.034  0.00  0.00    -0.027 S 
ATOM     20  S   UNL     1      -3.751   3.751  -3.949  0.00  0.00    -0.061 S 
BRANCH  17  21
ATOM     21  C   UNL     1      -1.524   6.636  -5.312  0.00  0.00    +0.150 C 
BRANCH  21  22
ATOM     22  C   UNL     1      -0.281   6.745  -4.467  0.00  0.00    -0.029 A 
ATOM     23  C   UNL     1      -0.329   7.401  -3.251  0.00  0.00    +0.009 A 
ATOM     24  C   UNL     1       0.807   7.497  -2.471  0.00  0.00    +0.046 A 
ATOM     25  C   UNL     1       2.000   6.944  -2.914  0.00  0.00    +0.120 A 
ATOM     26  C   UNL     1       2.047   6.291  -4.137  0.00  0.00    +0.046 A 
ATOM     27  C   UNL     1       0.906   6.193  -4.911  0.00  0.00    +0.009 A 
BRANCH  25  28
ATOM     28  O   UNL     1       3.120   7.042  -2.151  0.00  0.00    -0.495 OA
ATOM     29  C   UNL     1       2.998   7.728  -0.903  0.00  0.00    +0.277 C 
ENDBRANCH  25  28
ENDBRANCH  21  22
ENDBRANCH  17  21
ENDBRANCH   8  13
BRANCH   7  30
ATOM     30  N   UNL     1      -2.311   1.237  -2.995  0.00  0.00    -0.326 N 
ATOM     31  H   UNL     1      -1.800   1.960  -3.392  0.00  0.00    +0.148 HD
BRANCH  30  32
ATOM     32  C   UNL     1      -2.159   0.929  -1.571  0.00  0.00    +0.134 C 
BRANCH  32  33
ATOM     33  C   UNL     1      -1.145   1.889  -0.947  0.00  0.00    +0.135 C 
ATOM     34  C   UNL     1      -0.971   1.565   0.553  0.00  0.00    +0.035 C 
ATOM     35  C   UNL     1       0.559   1.761   0.759  0.00  0.00    +0.031 C 
ATOM     36  C   UNL     1       1.101   1.282  -0.612  0.00  0.00    +0.160 C 
ATOM     37  O   UNL     1       0.132   1.724  -1.576  0.00  0.00    -0.375 OA
ENDBRANCH  32  33
ENDBRANCH  30  32
ENDBRANCH   7  30
TORSDOF 7
