REMARK  Name = ZINC20031458
REMARK  4 active torsions:
REMARK  status: ('A' for Active; 'I' for Inactive)
REMARK    1  A    between atoms: C_1  and  N_2
REMARK    2  A    between atoms: C_3  and  N_11
REMARK    3  A    between atoms: N_7  and  C_10
REMARK    4  A    between atoms: N_11  and  C_12
REMARK                            x       y       z     vdW  Elec       q    Type
REMARK                         _______ _______ _______ _____ _____    ______ ____
ROOT
ATOM      1  C   UNL     1      -1.375   4.751   2.840  0.00  0.00    +0.155 C 
ATOM      2  N   UNL     1      -1.361   3.309   2.580  0.00  0.00    -0.285 N 
ATOM      3  C   UNL     1      -1.979   2.450   3.458  0.00  0.00    +0.112 A 
ATOM      4  C   UNL     1      -1.960   1.107   3.207  0.00  0.00    +0.112 A 
ATOM      5  C   UNL     1      -1.307   0.636   2.057  0.00  0.00    +0.258 A 
ATOM      6  O   UNL     1      -1.278  -0.558   1.813  0.00  0.00    -0.267 OA
ATOM      7  N   UNL     1      -0.714   1.513   1.223  0.00  0.00    -0.264 N 
ATOM      8  C   UNL     1      -0.737   2.832   1.487  0.00  0.00    +0.333 A 
ATOM      9  O   UNL     1      -0.190   3.605   0.725  0.00  0.00    -0.246 OA
ATOM     10  C   UNL     1      -0.032   1.025   0.022  0.00  0.00    +0.157 C 
ENDROOT
BRANCH   3  11
ATOM     11  N   UNL     1      -2.610   2.938   4.575  0.00  0.00    -0.300 N 
ATOM     12  H   UNL     1      -3.651   3.287   4.511  0.00  0.00    +0.154 HD
BRANCH  11  13
ATOM     13  C   UNL     1      -1.928   2.990   5.796  0.00  0.00    +0.034 A 
ATOM     14  C   UNL     1      -0.581   2.658   5.855  0.00  0.00    +0.025 A 
ATOM     15  C   UNL     1       0.092   2.716   7.060  0.00  0.00    +0.023 A 
ATOM     16  C   UNL     1      -0.579   3.093   8.210  0.00  0.00    +0.059 A 
ATOM     17  C   UNL     1      -1.923   3.420   8.156  0.00  0.00    +0.061 A 
ATOM     18  C   UNL     1      -2.599   3.369   6.951  0.00  0.00    +0.044 A 
ATOM     19 CL   UNL     1      -2.760   3.893   9.601  0.00  0.00    -0.082 Cl
ATOM     20 CL   UNL     1       0.268   3.157   9.725  0.00  0.00    -0.082 Cl
ENDBRANCH  11  13
ENDBRANCH   3  11
TORSDOF 2
