REMARK  Name = ZINC08670607
REMARK  8 active torsions:
REMARK  status: ('A' for Active; 'I' for Inactive)
REMARK    1  A    between atoms: C_1  and  C_2
REMARK    2  A    between atoms: C_11  and  S_13
REMARK    3  A    between atoms: S_13  and  N_16
REMARK    4  A    between atoms: N_16  and  C_17
REMARK    5  A    between atoms: C_17  and  C_19
REMARK    6  A    between atoms: C_17  and  C_26
REMARK    7  A    between atoms: C_19  and  C_20
REMARK    8  A    between atoms: N_28  and  C_29
REMARK                            x       y       z     vdW  Elec       q    Type
REMARK                         _______ _______ _______ _____ _____    ______ ____
ROOT
ATOM      1  C   UNL     1      -2.386  -6.405  -3.548  0.00  0.00    +0.166 C 
ENDROOT
BRANCH   1   2
ATOM      2  C   UNL     1      -3.785  -6.276  -3.004  0.00  0.00    +0.232 C 
ATOM      3  O   UNL     1      -4.027  -6.616  -1.865  0.00  0.00    -0.274 OA
ATOM      4  N   UNL     1      -4.768  -5.783  -3.784  0.00  0.00    -0.311 N 
ATOM      5  H   UNL     1      -4.574  -5.511  -4.695  0.00  0.00    +0.149 HD
BRANCH   4   6
ATOM      6  C   UNL     1      -6.129  -5.657  -3.256  0.00  0.00    +0.073 C 
ATOM      7  C   UNL     1      -6.835  -7.025  -3.363  0.00  0.00    +0.022 C 
ATOM      8  C   UNL     1      -7.986  -7.045  -2.394  0.00  0.00    +0.002 C 
ATOM      9  C   UNL     1      -9.316  -6.629  -3.051  0.00  0.00    +0.000 C 
ATOM     10  C   UNL     1      -9.161  -5.431  -4.008  0.00  0.00    +0.000 C 
ATOM     11  C   UNL     1      -8.251  -4.367  -3.456  0.00  0.00    +0.002 C 
ATOM     12  C   UNL     1      -6.826  -4.614  -3.992  0.00  0.00    +0.022 C 
ENDBRANCH   4   6
ENDBRANCH   1   2
BRANCH   1  13
ATOM     13  N   UNL     1      -1.510  -6.963  -2.514  0.00  0.00    -0.178 NA
ATOM     14  H   UNL     1      -1.853  -7.622  -1.891  0.00  0.00    +0.149 HD
BRANCH  13  15
ATOM     15  S   UNL     1       0.066  -6.466  -2.409  0.00  0.00    +0.059 S 
ATOM     16  O   UNL     1       0.606  -6.547  -3.721  0.00  0.00    -0.153 OA
ATOM     17  O   UNL     1       0.637  -7.158  -1.307  0.00  0.00    -0.153 OA
BRANCH  15  28
ATOM     18  C   UNL     1      -0.018   1.503   0.010  0.00  0.00    +0.109 C 
ATOM     19  C   UNL     1       0.002  -0.004   0.002  0.00  0.00    +0.217 C 
ATOM     20  O   UNL     1       0.020  -0.616   1.049  0.00  0.00    -0.276 OA
ATOM     21  N   UNL     1       0.000  -0.672  -1.169  0.00  0.00    -0.271 N 
ATOM     22  C   UNL     1      -0.015  -0.045  -2.493  0.00  0.00    +0.118 C 
ATOM     23  C   UNL     1      -0.011  -1.213  -3.493  0.00  0.00    +0.056 C 
ATOM     24  C   UNL     1       0.006  -2.454  -2.628  0.00  0.00    -0.023 A 
ATOM     25  C   UNL     1       0.018  -2.064  -1.298  0.00  0.00    +0.040 A 
ATOM     26  C   UNL     1       0.040  -3.044  -0.304  0.00  0.00    +0.026 A 
ATOM     27  C   UNL     1       0.055  -4.380  -0.646  0.00  0.00    +0.030 A 
ATOM     28  C   UNL     1       0.047  -4.758  -1.976  0.00  0.00    +0.106 A 
ATOM     29  C   UNL     1       0.016  -3.793  -2.966  0.00  0.00    +0.034 A 
ENDBRANCH  15  28
ENDBRANCH  13  15
ENDBRANCH   1  13
BRANCH   1  30
ATOM     30  C   UNL     1      -2.395  -7.334  -4.764  0.00  0.00    +0.065 C 
BRANCH  30  31
ATOM     31  C   UNL     1      -1.020  -7.367  -5.381  0.00  0.00    -0.045 A 
ATOM     32  C   UNL     1      -0.681  -6.455  -6.363  0.00  0.00    +0.004 A 
ATOM     33  C   UNL     1       0.579  -6.485  -6.929  0.00  0.00    +0.000 A 
ATOM     34  C   UNL     1       1.502  -7.427  -6.512  0.00  0.00    +0.000 A 
ATOM     35  C   UNL     1       1.163  -8.338  -5.529  0.00  0.00    +0.000 A 
ATOM     36  C   UNL     1      -0.096  -8.305  -4.960  0.00  0.00    +0.004 A 
ENDBRANCH  30  31
ENDBRANCH   1  30
TORSDOF 7
