REMARK  Name = ZINC05199587
REMARK  7 active torsions:
REMARK  status: ('A' for Active; 'I' for Inactive)
REMARK    1  A    between atoms: C_4  and  N_7
REMARK    2  A    between atoms: N_10  and  C_13
REMARK    3  A    between atoms: C_13  and  C_14
REMARK    4  A    between atoms: C_14  and  C_15
REMARK    5  A    between atoms: N_17  and  N_18
REMARK    6  A    between atoms: C_19  and  C_21
REMARK    7  A    between atoms: C_22  and  C_23
REMARK                            x       y       z     vdW  Elec       q    Type
REMARK                         _______ _______ _______ _____ _____    ______ ____
ROOT
ATOM      1  C   UNL     1       8.185  -4.287   2.735  0.00  0.00    +0.227 C 
ATOM      2  O   UNL     1       8.672  -3.494   3.513  0.00  0.00    -0.274 OA
ATOM      3  N   UNL     1       8.546  -5.585   2.782  0.00  0.00    -0.234 N 
ATOM      4  H   UNL     1       8.157  -6.219   2.160  0.00  0.00    +0.173 HD
ENDROOT
BRANCH   3   5
ATOM      5  N   UNL     1       9.485  -6.017   3.728  0.00  0.00    -0.231 N 
ATOM      6  C   UNL     1       9.846  -7.314   3.775  0.00  0.00    +0.253 C 
ATOM      7  O   UNL     1       9.357  -8.111   2.995  0.00  0.00    -0.269 OA
ATOM      8  H   UNL     1       9.874  -5.382   4.350  0.00  0.00    +0.173 HD
BRANCH   6   9
ATOM      9  C   UNL     1      10.825  -7.766   4.763  0.00  0.00    +0.069 C 
ATOM     10  C   UNL     1      11.187  -9.065   4.809  0.00  0.00    +0.013 C 
BRANCH  10  11
ATOM     11  C   UNL     1      12.172  -9.519   5.802  0.00  0.00    -0.021 A 
ATOM     12  C   UNL     1      12.731  -8.606   6.704  0.00  0.00    +0.012 A 
ATOM     13  C   UNL     1      13.653  -9.034   7.634  0.00  0.00    +0.050 A 
ATOM     14  C   UNL     1      14.030 -10.370   7.681  0.00  0.00    +0.166 A 
ATOM     15  C   UNL     1      13.477 -11.286   6.784  0.00  0.00    +0.167 A 
ATOM     16  C   UNL     1      12.549 -10.866   5.853  0.00  0.00    +0.057 A 
ATOM     17  O   UNL     1      14.009 -12.518   7.037  0.00  0.00    -0.453 OA
ATOM     18  C   UNL     1      15.191 -12.272   7.821  0.00  0.00    +0.466 C 
ATOM     19  O   UNL     1      14.906 -11.030   8.492  0.00  0.00    -0.453 OA
ENDBRANCH  10  11
ENDBRANCH   6   9
ENDBRANCH   3   5
BRANCH   1  20
ATOM     20  C   UNL     1       7.176  -3.822   1.717  0.00  0.00    +0.079 C 
BRANCH  20  21
ATOM     21  C   UNL     1       6.945  -2.318   1.878  0.00  0.00    -0.069 C 
BRANCH  21  25
ATOM     22  N   UNL     1       3.620  -0.649  -0.036  0.00  0.00    -0.333 N 
ATOM     23  C   UNL     1       4.892   0.081  -0.149  0.00  0.00    +0.086 C 
ATOM     24  C   UNL     1       5.830  -0.404   0.961  0.00  0.00    -0.060 C 
ATOM     25  N   UNL     1       5.961  -1.865   0.885  0.00  0.00    +0.382 N 
ATOM     26  C   UNL     1       4.665  -2.498   1.159  0.00  0.00    -0.060 C 
ATOM     27  C   UNL     1       3.669  -2.116   0.065  0.00  0.00    +0.086 C 
ATOM     28  H   UNL     1       6.274  -2.126  -0.038  0.00  0.00    -0.082 HD
BRANCH  22  32
ATOM     29  C   UNL     1      -0.017   1.379   0.011  0.00  0.00    +0.000 A 
ATOM     30  C   UNL     1       0.002  -0.004  -0.011  0.00  0.00    +0.002 A 
ATOM     31  C   UNL     1       1.206  -0.680  -0.027  0.00  0.00    +0.023 A 
ATOM     32  C   UNL     1       2.400   0.031  -0.021  0.00  0.00    +0.030 A 
ATOM     33  C   UNL     1       2.377   1.420   0.002  0.00  0.00    +0.023 A 
ATOM     34  C   UNL     1       1.170   2.089   0.018  0.00  0.00    +0.002 A 
ENDBRANCH  22  32
ENDBRANCH  21  25
ENDBRANCH  20  21
ENDBRANCH   1  20
TORSDOF 7
