REMARK  Name = ZINC28120869
REMARK  11 active torsions:
REMARK  status: ('A' for Active; 'I' for Inactive)
REMARK    1  A    between atoms: C_1  and  C_2
REMARK    2  A    between atoms: C_2  and  C_3
REMARK    3  A    between atoms: C_8  and  C_28
REMARK    4  A    between atoms: C_9  and  C_25
REMARK    5  A    between atoms: C_12  and  C_15
REMARK    6  A    between atoms: C_13  and  O_14
REMARK    7  A    between atoms: C_15  and  N_16
REMARK    8  A    between atoms: C_21  and  C_23
REMARK    9  A    between atoms: C_23  and  C_24
REMARK   10  A    between atoms: C_25  and  C_26
REMARK   11  A    between atoms: C_25  and  C_27
REMARK                            x       y       z     vdW  Elec       q    Type
REMARK                         _______ _______ _______ _____ _____    ______ ____
ROOT
ATOM      1  C   UNL     1       4.341   1.220  -2.062  0.00  0.00    -0.005 A 
ATOM      2  C   UNL     1       4.364   2.386  -2.775  0.00  0.00    +0.022 A 
ATOM      3  C   UNL     1       3.173   2.915  -3.275  0.00  0.00    +0.065 A 
ATOM      4  C   UNL     1       3.160   4.170  -4.048  0.00  0.00    +0.202 A 
ATOM      5  O   UNL     1       4.184   4.790  -4.278  0.00  0.00    -0.286 OA
ATOM      6  C   UNL     1       1.847   4.639  -4.529  0.00  0.00    +0.093 A 
ATOM      7  C   UNL     1       0.742   3.898  -4.237  0.00  0.00    +0.122 A 
ATOM      8  O   UNL     1       0.802   2.767  -3.533  0.00  0.00    -0.458 OA
ATOM      9  C   UNL     1       1.953   2.252  -3.055  0.00  0.00    +0.144 A 
ATOM     10  C   UNL     1       1.947   1.072  -2.324  0.00  0.00    +0.021 A 
ATOM     11  C   UNL     1       3.136   0.560  -1.833  0.00  0.00    +0.125 A 
ENDROOT
BRANCH   6  12
ATOM     12  C   UNL     1       1.734   5.885  -5.312  0.00  0.00    +0.116 A 
ATOM     13  N   UNL     1       0.676   6.390  -5.911  0.00  0.00    -0.239 NA
ATOM     14  C   UNL     1       0.717   7.552  -6.594  0.00  0.00    +0.079 A 
ATOM     15  C   UNL     1      -0.339   8.203  -7.274  0.00  0.00    +0.029 A 
ATOM     16  C   UNL     1      -0.129   9.378  -7.926  0.00  0.00    +0.002 A 
ATOM     17  C   UNL     1       1.120   9.983  -7.952  0.00  0.00    +0.001 A 
ATOM     18  C   UNL     1       2.179   9.379  -7.300  0.00  0.00    +0.017 A 
ATOM     19  C   UNL     1       1.977   8.193  -6.639  0.00  0.00    +0.040 A 
ATOM     20  S   UNL     1       2.999   7.088  -5.695  0.00  0.00    -0.067 S 
ENDBRANCH   6  12
BRANCH   7  21
ATOM     21  C   UNL     1      -0.600   4.376  -4.728  0.00  0.00    +0.050 C 
ATOM     22  C   UNL     1      -0.876   3.786  -6.113  0.00  0.00    +0.015 C 
ATOM     23  C   UNL     1      -1.690   3.923  -3.754  0.00  0.00    +0.015 C 
ENDBRANCH   7  21
BRANCH   1  25
ATOM     24  C   UNL     1       6.175  -0.390  -2.503  0.00  0.00    +0.009 C 
ATOM     25  C   UNL     1       5.625   0.647  -1.521  0.00  0.00    +0.035 C 
ENDBRANCH   1  25
BRANCH  11  26
ATOM     26  O   UNL     1       3.128  -0.597  -1.123  0.00  0.00    -0.506 OA
ATOM     27  H   UNL     1       2.180  -1.123  -0.939  0.00  0.00    +0.292 HD
ENDBRANCH  11  26
BRANCH  10  28
ATOM     28  C   UNL     1       0.650   0.347  -2.070  0.00  0.00    -0.035 C 
BRANCH  28  29
ATOM     29  N   UNL     1       0.139   0.710  -0.741  0.00  0.00    +0.384 N 
ATOM     30  C   UNL     1      -0.172   2.143  -0.670  0.00  0.00    -0.078 C 
ATOM     31  C   UNL     1      -0.562   2.511   0.764  0.00  0.00    -0.019 C 
ATOM     32  C   UNL     1      -1.780   1.684   1.184  0.00  0.00    -0.003 C 
ATOM     33  C   UNL     1      -1.446   0.195   1.054  0.00  0.00    -0.015 C 
ATOM     34  C   UNL     1      -1.031  -0.105  -0.387  0.00  0.00    -0.068 C 
ATOM     35  H   UNL     1       0.928   0.500  -0.005  0.00  0.00    -0.081 HD
BRANCH  34  36
ATOM     36  C   UNL     1      -0.677  -1.588  -0.517  0.00  0.00    -0.019 C 
ATOM     37  C   UNL     1      -1.909  -2.437  -0.198  0.00  0.00    +0.002 C 
ENDBRANCH  34  36
ENDBRANCH  28  29
ENDBRANCH  10  28
TORSDOF 7
