REMARK  Name = ZINC05056885
REMARK  8 active torsions:
REMARK  status: ('A' for Active; 'I' for Inactive)
REMARK    1  A    between atoms: C_1  and  C_2
REMARK    2  A    between atoms: C_2  and  C_4
REMARK    3  A    between atoms: C_4  and  C_5
REMARK    4  A    between atoms: C_4  and  N_8
REMARK    5  A    between atoms: C_5  and  C_7
REMARK    6  A    between atoms: N_17  and  C_18
REMARK    7  A    between atoms: C_21  and  O_24
REMARK    8  A    between atoms: O_24  and  C_25
REMARK                            x       y       z     vdW  Elec       q    Type
REMARK                         _______ _______ _______ _____ _____    ______ ____
ROOT
ATOM      1  N   UNL     1      -1.213   1.708   0.017  0.00  0.00    -0.280 N 
ATOM      2  C   UNL     1      -0.013   1.076   0.008  0.00  0.00    +0.205 A 
ATOM      3  N   UNL     1       1.122   1.714   0.001  0.00  0.00    -0.216 NA
ATOM      4  C   UNL     1       1.181   3.053   0.007  0.00  0.00    +0.190 A 
ATOM      5  C   UNL     1      -0.007   3.796   0.022  0.00  0.00    +0.196 A 
ATOM      6  C   UNL     1      -1.273   3.060   0.030  0.00  0.00    +0.284 A 
ATOM      7  O   UNL     1      -2.342   3.643   0.043  0.00  0.00    -0.265 OA
ATOM      8  N   UNL     1       0.317   5.096   0.026  0.00  0.00    -0.122 NA
ATOM      9  N   UNL     1       1.597   5.233   0.015  0.00  0.00    -0.058 NA
ATOM     10  N   UNL     1       2.196   3.964   0.002  0.00  0.00    -0.194 N 
ENDROOT
BRANCH  10  11
ATOM     11  C   UNL     1       3.571   3.687  -0.013  0.00  0.00    +0.070 A 
ATOM     12  C   UNL     1       4.065   2.584   0.671  0.00  0.00    +0.031 A 
ATOM     13  C   UNL     1       5.418   2.308   0.651  0.00  0.00    +0.048 A 
ATOM     14  C   UNL     1       6.285   3.140  -0.042  0.00  0.00    +0.130 A 
ATOM     15  C   UNL     1       5.793   4.246  -0.721  0.00  0.00    +0.048 A 
ATOM     16  C   UNL     1       4.440   4.519  -0.706  0.00  0.00    +0.031 A 
BRANCH  14  17
ATOM     17  O   UNL     1       7.617   2.871  -0.057  0.00  0.00    -0.406 OA
BRANCH  17  18
ATOM     18  C   UNL     1       8.054   1.716   0.662  0.00  0.00    +0.575 C 
ATOM     19  F   UNL     1       7.435   0.577   0.137  0.00  0.00    -0.133 F 
ATOM     20  F   UNL     1       9.443   1.590   0.543  0.00  0.00    -0.133 F 
ATOM     21  F   UNL     1       7.713   1.851   2.013  0.00  0.00    -0.133 F 
ENDBRANCH  17  18
ENDBRANCH  14  17
ENDBRANCH  10  11
BRANCH   1  22
ATOM     22  C   UNL     1      -2.450   0.923   0.019  0.00  0.00    +0.223 C 
BRANCH  22  24
ATOM     23  C   UNL     1      -3.816  -0.491  -1.697  0.00  0.00    +0.088 C 
ATOM     24  C   UNL     1      -2.499   0.061  -1.216  0.00  0.00    +0.160 C 
ATOM     25  O   UNL     1      -1.484  -0.187  -1.820  0.00  0.00    -0.295 OA
ENDBRANCH  22  24
BRANCH  22  26
ATOM     26  C   UNL     1      -2.487   0.048   1.245  0.00  0.00    +0.160 C 
ATOM     27  O   UNL     1      -1.482  -0.134   1.888  0.00  0.00    -0.295 OA
ATOM     28  C   UNL     1      -3.780  -0.601   1.668  0.00  0.00    +0.088 C 
ENDBRANCH  22  26
ENDBRANCH   1  22
TORSDOF 6
