REMARK  Name = ZINC39308736
REMARK  7 active torsions:
REMARK  status: ('A' for Active; 'I' for Inactive)
REMARK    1  A    between atoms: C_1  and  O_2
REMARK    2  A    between atoms: O_2  and  C_3
REMARK    3  A    between atoms: C_3  and  C_5
REMARK    4  A    between atoms: C_8  and  C_10
REMARK    5  A    between atoms: C_10  and  N_11
REMARK    6  A    between atoms: C_14  and  C_17
REMARK    7  A    between atoms: C_14  and  O_24
REMARK                            x       y       z     vdW  Elec       q    Type
REMARK                         _______ _______ _______ _____ _____    ______ ____
ROOT
ATOM      1  N   UNL     1       0.534  -5.816  -1.411  0.00  0.00    +0.385 N 
ATOM      2  C   UNL     1      -0.718  -6.217  -2.065  0.00  0.00    -0.075 C 
ATOM      3  C   UNL     1      -0.447  -6.548  -3.534  0.00  0.00    +0.021 C 
ATOM      4  C   UNL     1       0.564  -7.696  -3.615  0.00  0.00    +0.088 C 
ATOM      5  C   UNL     1       1.838  -7.295  -2.866  0.00  0.00    +0.021 C 
ATOM      6  C   UNL     1       1.482  -6.936  -1.422  0.00  0.00    -0.075 C 
ATOM      7  H   UNL     1       0.933  -5.033  -1.907  0.00  0.00    -0.081 HD
ENDROOT
BRANCH   4   8
ATOM      8  C   UNL     1       0.894  -7.975  -5.059  0.00  0.00    -0.016 A 
ATOM      9  C   UNL     1       0.856  -6.951  -5.987  0.00  0.00    +0.007 A 
ATOM     10  C   UNL     1       1.159  -7.207  -7.311  0.00  0.00    +0.015 A 
ATOM     11  C   UNL     1       1.502  -8.487  -7.707  0.00  0.00    +0.018 A 
ATOM     12  C   UNL     1       1.540  -9.511  -6.778  0.00  0.00    +0.015 A 
ATOM     13  C   UNL     1       1.242  -9.254  -5.453  0.00  0.00    +0.007 A 
ATOM     14 BR   UNL     1       1.917  -8.837  -9.518  0.00  0.00    -0.050 Br
ENDBRANCH   4   8
BRANCH   4  15
ATOM     15  O   UNL     1       0.006  -8.867  -3.016  0.00  0.00    -0.384 OA
ATOM     16  H   UNL     1       0.593  -9.635  -3.032  0.00  0.00    +0.211 HD
ENDBRANCH   4  15
BRANCH   1  17
ATOM     17  C   UNL     1       0.256  -5.425  -0.023  0.00  0.00    -0.003 C 
BRANCH  17  21
ATOM     18  C   UNL     1      -1.248  -2.096   0.003  0.00  0.00    +0.211 A 
ATOM     19  C   UNL     1      -2.384  -2.856   0.004  0.00  0.00    +0.057 A 
ATOM     20  C   UNL     1      -1.972  -4.197  -0.006  0.00  0.00    +0.043 A 
ATOM     21  C   UNL     1      -0.621  -4.199  -0.012  0.00  0.00    +0.090 A 
ATOM     22  O   UNL     1      -0.188  -2.931  -0.012  0.00  0.00    -0.455 OA
BRANCH  18  23
ATOM     23  C   UNL     1      -1.191  -0.633   0.010  0.00  0.00    +0.375 C 
ATOM     24  O   UNL     1      -2.220   0.016   0.023  0.00  0.00    -0.241 OA
BRANCH  23  26
ATOM     25  C   UNL     1      -0.017   1.425   0.010  0.00  0.00    +0.280 C 
ATOM     26  O   UNL     1       0.002  -0.004   0.002  0.00  0.00    -0.462 OA
ENDBRANCH  23  26
ENDBRANCH  18  23
ENDBRANCH  17  21
ENDBRANCH   1  17
TORSDOF 6
