REMARK  Name = ZINC34830176
REMARK  7 active torsions:
REMARK  status: ('A' for Active; 'I' for Inactive)
REMARK    1  A    between atoms: C_1  and  C_2
REMARK    2  A    between atoms: C_5  and  C_8
REMARK    3  A    between atoms: N_17  and  C_18
REMARK    4  A    between atoms: C_18  and  C_19
REMARK    5  A    between atoms: C_19  and  C_20
REMARK    6  A    between atoms: C_26  and  C_29
REMARK    7  A    between atoms: C_30  and  C_32
REMARK                            x       y       z     vdW  Elec       q    Type
REMARK                         _______ _______ _______ _____ _____    ______ ____
ROOT
ATOM      1  C   UNL     1       4.950  -5.615   1.593  0.00  0.00    +0.214 C 
ATOM      2  O   UNL     1       5.244  -5.347   0.447  0.00  0.00    -0.276 OA
ATOM      3  N   UNL     1       5.883  -5.539   2.563  0.00  0.00    -0.298 N 
ATOM      4  C   UNL     1       5.543  -5.867   3.954  0.00  0.00    +0.127 C 
ATOM      5  C   UNL     1       5.913  -4.673   4.843  0.00  0.00    +0.127 C 
ATOM      6  N   UNL     1       7.288  -4.262   4.528  0.00  0.00    -0.292 N 
ATOM      7  C   UNL     1       7.628  -3.934   3.136  0.00  0.00    +0.091 C 
ATOM      8  C   UNL     1       7.259  -5.133   2.246  0.00  0.00    +0.130 C 
ATOM      9  C   UNL     1       6.844  -2.697   2.694  0.00  0.00    +0.029 C 
ATOM     10  C   UNL     1       8.221  -4.186   5.498  0.00  0.00    +0.247 C 
ATOM     11  O   UNL     1       7.912  -4.390   6.656  0.00  0.00    -0.270 OA
ENDROOT
BRANCH  10  12
ATOM     12  C   UNL     1       9.618  -3.854   5.154  0.00  0.00    +0.041 A 
ATOM     13  C   UNL     1       9.900  -2.725   4.383  0.00  0.00    +0.017 A 
ATOM     14  C   UNL     1      11.204  -2.416   4.064  0.00  0.00    +0.050 A 
ATOM     15  C   UNL     1      12.242  -3.226   4.507  0.00  0.00    +0.166 A 
ATOM     16  C   UNL     1      11.967  -4.356   5.278  0.00  0.00    +0.167 A 
ATOM     17  C   UNL     1      10.662  -4.667   5.605  0.00  0.00    +0.062 A 
ATOM     18  O   UNL     1      13.146  -4.973   5.582  0.00  0.00    -0.453 OA
ATOM     19  C   UNL     1      14.108  -4.443   4.651  0.00  0.00    +0.466 C 
ATOM     20  O   UNL     1      13.591  -3.138   4.331  0.00  0.00    -0.453 OA
ENDBRANCH  10  12
BRANCH   1  21
ATOM     21  C   UNL     1       3.542  -6.033   1.932  0.00  0.00    +0.077 C 
BRANCH  21  22
ATOM     22  C   UNL     1       2.691  -6.037   0.661  0.00  0.00    -0.068 C 
BRANCH  22  31
ATOM     23  C   UNL     1       0.480  -6.332  -0.207  0.00  0.00    -0.006 C 
ATOM     24  C   UNL     1      -0.916  -6.854   0.117  0.00  0.00    -0.047 A 
ATOM     25  C   UNL     1      -2.054  -6.552  -0.627  0.00  0.00    +0.010 A 
ATOM     26  C   UNL     1      -3.255  -7.059  -0.263  0.00  0.00    +0.045 A 
ATOM     27  S   UNL     1      -2.829  -8.013   1.187  0.00  0.00    -0.101 S 
ATOM     28  C   UNL     1      -1.094  -7.667   1.196  0.00  0.00    -0.010 A 
ATOM     29  C   UNL     1      -0.033  -8.134   2.139  0.00  0.00    +0.024 C 
ATOM     30  C   UNL     1       1.329  -7.826   1.493  0.00  0.00    -0.072 C 
ATOM     31  N   UNL     1       1.319  -6.444   0.991  0.00  0.00    +0.388 N 
ATOM     32  H   UNL     1       0.957  -5.835   1.709  0.00  0.00    -0.080 HD
BRANCH  23  37
ATOM     33  C   UNL     1       0.147  -0.795  -1.828  0.00  0.00    +0.044 C 
ATOM     34  C   UNL     1       0.234  -2.239  -1.405  0.00  0.00    -0.050 A 
ATOM     35  C   UNL     1       0.352  -3.232  -2.359  0.00  0.00    +0.003 A 
ATOM     36  C   UNL     1       0.432  -4.557  -1.972  0.00  0.00    +0.002 A 
ATOM     37  C   UNL     1       0.394  -4.888  -0.630  0.00  0.00    -0.057 A 
ATOM     38  C   UNL     1       0.277  -3.894   0.324  0.00  0.00    +0.002 A 
ATOM     39  C   UNL     1       0.201  -2.569  -0.064  0.00  0.00    +0.003 A 
ENDBRANCH  23  37
ENDBRANCH  22  31
ENDBRANCH  21  22
ENDBRANCH   1  21
TORSDOF 5
