REMARK  Name = ZINC14455905
REMARK  6 active torsions:
REMARK  status: ('A' for Active; 'I' for Inactive)
REMARK    1  A    between atoms: C_1  and  C_2
REMARK    2  A    between atoms: C_6  and  C_7
REMARK    3  A    between atoms: C_18  and  S_23
REMARK    4  A    between atoms: S_23  and  N_26
REMARK    5  A    between atoms: N_26  and  C_27
REMARK    6  A    between atoms: C_27  and  C_28
REMARK                            x       y       z     vdW  Elec       q    Type
REMARK                         _______ _______ _______ _____ _____    ______ ____
ROOT
ATOM      1  C   UNL     1       0.079  -2.791  -0.458  0.00  0.00    +0.112 C 
ATOM      2  C   UNL     1      -1.138  -2.246   0.295  0.00  0.00    +0.029 C 
ATOM      3  C   UNL     1      -2.409  -2.782  -0.428  0.00  0.00    +0.033 C 
ATOM      4  C   UNL     1      -2.587  -1.818  -1.585  0.00  0.00    -0.030 C 
ATOM      5  C   UNL     1      -1.974  -0.686  -1.338  0.00  0.00    -0.023 C 
ATOM      6  C   UNL     1      -1.300  -0.740   0.012  0.00  0.00    +0.049 C 
ATOM      7  C   UNL     1       0.002  -0.004   0.002  0.00  0.00    -0.018 A 
ATOM      8  C   UNL     1      -0.017   1.384   0.010  0.00  0.00    +0.034 A 
ATOM      9  C   UNL     1       1.162   2.102   0.002  0.00  0.00    +0.106 A 
ATOM     10  C   UNL     1       2.379   1.444  -0.011  0.00  0.00    +0.030 A 
ATOM     11  C   UNL     1       2.411   0.064  -0.019  0.00  0.00    +0.025 A 
ATOM     12  C   UNL     1       1.224  -0.659  -0.013  0.00  0.00    +0.031 A 
ATOM     13  N   UNL     1       1.272  -2.057  -0.025  0.00  0.00    -0.336 N 
ATOM     14  H   UNL     1       2.075  -2.529   0.245  0.00  0.00    +0.147 HD
ENDROOT
BRANCH   1  20
ATOM     15  C   UNL     1      -0.633  -4.971  -2.501  0.00  0.00    +0.044 C 
ATOM     16  C   UNL     1      -0.433  -3.527  -2.882  0.00  0.00    -0.038 A 
ATOM     17  C   UNL     1      -0.567  -3.124  -4.197  0.00  0.00    +0.011 A 
ATOM     18  C   UNL     1      -0.381  -1.817  -4.506  0.00  0.00    +0.046 A 
ATOM     19  S   UNL     1      -0.010  -1.109  -2.909  0.00  0.00    -0.099 S 
ATOM     20  C   UNL     1      -0.119  -2.604  -1.940  0.00  0.00    +0.013 A 
ENDBRANCH   1  20
BRANCH   9  21
ATOM     21  S   UNL     1       1.117   3.863   0.011  0.00  0.00    +0.059 S 
ATOM     22  O   UNL     1       2.346   4.303  -0.549  0.00  0.00    -0.153 OA
ATOM     23  O   UNL     1      -0.144   4.239  -0.527  0.00  0.00    -0.153 OA
BRANCH  21  24
ATOM     24  N   UNL     1       1.119   4.345   1.595  0.00  0.00    -0.186 NA
ATOM     25  H   UNL     1       0.348   4.806   1.962  0.00  0.00    +0.148 HD
BRANCH  24  26
ATOM     26  C   UNL     1       2.283   4.075   2.442  0.00  0.00    +0.141 C 
BRANCH  26  27
ATOM     27  C   UNL     1       2.201   4.913   3.692  0.00  0.00    -0.032 A 
ATOM     28  C   UNL     1       2.770   6.172   3.718  0.00  0.00    +0.005 A 
ATOM     29  C   UNL     1       2.690   6.942   4.864  0.00  0.00    +0.000 A 
ATOM     30  C   UNL     1       2.050   6.449   5.985  0.00  0.00    +0.000 A 
ATOM     31  C   UNL     1       1.485   5.188   5.960  0.00  0.00    +0.000 A 
ATOM     32  C   UNL     1       1.561   4.419   4.813  0.00  0.00    +0.005 A 
ENDBRANCH  26  27
ENDBRANCH  24  26
ENDBRANCH  21  24
ENDBRANCH   9  21
TORSDOF 5
