REMARK  Name = ZINC45026303
REMARK  4 active torsions:
REMARK  status: ('A' for Active; 'I' for Inactive)
REMARK    1  A    between atoms: C_1  and  C_2
REMARK    2  A    between atoms: C_4  and  C_20
REMARK    3  A    between atoms: C_9  and  S_11
REMARK    4  A    between atoms: S_11  and  C_12
REMARK                            x       y       z     vdW  Elec       q    Type
REMARK                         _______ _______ _______ _____ _____    ______ ____
ROOT
ATOM      1  C   UNL     1      -0.018   1.503   0.010  0.00  0.00    +0.066 C 
ATOM      2  C   UNL     1       0.002  -0.004   0.002  0.00  0.00    +0.044 A 
ATOM      3  C   UNL     1      -1.202  -0.717   0.004  0.00  0.00    +0.046 A 
ATOM      4  C   UNL     1      -1.169  -2.075  -0.004  0.00  0.00    +0.045 A 
ATOM      5  N   UNL     1       0.035  -2.706  -0.014  0.00  0.00    -0.200 N 
ATOM      6  C   UNL     1       1.192  -1.980  -0.015  0.00  0.00    +0.254 A 
ATOM      7  N   UNL     1       1.151  -0.643  -0.012  0.00  0.00    -0.216 NA
ATOM      8  N   UNL     1       2.202  -2.844  -0.025  0.00  0.00    -0.183 NA
ATOM      9  C   UNL     1       1.728  -4.088  -0.029  0.00  0.00    +0.217 A 
ATOM     10  N   UNL     1       0.411  -4.055  -0.023  0.00  0.00    -0.136 NA
ATOM     11  C   UNL     1      -2.449  -2.871  -0.002  0.00  0.00    +0.066 C 
ENDROOT
BRANCH   9  12
ATOM     12  S   UNL     1       2.710  -5.551  -0.042  0.00  0.00    -0.028 S 
BRANCH  12  13
ATOM     13  C   UNL     1       4.367  -4.952  -0.045  0.00  0.00    +0.111 A 
ATOM     14  C   UNL     1       5.441  -5.843  -0.060  0.00  0.00    +0.075 A 
ATOM     15  C   UNL     1       6.725  -5.328  -0.062  0.00  0.00    +0.135 A 
ATOM     16  N   UNL     1       6.896  -4.013  -0.050  0.00  0.00    -0.203 NA
ATOM     17  C   UNL     1       5.856  -3.192  -0.035  0.00  0.00    +0.215 A 
ATOM     18  N   UNL     1       4.612  -3.645  -0.039  0.00  0.00    -0.208 NA
ATOM     19  N   UNL     1       6.076  -1.825  -0.022  0.00  0.00    -0.327 N 
ATOM     20 CL   UNL     1       8.097  -6.391  -0.080  0.00  0.00    -0.062 Cl
ATOM     21  H   UNL     1       6.983  -1.480  -0.024  0.00  0.00    +0.145 HD
ATOM     22  H   UNL     1       5.324  -1.213  -0.012  0.00  0.00    +0.145 HD
ENDBRANCH  12  13
ENDBRANCH   9  12
TORSDOF 2
