REMARK  Name = ZINC12401685
REMARK  7 active torsions:
REMARK  status: ('A' for Active; 'I' for Inactive)
REMARK    1  A    between atoms: C_1  and  C_2
REMARK    2  A    between atoms: C_2  and  C_3
REMARK    3  A    between atoms: C_2  and  S_4
REMARK    4  A    between atoms: S_4  and  C_5
REMARK    5  A    between atoms: C_13  and  C_20
REMARK    6  A    between atoms: C_15  and  C_18
REMARK    7  A    between atoms: C_16  and  N_17
REMARK                            x       y       z     vdW  Elec       q    Type
REMARK                         _______ _______ _______ _____ _____    ______ ____
ROOT
ATOM      1  C   UNL     1       0.788   1.960   5.682  0.00  0.00    +0.160 A 
ATOM      2  N   UNL     1      -0.524   1.909   5.504  0.00  0.00    -0.133 NA
ATOM      3  N   UNL     1      -1.083   2.449   4.511  0.00  0.00    -0.124 NA
ATOM      4  C   UNL     1      -0.395   3.100   3.587  0.00  0.00    +0.194 A 
ATOM      5  S   UNL     1       1.262   2.897   4.232  0.00  0.00    -0.024 S 
ATOM      6  N   UNL     1      -0.835   3.751   2.437  0.00  0.00    -0.237 N 
ATOM      7  C   UNL     1      -0.886   3.072   1.248  0.00  0.00    +0.026 C 
ATOM      8  C   UNL     1      -0.918   3.739   0.075  0.00  0.00    +0.025 C 
ATOM      9  C   UNL     1      -0.892   5.246   0.039  0.00  0.00    +0.097 C 
ATOM     10  C   UNL     1      -1.258   5.826   1.373  0.00  0.00    +0.077 C 
ATOM     11  C   UNL     1      -1.213   5.074   2.503  0.00  0.00    +0.108 C 
ATOM     12  C   UNL     1      -0.971   3.050  -1.150  0.00  0.00    +0.162 C 
ATOM     13  O   UNL     1      -1.017   3.681  -2.187  0.00  0.00    -0.292 OA
ATOM     14  C   UNL     1      -0.971   1.546  -1.199  0.00  0.00    +0.080 C 
ATOM     15  C   UNL     1      -0.234   1.007   0.031  0.00  0.00    +0.014 C 
ATOM     16  C   UNL     1      -0.907   1.563   1.288  0.00  0.00    +0.052 C 
ENDROOT
BRANCH   9  17
ATOM     17  C   UNL     1       0.493   5.708  -0.336  0.00  0.00    -0.031 A 
ATOM     18  C   UNL     1       1.571   5.373   0.461  0.00  0.00    +0.008 A 
ATOM     19  C   UNL     1       2.844   5.790   0.118  0.00  0.00    +0.050 A 
ATOM     20  C   UNL     1       3.040   6.554  -1.020  0.00  0.00    +0.166 A 
ATOM     21  C   UNL     1       1.952   6.896  -1.821  0.00  0.00    +0.167 A 
ATOM     22  C   UNL     1       0.680   6.471  -1.474  0.00  0.00    +0.054 A 
ATOM     23  O   UNL     1       2.401   7.645  -2.870  0.00  0.00    -0.453 OA
ATOM     24  C   UNL     1       3.821   7.413  -2.928  0.00  0.00    +0.466 C 
ATOM     25  O   UNL     1       4.170   7.088  -1.569  0.00  0.00    -0.453 OA
ENDBRANCH   9  17
BRANCH  11  26
ATOM     26  N   UNL     1      -1.546   5.633   3.713  0.00  0.00    -0.345 N 
ATOM     27  H   UNL     1      -1.430   5.123   4.531  0.00  0.00    +0.144 HD
ATOM     28  H   UNL     1      -1.897   6.536   3.751  0.00  0.00    +0.144 HD
ENDBRANCH  11  26
BRANCH  10  29
ATOM     29  C   UNL     1      -1.663   7.197   1.457  0.00  0.00    +0.099 C 
ATOM     30  N   UNL     1      -1.984   8.285   1.523  0.00  0.00    -0.191 NA
ENDBRANCH  10  29
BRANCH   1  31
ATOM     31  S   UNL     1       1.783   1.290   6.973  0.00  0.00    -0.094 S 
BRANCH  31  33
ATOM     32  C   UNL     1       1.338  -0.265   9.180  0.00  0.00    +0.019 C 
ATOM     33  C   UNL     1       0.589   0.473   8.069  0.00  0.00    +0.047 C 
ATOM     34  C   UNL     1      -0.336   1.523   8.687  0.00  0.00    +0.019 C 
ENDBRANCH  31  33
ENDBRANCH   1  31
TORSDOF 5
