REMARK  Name = ZINC19839261
REMARK  10 active torsions:
REMARK  status: ('A' for Active; 'I' for Inactive)
REMARK    1  A    between atoms: C_1  and  C_2
REMARK    2  A    between atoms: C_2  and  O_3
REMARK    3  A    between atoms: O_3  and  C_4
REMARK    4  A    between atoms: C_7  and  C_10
REMARK    5  A    between atoms: C_10  and  N_11
REMARK    6  A    between atoms: C_17  and  C_19
REMARK    7  A    between atoms: C_19  and  C_20
REMARK    8  A    between atoms: N_22  and  C_23
REMARK    9  A    between atoms: C_23  and  C_24
REMARK   10  A    between atoms: C_28  and  C_32
REMARK                            x       y       z     vdW  Elec       q    Type
REMARK                         _______ _______ _______ _____ _____    ______ ____
ROOT
ATOM      1  N   UNL     1       4.152  -5.551   2.445  0.00  0.00    +0.391 N 
ATOM      2  C   UNL     1       4.509  -6.978   2.497  0.00  0.00    -0.058 C 
ATOM      3  C   UNL     1       4.681  -7.388   3.961  0.00  0.00    +0.085 C 
ATOM      4  N   UNL     1       3.523  -6.959   4.740  0.00  0.00    -0.318 N 
ATOM      5  C   UNL     1       2.668  -6.022   4.316  0.00  0.00    +0.200 C 
ATOM      6  O   UNL     1       1.749  -5.703   5.040  0.00  0.00    -0.278 OA
ATOM      7  C   UNL     1       2.799  -5.348   2.979  0.00  0.00    +0.028 C 
ATOM      8  H   UNL     1       3.323  -7.411   5.723  0.00  0.00    +0.149 HD
ATOM      9  H   UNL     1       4.861  -4.989   3.070  0.00  0.00    -0.080 HD
ENDROOT
BRANCH   1  10
ATOM     10  C   UNL     1       4.260  -5.032   1.075  0.00  0.00    -0.042 C 
BRANCH  10  14
ATOM     11  C   UNL     1       8.141  -5.916  -0.481  0.00  0.00    +0.121 A 
ATOM     12  C   UNL     1       7.101  -6.816  -0.656  0.00  0.00    +0.046 A 
ATOM     13  C   UNL     1       5.847  -6.528  -0.153  0.00  0.00    +0.005 A 
ATOM     14  C   UNL     1       5.629  -5.344   0.526  0.00  0.00    -0.064 A 
ATOM     15  C   UNL     1       6.663  -4.442   0.697  0.00  0.00    +0.005 A 
ATOM     16  C   UNL     1       7.920  -4.728   0.200  0.00  0.00    +0.046 A 
BRANCH  11  17
ATOM     17  O   UNL     1       9.375  -6.197  -0.976  0.00  0.00    -0.492 OA
BRANCH  17  19
ATOM     18  C   UNL     1      11.708  -5.712  -1.381  0.00  0.00    +0.048 C 
ATOM     19  C   UNL     1      10.399  -5.223  -0.758  0.00  0.00    +0.225 C 
ENDBRANCH  17  19
ENDBRANCH  11  17
ENDBRANCH  10  14
ENDBRANCH   1  10
BRANCH   7  20
ATOM     20  C   UNL     1       2.536  -3.849   3.138  0.00  0.00    +0.089 C 
BRANCH  20  21
ATOM     21  C   UNL     1       3.544  -3.261   4.091  0.00  0.00    +0.212 C 
ATOM     22  O   UNL     1       4.448  -3.947   4.518  0.00  0.00    -0.276 OA
ATOM     23  N   UNL     1       3.441  -1.971   4.469  0.00  0.00    -0.310 N 
ATOM     24  H   UNL     1       2.622  -1.348   4.082  0.00  0.00    +0.149 HD
BRANCH  23  25
ATOM     25  C   UNL     1       4.421  -1.399   5.395  0.00  0.00    +0.161 C 
BRANCH  25  26
ATOM     26  C   UNL     1       4.084   0.047   5.654  0.00  0.00    +0.078 A 
ATOM     27  C   UNL     1       3.361   0.513   6.686  0.00  0.00    +0.118 A 
ATOM     28  N   UNL     1       3.282   1.897   6.558  0.00  0.00    -0.300 N 
ATOM     29  C   UNL     1       2.722   2.962   7.230  0.00  0.00    +0.103 A 
ATOM     30  C   UNL     1       2.868   4.206   6.778  0.00  0.00    +0.007 A 
ATOM     31  S   UNL     1       3.844   3.951   5.304  0.00  0.00    -0.055 S 
ATOM     32  C   UNL     1       3.985   2.183   5.418  0.00  0.00    +0.178 A 
ATOM     33  N   UNL     1       4.454   1.088   4.892  0.00  0.00    -0.225 NA
ATOM     34  C   UNL     1       2.342   5.494   7.357  0.00  0.00    +0.053 C 
ENDBRANCH  25  26
ENDBRANCH  23  25
ENDBRANCH  20  21
ENDBRANCH   7  20
TORSDOF 8
