REMARK  Name = ZINC39521610
REMARK  9 active torsions:
REMARK  status: ('A' for Active; 'I' for Inactive)
REMARK    1  A    between atoms: C_1  and  C_2
REMARK    2  A    between atoms: C_2  and  C_3
REMARK    3  A    between atoms: C_2  and  S_4
REMARK    4  A    between atoms: S_4  and  C_7
REMARK    5  A    between atoms: C_17  and  S_27
REMARK    6  A    between atoms: N_19  and  C_20
REMARK    7  A    between atoms: C_25  and  O_26
REMARK    8  A    between atoms: S_27  and  O_30
REMARK    9  A    between atoms: O_30  and  C_31
REMARK                            x       y       z     vdW  Elec       q    Type
REMARK                         _______ _______ _______ _____ _____    ______ ____
ROOT
ATOM      1  C   UNL     1      -0.953   0.329   2.636  0.00  0.00    +0.133 C 
ATOM      2  C   UNL     1      -1.534   1.743   2.682  0.00  0.00    +0.026 C 
ATOM      3  C   UNL     1      -2.292   1.941   3.997  0.00  0.00    +0.004 C 
ATOM      4  C   UNL     1      -1.332   1.747   5.172  0.00  0.00    +0.026 C 
ATOM      5  C   UNL     1      -0.749   0.334   5.125  0.00  0.00    +0.039 C 
ATOM      6  C   UNL     1       0.007   0.134   3.812  0.00  0.00    +0.052 C 
ATOM      7  C   UNL     1       0.207   0.134   6.305  0.00  0.00    +0.026 C 
ATOM      8  C   UNL     1      -0.585   0.196   7.613  0.00  0.00    +0.006 C 
ATOM      9  C   UNL     1      -1.627  -0.925   7.635  0.00  0.00    +0.050 C 
ATOM     10  C   UNL     1      -2.603  -0.733   6.471  0.00  0.00    +0.258 C 
ATOM     11  N   UNL     1      -1.836  -0.647   5.220  0.00  0.00    -0.297 N 
ENDROOT
BRANCH  11  12
ATOM     12  C   UNL     1      -2.137  -1.486   4.140  0.00  0.00    +0.074 A 
ATOM     13  C   UNL     1      -3.282  -1.267   3.388  0.00  0.00    +0.027 A 
ATOM     14  C   UNL     1      -3.576  -2.096   2.322  0.00  0.00    +0.002 A 
ATOM     15  C   UNL     1      -2.732  -3.143   2.002  0.00  0.00    +0.004 A 
ATOM     16  C   UNL     1      -1.589  -3.367   2.747  0.00  0.00    +0.047 A 
ATOM     17  C   UNL     1      -1.284  -2.538   3.814  0.00  0.00    +0.138 A 
BRANCH  17  18
ATOM     18  O   UNL     1      -0.157  -2.753   4.545  0.00  0.00    -0.505 OA
ATOM     19  H   UNL     1      -0.264  -3.408   5.249  0.00  0.00    +0.292 HD
ENDBRANCH  17  18
ENDBRANCH  11  12
BRANCH   1  20
ATOM     20  S   UNL     1      -0.055   0.095   1.077  0.00  0.00    -0.026 S 
ATOM     21  O   UNL     1       0.240  -1.288   0.932  0.00  0.00    -0.174 OA
ATOM     22  O   UNL     1       1.006   1.038   1.024  0.00  0.00    -0.174 OA
BRANCH  20  24
ATOM     23  C   UNL     1      -0.728   0.287  -1.567  0.00  0.00    +0.031 C 
ATOM     24  C   UNL     1      -1.291   0.551  -0.169  0.00  0.00    +0.125 C 
ATOM     25  C   UNL     1      -2.556  -0.285   0.037  0.00  0.00    +0.031 C 
ENDBRANCH  20  24
ENDBRANCH   1  20
BRANCH  10  26
ATOM     26  S   UNL     1      -3.743  -2.142   6.394  0.00  0.00    +0.140 S 
ATOM     27  O   UNL     1      -4.763  -1.895   5.436  0.00  0.00    -0.135 OA
ATOM     28  O   UNL     1      -3.013  -3.362   6.378  0.00  0.00    -0.135 OA
BRANCH  26  29
ATOM     29  O   UNL     1      -4.461  -2.138   7.736  0.00  0.00    -0.345 OA
BRANCH  29  30
ATOM     30  C   UNL     1      -5.403  -1.166   7.856  0.00  0.00    +0.156 A 
ATOM     31  C   UNL     1      -5.055   0.082   8.353  0.00  0.00    +0.048 A 
ATOM     32  C   UNL     1      -6.014   1.069   8.473  0.00  0.00    +0.004 A 
ATOM     33  C   UNL     1      -7.320   0.814   8.099  0.00  0.00    +0.000 A 
ATOM     34  C   UNL     1      -7.670  -0.429   7.604  0.00  0.00    +0.004 A 
ATOM     35  C   UNL     1      -6.713  -1.417   7.476  0.00  0.00    +0.048 A 
ENDBRANCH  29  30
ENDBRANCH  26  29
ENDBRANCH  10  26
TORSDOF 7
