REMARK  Name = ZINC03293329
REMARK  9 active torsions:
REMARK  status: ('A' for Active; 'I' for Inactive)
REMARK    1  A    between atoms: C_4  and  C_7
REMARK    2  A    between atoms: C_7  and  C_8
REMARK    3  A    between atoms: C_7  and  C_30
REMARK    4  A    between atoms: C_8  and  C_9
REMARK    5  A    between atoms: N_11  and  N_12
REMARK    6  A    between atoms: C_13  and  C_15
REMARK    7  A    between atoms: C_18  and  C_21
REMARK    8  A    between atoms: C_21  and  S_22
REMARK    9  A    between atoms: S_22  and  C_23
REMARK                            x       y       z     vdW  Elec       q    Type
REMARK                         _______ _______ _______ _____ _____    ______ ____
ROOT
ATOM      1  N   UNL     1       1.516   3.943  -0.709  0.00  0.00    -0.230 N 
ATOM      2  C   UNL     1       0.189   3.798  -0.895  0.00  0.00    +0.260 C 
ATOM      3  O   UNL     1      -0.300   2.687  -0.944  0.00  0.00    -0.269 OA
ATOM      4  H   UNL     1       1.958   4.949  -0.665  0.00  0.00    +0.173 HD
ENDROOT
BRANCH   2   5
ATOM      5  C   UNL     1      -0.672   4.991  -1.044  0.00  0.00    +0.038 A 
ATOM      6  C   UNL     1      -0.114   6.269  -0.983  0.00  0.00    +0.013 A 
ATOM      7  C   UNL     1      -0.922   7.378  -1.129  0.00  0.00    +0.005 A 
ATOM      8  C   UNL     1      -2.283   7.226  -1.325  0.00  0.00    -0.037 A 
ATOM      9  C   UNL     1      -2.842   5.962  -1.381  0.00  0.00    +0.005 A 
ATOM     10  C   UNL     1      -2.045   4.845  -1.242  0.00  0.00    +0.013 A 
BRANCH   8  11
ATOM     11  C   UNL     1      -3.160   8.442  -1.478  0.00  0.00    +0.109 C 
BRANCH  11  12
ATOM     12  S   UNL     1      -3.759   8.964   0.153  0.00  0.00    -0.121 S 
BRANCH  12  13
ATOM     13  C   UNL     1      -4.755  10.376  -0.191  0.00  0.00    +0.008 A 
ATOM     14  C   UNL     1      -4.904  10.821  -1.498  0.00  0.00    +0.016 A 
ATOM     15  C   UNL     1      -5.690  11.925  -1.765  0.00  0.00    +0.021 A 
ATOM     16  C   UNL     1      -6.319  12.594  -0.731  0.00  0.00    +0.041 A 
ATOM     17  C   UNL     1      -6.168  12.157   0.574  0.00  0.00    +0.021 A 
ATOM     18  C   UNL     1      -5.389  11.050   0.846  0.00  0.00    +0.016 A 
ATOM     19 CL   UNL     1      -7.301  13.985  -1.069  0.00  0.00    -0.084 Cl
ENDBRANCH  12  13
ENDBRANCH  11  12
ENDBRANCH   8  11
ENDBRANCH   2   5
BRANCH   1  22
ATOM     20  C   UNL     1       3.659   2.958  -0.388  0.00  0.00    +0.230 C 
ATOM     21  O   UNL     1       4.146   4.067  -0.339  0.00  0.00    -0.274 OA
ATOM     22  N   UNL     1       2.332   2.813  -0.573  0.00  0.00    -0.234 N 
ATOM     23  H   UNL     1       1.889   1.806  -0.618  0.00  0.00    +0.173 HD
BRANCH  20  24
ATOM     24  C   UNL     1       4.536   1.741  -0.241  0.00  0.00    +0.110 C 
BRANCH  24  25
ATOM     25  C   UNL     1       5.988   2.181  -0.043  0.00  0.00    +0.058 C 
BRANCH  25  29
ATOM     26  C   UNL     1       6.348   4.285   3.657  0.00  0.00    +0.000 A 
ATOM     27  C   UNL     1       5.752   3.038   3.626  0.00  0.00    +0.000 A 
ATOM     28  C   UNL     1       5.636   2.357   2.428  0.00  0.00    +0.004 A 
ATOM     29  C   UNL     1       6.115   2.924   1.262  0.00  0.00    -0.040 A 
ATOM     30  C   UNL     1       6.715   4.168   1.294  0.00  0.00    +0.004 A 
ATOM     31  C   UNL     1       6.827   4.851   2.490  0.00  0.00    +0.000 A 
ENDBRANCH  25  29
BRANCH  25  32
ATOM     32  C   UNL     1       6.882   0.968  -0.020  0.00  0.00    -0.040 A 
ATOM     33  C   UNL     1       6.599  -0.082   0.833  0.00  0.00    +0.004 A 
ATOM     34  C   UNL     1       7.416  -1.197   0.851  0.00  0.00    +0.000 A 
ATOM     35  C   UNL     1       8.521  -1.258   0.023  0.00  0.00    +0.000 A 
ATOM     36  C   UNL     1       8.807  -0.205  -0.826  0.00  0.00    +0.000 A 
ATOM     37  C   UNL     1       7.987   0.907  -0.848  0.00  0.00    +0.004 A 
ENDBRANCH  25  32
ENDBRANCH  24  25
ENDBRANCH  20  24
ENDBRANCH   1  22
TORSDOF 9
