REMARK  Name = ZINC50617427
REMARK  6 active torsions:
REMARK  status: ('A' for Active; 'I' for Inactive)
REMARK    1  A    between atoms: C_1  and  O_2
REMARK    2  A    between atoms: O_2  and  C_3
REMARK    3  A    between atoms: C_7  and  C_11
REMARK    4  A    between atoms: C_8  and  O_9
REMARK    5  A    between atoms: O_9  and  C_10
REMARK    6  A    between atoms: C_28  and  C_30
REMARK                            x       y       z     vdW  Elec       q    Type
REMARK                         _______ _______ _______ _____ _____    ______ ____
ROOT
ATOM      1  C   UNL     1       1.125  -3.805   2.072  0.00  0.00    +0.218 C 
ATOM      2  C   UNL     1      -0.165  -4.486   2.528  0.00  0.00    +0.113 C 
ATOM      3  C   UNL     1      -0.404  -3.990   3.945  0.00  0.00    +0.065 C 
ATOM      4  C   UNL     1       0.754  -3.987   4.846  0.00  0.00    +0.039 A 
ATOM      5  C   UNL     1       0.603  -3.891   6.229  0.00  0.00    +0.013 A 
ATOM      6  C   UNL     1       1.720  -3.883   7.037  0.00  0.00    +0.001 A 
ATOM      7  C   UNL     1       2.985  -3.967   6.478  0.00  0.00    +0.004 A 
ATOM      8  C   UNL     1       3.147  -4.065   5.110  0.00  0.00    +0.046 A 
ATOM      9  C   UNL     1       2.037  -4.080   4.277  0.00  0.00    +0.130 A 
ATOM     10  O   UNL     1       2.195  -4.191   2.936  0.00  0.00    -0.483 OA
ATOM     11  N   UNL     1      -1.566  -3.541   4.285  0.00  0.00    -0.215 NA
ATOM     12  C   UNL     1      -2.605  -3.371   3.429  0.00  0.00    +0.249 A 
ATOM     13  N   UNL     1      -3.844  -2.952   3.662  0.00  0.00    -0.198 NA
ATOM     14  C   UNL     1      -4.527  -2.901   2.524  0.00  0.00    +0.247 A 
ATOM     15  N   UNL     1      -3.759  -3.289   1.538  0.00  0.00    -0.156 NA
ATOM     16  N   UNL     1      -2.519  -3.619   2.098  0.00  0.00    -0.221 N 
ATOM     17  C   UNL     1      -1.280  -4.159   1.518  0.00  0.00    +0.154 C 
ENDROOT
BRANCH  17  18
ATOM     18  C   UNL     1      -0.744  -3.155   0.530  0.00  0.00    -0.022 A 
ATOM     19  C   UNL     1       0.272  -3.514  -0.337  0.00  0.00    +0.008 A 
ATOM     20  C   UNL     1       0.764  -2.595  -1.244  0.00  0.00    +0.038 A 
ATOM     21  C   UNL     1       0.239  -1.314  -1.284  0.00  0.00    +0.123 A 
ATOM     22  C   UNL     1      -0.778  -0.956  -0.416  0.00  0.00    +0.038 A 
ATOM     23  C   UNL     1      -1.272  -1.879   0.487  0.00  0.00    +0.008 A 
ATOM     24  F   UNL     1       0.720  -0.414  -2.170  0.00  0.00    -0.205 F 
ENDBRANCH  17  18
BRANCH   1  29
ATOM     25  C   UNL     1       1.778  -0.097   1.683  0.00  0.00    +0.162 A 
ATOM     26  C   UNL     1       0.622   0.441   2.227  0.00  0.00    +0.049 A 
ATOM     27  C   UNL     1      -0.364  -0.395   2.717  0.00  0.00    +0.004 A 
ATOM     28  C   UNL     1      -0.201  -1.767   2.666  0.00  0.00    +0.011 A 
ATOM     29  C   UNL     1       0.950  -2.309   2.125  0.00  0.00    +0.039 A 
ATOM     30  C   UNL     1       1.940  -1.478   1.627  0.00  0.00    +0.168 A 
BRANCH  25  32
ATOM     31  C   UNL     1       2.515   2.130   1.291  0.00  0.00    +0.277 C 
ATOM     32  O   UNL     1       2.749   0.724   1.200  0.00  0.00    -0.491 OA
ENDBRANCH  25  32
BRANCH  30  33
ATOM     33  O   UNL     1       3.070  -2.010   1.089  0.00  0.00    -0.491 OA
ATOM     34  C   UNL     1       4.201  -2.138   1.952  0.00  0.00    +0.277 C 
ENDBRANCH  30  33
ENDBRANCH   1  29
TORSDOF 4
