REMARK  Name = ZINC65461942
REMARK  6 active torsions:
REMARK  status: ('A' for Active; 'I' for Inactive)
REMARK    1  A    between atoms: C_1  and  C_2
REMARK    2  A    between atoms: C_2  and  C_3
REMARK    3  A    between atoms: C_2  and  C_4
REMARK    4  A    between atoms: C_2  and  C_5
REMARK    5  A    between atoms: C_7  and  C_11
REMARK    6  A    between atoms: C_20  and  C_23
REMARK                            x       y       z     vdW  Elec       q    Type
REMARK                         _______ _______ _______ _____ _____    ______ ____
ROOT
ATOM      1  C   UNL     1       1.069  -0.468  -4.742  0.00  0.00    +0.044 C 
ATOM      2  C   UNL     1       1.188   0.962  -5.276  0.00  0.00    +0.103 C 
ATOM      3  C   UNL     1       2.594   1.330  -5.637  0.00  0.00    +0.218 C 
ATOM      4  O   UNL     1       2.872   2.508  -5.719  0.00  0.00    -0.275 OA
ATOM      5  N   UNL     1       3.571   0.430  -5.876  0.00  0.00    -0.272 N 
ATOM      6  C   UNL     1       3.276  -0.894  -5.671  0.00  0.00    +0.133 C 
ATOM      7  N   UNL     1       4.005  -1.921  -5.412  0.00  0.00    -0.138 NA
ATOM      8  N   UNL     1       3.236  -3.022  -5.034  0.00  0.00    -0.156 NA
ATOM      9  C   UNL     1       1.964  -2.796  -5.140  0.00  0.00    +0.055 C 
ATOM     10  C   UNL     1       1.835  -1.398  -5.686  0.00  0.00    +0.107 C 
ATOM     11  H   UNL     1       4.448   0.709  -6.182  0.00  0.00    +0.156 HD
ENDROOT
BRANCH   1  14
ATOM     12  C   UNL     1       0.460  -0.284  -1.462  0.00  0.00    +0.067 C 
ATOM     13  C   UNL     1       1.018   0.465  -2.415  0.00  0.00    +0.027 C 
ATOM     14  C   UNL     1       1.673  -0.547  -3.338  0.00  0.00    +0.157 C 
ATOM     15  N   UNL     1       1.350  -1.834  -2.700  0.00  0.00    -0.180 NA
ATOM     16  N   UNL     1       0.694  -1.596  -1.684  0.00  0.00    -0.158 NA
BRANCH  12  18
ATOM     17  C   UNL     1      -0.372   1.787  -0.381  0.00  0.00    +0.017 C 
ATOM     18  C   UNL     1      -0.321   0.261  -0.293  0.00  0.00    +0.006 C 
ATOM     19  C   UNL     1       0.362  -0.152   1.013  0.00  0.00    +0.017 C 
ATOM     20  C   UNL     1      -1.744  -0.300  -0.324  0.00  0.00    +0.017 C 
ENDBRANCH  12  18
ENDBRANCH   1  14
BRANCH   9  21
ATOM     21  C   UNL     1       0.843  -3.739  -4.789  0.00  0.00    +0.036 C 
ATOM     22  C   UNL     1       1.288  -5.206  -4.662  0.00  0.00    +0.009 C 
ATOM     23  C   UNL     1      -0.023  -5.583  -5.372  0.00  0.00    +0.001 C 
ATOM     24  C   UNL     1       0.006  -4.180  -6.002  0.00  0.00    +0.009 C 
ENDBRANCH   9  21
TORSDOF 3
