REMARK  Name = ZINC39914977
REMARK  13 active torsions:
REMARK  status: ('A' for Active; 'I' for Inactive)
REMARK    1  A    between atoms: C_1  and  C_2
REMARK    2  A    between atoms: C_4  and  O_35
REMARK    3  A    between atoms: C_5  and  C_9
REMARK    4  A    between atoms: N_17  and  C_28
REMARK    5  A    between atoms: C_18  and  C_20
REMARK    6  A    between atoms: C_23  and  S_26
REMARK    7  A    between atoms: S_26  and  C_27
REMARK    8  A    between atoms: C_28  and  C_29
REMARK    9  A    between atoms: C_29  and  C_30
REMARK   10  A    between atoms: C_30  and  O_31
REMARK   11  A    between atoms: O_31  and  C_32
REMARK   12  A    between atoms: C_32  and  C_33
REMARK   13  A    between atoms: C_32  and  C_34
REMARK                            x       y       z     vdW  Elec       q    Type
REMARK                         _______ _______ _______ _____ _____    ______ ____
ROOT
ATOM      1  C   UNL     1      -0.190  -4.648  -0.085  0.00  0.00    +0.102 A 
ATOM      2  C   UNL     1       0.060  -5.307   1.123  0.00  0.00    +0.035 A 
ATOM      3  C   UNL     1       0.107  -6.653   0.816  0.00  0.00    +0.126 A 
ATOM      4  N   UNL     1      -0.112  -6.742  -0.530  0.00  0.00    -0.272 N 
ATOM      5  H   UNL     1      -0.137  -7.569  -1.036  0.00  0.00    +0.189 HD
ATOM      6  N   UNL     1      -0.286  -5.569  -1.024  0.00  0.00    -0.173 NA
ATOM      7  C   UNL     1       0.367  -7.404   2.048  0.00  0.00    +0.265 C 
ATOM      8  O   UNL     1       0.467  -8.615   2.115  0.00  0.00    -0.268 OA
ATOM      9  N   UNL     1       0.481  -6.565   3.093  0.00  0.00    -0.285 N 
ATOM     10  C   UNL     1       0.299  -5.193   2.604  0.00  0.00    +0.141 C 
ENDROOT
BRANCH   1  15
ATOM     11  C   UNL     1      -0.726   1.044  -0.817  0.00  0.00    +0.045 C 
ATOM     12  C   UNL     1      -0.588  -0.445  -0.627  0.00  0.00    -0.029 A 
ATOM     13  C   UNL     1      -1.508  -1.300  -1.204  0.00  0.00    +0.050 A 
ATOM     14  C   UNL     1      -1.386  -2.669  -1.032  0.00  0.00    +0.126 A 
ATOM     15  C   UNL     1      -0.329  -3.182  -0.275  0.00  0.00    +0.045 A 
ATOM     16  C   UNL     1       0.594  -2.313   0.302  0.00  0.00    +0.034 A 
ATOM     17  C   UNL     1       0.463  -0.950   0.118  0.00  0.00    +0.045 A 
ATOM     18 CL   UNL     1       1.617   0.134   0.832  0.00  0.00    -0.083 Cl
BRANCH  14  19
ATOM     19  O   UNL     1      -2.290  -3.511  -1.597  0.00  0.00    -0.506 OA
ATOM     20  H   UNL     1      -2.054  -3.801  -2.489  0.00  0.00    +0.292 HD
ENDBRANCH  14  19
ENDBRANCH   1  15
BRANCH  10  21
ATOM     21  C   UNL     1      -0.891  -4.556   3.274  0.00  0.00    -0.022 A 
ATOM     22  C   UNL     1      -2.056  -5.282   3.445  0.00  0.00    +0.007 A 
ATOM     23  C   UNL     1      -3.149  -4.702   4.058  0.00  0.00    +0.015 A 
ATOM     24  C   UNL     1      -3.077  -3.388   4.504  0.00  0.00    +0.008 A 
ATOM     25  C   UNL     1      -1.904  -2.662   4.332  0.00  0.00    +0.015 A 
ATOM     26  C   UNL     1      -0.813  -3.250   3.722  0.00  0.00    +0.007 A 
BRANCH  24  27
ATOM     27  S   UNL     1      -4.469  -2.643   5.287  0.00  0.00    -0.129 S 
ATOM     28  C   UNL     1      -3.904  -0.965   5.683  0.00  0.00    +0.090 C 
ENDBRANCH  24  27
ENDBRANCH  10  21
BRANCH   9  29
ATOM     29  C   UNL     1       0.741  -6.954   4.482  0.00  0.00    +0.111 C 
BRANCH  29  30
ATOM     30  C   UNL     1       2.250  -6.986   4.729  0.00  0.00    +0.047 C 
BRANCH  30  31
ATOM     31  C   UNL     1       2.522  -7.392   6.178  0.00  0.00    +0.161 C 
BRANCH  31  32
ATOM     32  O   UNL     1       3.932  -7.421   6.409  0.00  0.00    -0.377 OA
BRANCH  32  33
ATOM     33  C   UNL     1       4.295  -7.791   7.740  0.00  0.00    +0.112 C 
ATOM     34  C   UNL     1       5.651  -8.501   7.720  0.00  0.00    +0.037 C 
ATOM     35  C   UNL     1       4.390  -6.537   8.611  0.00  0.00    +0.037 C 
ENDBRANCH  32  33
ENDBRANCH  31  32
ENDBRANCH  30  31
ENDBRANCH  29  30
ENDBRANCH   9  29
TORSDOF 9
