REMARK  Name = ZINC39826360
REMARK  11 active torsions:
REMARK  status: ('A' for Active; 'I' for Inactive)
REMARK    1  A    between atoms: C_1  and  C_2
REMARK    2  A    between atoms: C_7  and  C_8
REMARK    3  A    between atoms: C_14  and  C_29
REMARK    4  A    between atoms: N_16  and  C_19
REMARK    5  A    between atoms: C_19  and  C_20
REMARK    6  A    between atoms: C_33  and  O_35
REMARK    7  A    between atoms: O_35  and  C_36
REMARK    8  A    between atoms: C_36  and  C_37
REMARK    9  A    between atoms: C_37  and  C_38
REMARK   10  A    between atoms: C_38  and  C_39
REMARK   11  A    between atoms: C_38  and  C_40
REMARK                            x       y       z     vdW  Elec       q    Type
REMARK                         _______ _______ _______ _____ _____    ______ ____
ROOT
ATOM      1  C   UNL     1      -0.018   1.503   0.010  0.00  0.00    +0.044 C 
ATOM      2  C   UNL     1       0.002  -0.004   0.002  0.00  0.00    -0.047 A 
ATOM      3  C   UNL     1       0.006  -0.685  -1.195  0.00  0.00    +0.019 A 
ATOM      4  C   UNL     1       0.024  -2.080  -1.194  0.00  0.00    +0.065 A 
ATOM      5  C   UNL     1       0.033  -2.793   0.016  0.00  0.00    +0.140 A 
ATOM      6  C   UNL     1       0.033  -2.080   1.214  0.00  0.00    +0.050 A 
ATOM      7  C   UNL     1       0.023  -0.703   1.200  0.00  0.00    -0.044 A 
ATOM      8  C   UNL     1       0.029   0.053   2.503  0.00  0.00    +0.044 C 
ATOM      9  O   UNL     1       0.037  -4.145   0.057  0.00  0.00    -0.450 OA
ATOM     10  C   UNL     1       0.273  -4.846  -1.070  0.00  0.00    +0.199 A 
ATOM     11  C   UNL     1       0.280  -4.269  -2.308  0.00  0.00    +0.072 A 
ATOM     12  C   UNL     1       0.036  -2.832  -2.474  0.00  0.00    +0.199 A 
ATOM     13  O   UNL     1      -0.140  -2.306  -3.559  0.00  0.00    -0.287 OA
ATOM     14  C   UNL     1       0.566  -5.340  -3.308  0.00  0.00    +0.145 C 
ATOM     15  N   UNL     1       0.729  -6.581  -2.533  0.00  0.00    -0.279 N 
ATOM     16  C   UNL     1       0.557  -6.283  -1.228  0.00  0.00    +0.283 C 
ATOM     17  O   UNL     1       0.627  -7.083  -0.317  0.00  0.00    -0.267 OA
ENDROOT
BRANCH  14  18
ATOM     18  C   UNL     1      -0.586  -5.474  -4.271  0.00  0.00    -0.019 A 
ATOM     19  C   UNL     1      -1.730  -6.150  -3.888  0.00  0.00    +0.006 A 
ATOM     20  C   UNL     1      -2.789  -6.275  -4.769  0.00  0.00    +0.004 A 
ATOM     21  C   UNL     1      -2.706  -5.725  -6.033  0.00  0.00    +0.045 A 
ATOM     22  C   UNL     1      -1.559  -5.046  -6.419  0.00  0.00    +0.121 A 
ATOM     23  C   UNL     1      -0.500  -4.917  -5.532  0.00  0.00    +0.051 A 
BRANCH  22  24
ATOM     24  O   UNL     1      -1.475  -4.504  -7.662  0.00  0.00    -0.492 OA
BRANCH  24  25
ATOM     25  C   UNL     1      -2.605  -4.671  -8.521  0.00  0.00    +0.229 C 
BRANCH  25  26
ATOM     26  C   UNL     1      -2.327  -3.999  -9.867  0.00  0.00    +0.044 C 
BRANCH  26  27
ATOM     27  C   UNL     1      -3.537  -4.177 -10.786  0.00  0.00    -0.014 C 
ATOM     28  C   UNL     1      -4.737  -3.430 -10.200  0.00  0.00    +0.007 C 
ATOM     29  C   UNL     1      -3.213  -3.615 -12.171  0.00  0.00    +0.007 C 
ENDBRANCH  26  27
ENDBRANCH  25  26
ENDBRANCH  24  25
ENDBRANCH  22  24
ENDBRANCH  14  18
BRANCH  15  30
ATOM     30  C   UNL     1       1.025  -7.907  -3.081  0.00  0.00    +0.144 C 
BRANCH  30  31
ATOM     31  C   UNL     1       2.518  -8.101  -3.145  0.00  0.00    -0.026 A 
ATOM     32  C   UNL     1       3.215  -7.725  -4.278  0.00  0.00    +0.009 A 
ATOM     33  C   UNL     1       4.584  -7.901  -4.342  0.00  0.00    +0.050 A 
ATOM     34  C   UNL     1       5.262  -8.456  -3.269  0.00  0.00    +0.166 A 
ATOM     35  C   UNL     1       4.561  -8.836  -2.127  0.00  0.00    +0.167 A 
ATOM     36  C   UNL     1       3.189  -8.651  -2.068  0.00  0.00    +0.054 A 
ATOM     37  O   UNL     1       5.444  -9.350  -1.223  0.00  0.00    -0.453 OA
ATOM     38  C   UNL     1       6.631  -9.659  -1.978  0.00  0.00    +0.466 C 
ATOM     39  O   UNL     1       6.586  -8.733  -3.080  0.00  0.00    -0.453 OA
ENDBRANCH  30  31
ENDBRANCH  15  30
TORSDOF 7
