REMARK  Name = ZINC25006937
REMARK  6 active torsions:
REMARK  status: ('A' for Active; 'I' for Inactive)
REMARK    1  A    between atoms: C_3  and  C_6
REMARK    2  A    between atoms: C_15  and  C_17
REMARK    3  A    between atoms: C_17  and  S_18
REMARK    4  A    between atoms: S_18  and  C_19
REMARK    5  A    between atoms: C_22  and  C_24
REMARK    6  A    between atoms: C_25  and  C_26
REMARK                            x       y       z     vdW  Elec       q    Type
REMARK                         _______ _______ _______ _____ _____    ______ ____
ROOT
ATOM      1  C   UNL     1      -7.694  -2.615   0.064  0.00  0.00    +0.039 A 
ATOM      2  C   UNL     1      -7.530  -3.962   0.054  0.00  0.00    +0.059 A 
ATOM      3  S   UNL     1      -5.759  -4.162   0.035  0.00  0.00    -0.076 S 
ATOM      4  C   UNL     1      -5.284  -2.452   0.040  0.00  0.00    +0.116 A 
ATOM      5  C   UNL     1      -6.508  -1.765   0.057  0.00  0.00    +0.083 A 
ATOM      6  C   UNL     1      -6.418  -0.337   0.064  0.00  0.00    +0.260 A 
ATOM      7  O   UNL     1      -7.427   0.347   0.078  0.00  0.00    -0.267 OA
ATOM      8  N   UNL     1      -5.202   0.240   0.060  0.00  0.00    -0.310 N 
ATOM      9  H   UNL     1      -5.114   1.336   0.074  0.00  0.00    +0.170 HD
ATOM     10  C   UNL     1      -4.068  -0.506   0.039  0.00  0.00    +0.121 A 
ATOM     11  N   UNL     1      -4.118  -1.811   0.032  0.00  0.00    -0.226 NA
ENDROOT
BRANCH   1  14
ATOM     12  C   UNL     1     -11.166  -1.537  -0.382  0.00  0.00    +0.042 A 
ATOM     13  C   UNL     1     -10.069  -2.339  -0.758  0.00  0.00    +0.050 A 
ATOM     14  C   UNL     1      -9.046  -2.021   0.081  0.00  0.00    +0.136 A 
ATOM     15  O   UNL     1      -9.480  -1.067   0.927  0.00  0.00    -0.463 OA
ATOM     16  C   UNL     1     -10.761  -0.772   0.649  0.00  0.00    +0.196 A 
ENDBRANCH   1  14
BRANCH  10  17
ATOM     17  C   UNL     1      -2.728   0.184   0.030  0.00  0.00    +0.151 C 
BRANCH  17  18
ATOM     18  S   UNL     1      -1.410  -1.057   0.010  0.00  0.00    -0.077 S 
BRANCH  18  19
ATOM     19  C   UNL     1       0.002  -0.004   0.002  0.00  0.00    +0.209 A 
ATOM     20  N   UNL     1       1.292  -0.407  -0.013  0.00  0.00    -0.145 NA
ATOM     21  N   UNL     1       2.076   0.758  -0.014  0.00  0.00    -0.258 N 
ATOM     22  C   UNL     1       1.244   1.779  -0.000  0.00  0.00    +0.150 A 
ATOM     23  N   UNL     1      -0.016   1.310   0.009  0.00  0.00    -0.202 NA
ATOM     24  H   UNL     1       3.174   0.682  -0.025  0.00  0.00    +0.191 HD
BRANCH  22  25
ATOM     25  C   UNL     1       1.630   3.200   0.003  0.00  0.00    +0.049 C 
ATOM     26  C   UNL     1       2.932   3.544  -0.008  0.00  0.00    +0.018 C 
BRANCH  26  27
ATOM     27  C   UNL     1       3.317   4.958  -0.004  0.00  0.00    +0.012 A 
ATOM     28  C   UNL     1       4.583   5.519  -0.008  0.00  0.00    +0.015 A 
ATOM     29  C   UNL     1       4.690   6.890  -0.007  0.00  0.00    +0.008 A 
ATOM     30  C   UNL     1       3.561   7.646   0.007  0.00  0.00    +0.046 A 
ATOM     31  S   UNL     1       2.275   6.408   0.013  0.00  0.00    -0.097 S 
ENDBRANCH  26  27
ENDBRANCH  22  25
ENDBRANCH  18  19
ENDBRANCH  17  18
ENDBRANCH  10  17
TORSDOF 6
