REMARK  Name = ZINC40014705
REMARK  16 active torsions:
REMARK  status: ('A' for Active; 'I' for Inactive)
REMARK    1  A    between atoms: C_1  and  C_2
REMARK    2  A    between atoms: C_2  and  C_3
REMARK    3  A    between atoms: C_3  and  C_4
REMARK    4  A    between atoms: C_4  and  N_5
REMARK    5  A    between atoms: N_5  and  C_6
REMARK    6  A    between atoms: N_5  and  C_10
REMARK    7  A    between atoms: C_6  and  C_7
REMARK    8  A    between atoms: C_7  and  C_8
REMARK    9  A    between atoms: C_8  and  C_9
REMARK   10  A    between atoms: C_10  and  C_11
REMARK   11  A    between atoms: C_11  and  C_12
REMARK   12  A    between atoms: C_12  and  N_13
REMARK   13  A    between atoms: C_14  and  C_30
REMARK   14  A    between atoms: C_34  and  O_36
REMARK   15  A    between atoms: O_36  and  C_37
REMARK   16  A    between atoms: C_37  and  C_38
REMARK                            x       y       z     vdW  Elec       q    Type
REMARK                         _______ _______ _______ _____ _____    ______ ____
ROOT
ATOM      1  N   UNL     1      -5.694  -6.708   0.112  0.00  0.00    -0.284 N 
ATOM      2  C   UNL     1      -6.660  -6.857   1.213  0.00  0.00    +0.145 C 
ATOM      3  C   UNL     1      -7.902  -7.407   0.594  0.00  0.00    +0.072 A 
ATOM      4  C   UNL     1      -9.195  -7.773   1.182  0.00  0.00    +0.199 A 
ATOM      5  O   UNL     1      -9.507  -7.502   2.328  0.00  0.00    -0.287 OA
ATOM      6  C   UNL     1     -10.088  -8.504   0.248  0.00  0.00    +0.066 A 
ATOM      7  C   UNL     1     -11.264  -9.092   0.711  0.00  0.00    +0.035 A 
ATOM      8  C   UNL     1     -12.078  -9.771  -0.169  0.00  0.00    +0.042 A 
ATOM      9  C   UNL     1     -11.726  -9.868  -1.510  0.00  0.00    +0.023 A 
ATOM     10  C   UNL     1     -10.568  -9.290  -1.978  0.00  0.00    +0.048 A 
ATOM     11  C   UNL     1      -9.729  -8.595  -1.107  0.00  0.00    +0.140 A 
ATOM     12  O   UNL     1      -8.602  -8.027  -1.596  0.00  0.00    -0.450 OA
ATOM     13  C   UNL     1      -7.670  -7.555  -0.744  0.00  0.00    +0.199 A 
ATOM     14  C   UNL     1      -6.293  -7.113  -1.026  0.00  0.00    +0.283 C 
ATOM     15  O   UNL     1      -5.773  -7.116  -2.124  0.00  0.00    -0.267 OA
ATOM     16 CL   UNL     1     -13.545 -10.507   0.397  0.00  0.00    -0.084 Cl
ENDROOT
BRANCH   2  17
ATOM     17  C   UNL     1      -6.941  -5.517   1.843  0.00  0.00    -0.019 A 
ATOM     18  C   UNL     1      -7.077  -4.394   1.046  0.00  0.00    +0.006 A 
ATOM     19  C   UNL     1      -7.335  -3.163   1.621  0.00  0.00    +0.004 A 
ATOM     20  C   UNL     1      -7.456  -3.052   2.993  0.00  0.00    +0.045 A 
ATOM     21  C   UNL     1      -7.320  -4.176   3.794  0.00  0.00    +0.121 A 
ATOM     22  C   UNL     1      -7.067  -5.412   3.214  0.00  0.00    +0.051 A 
BRANCH  21  23
ATOM     23  O   UNL     1      -7.439  -4.069   5.143  0.00  0.00    -0.488 OA
BRANCH  23  24
ATOM     24  C   UNL     1      -7.705  -2.768   5.670  0.00  0.00    +0.256 C 
BRANCH  24  25
ATOM     25  C   UNL     1      -7.803  -2.844   7.172  0.00  0.00    +0.006 C 
ATOM     26  C   UNL     1      -7.198  -1.951   7.914  0.00  0.00    +0.007 C 
ENDBRANCH  24  25
ENDBRANCH  23  24
ENDBRANCH  21  23
ENDBRANCH   2  17
BRANCH   1  27
ATOM     27  C   UNL     1      -4.324  -6.202   0.230  0.00  0.00    +0.107 C 
BRANCH  27  28
ATOM     28  C   UNL     1      -4.324  -4.684   0.043  0.00  0.00    +0.000 C 
BRANCH  28  29
ATOM     29  C   UNL     1      -2.893  -4.155   0.167  0.00  0.00    -0.077 C 
BRANCH  29  30
ATOM     30  N   UNL     1      -2.874  -2.717  -0.134  0.00  0.00    +0.380 N 
ATOM     31  H   UNL     1      -3.287  -2.558  -1.041  0.00  0.00    -0.082 HD
BRANCH  30  32
ATOM     32  C   UNL     1      -3.642  -1.993   0.888  0.00  0.00    -0.079 C 
BRANCH  32  33
ATOM     33  C   UNL     1      -3.728  -0.514   0.508  0.00  0.00    -0.019 C 
BRANCH  33  35
ATOM     34  C   UNL     1      -4.614   1.720   1.191  0.00  0.00    +0.004 C 
ATOM     35  C   UNL     1      -4.528   0.241   1.571  0.00  0.00    -0.005 C 
ENDBRANCH  33  35
ENDBRANCH  32  33
ENDBRANCH  30  32
BRANCH  30  36
ATOM     36  C   UNL     1      -1.486  -2.236  -0.136  0.00  0.00    -0.079 C 
BRANCH  36  37
ATOM     37  C   UNL     1      -0.727  -2.873  -1.301  0.00  0.00    -0.019 C 
BRANCH  37  38
ATOM     38  C   UNL     1       0.737  -2.430  -1.259  0.00  0.00    -0.005 C 
ATOM     39  C   UNL     1       1.496  -3.068  -2.424  0.00  0.00    +0.004 C 
ENDBRANCH  37  38
ENDBRANCH  36  37
ENDBRANCH  30  36
ENDBRANCH  29  30
ENDBRANCH  28  29
ENDBRANCH  27  28
ENDBRANCH   1  27
TORSDOF 14
