REMARK  Name = ZINC39272455
REMARK  5 active torsions:
REMARK  status: ('A' for Active; 'I' for Inactive)
REMARK    1  A    between atoms: C_1  and  C_2
REMARK    2  A    between atoms: C_2  and  O_3
REMARK    3  A    between atoms: O_3  and  C_4
REMARK    4  A    between atoms: C_4  and  C_6
REMARK    5  A    between atoms: C_12  and  C_14
REMARK                            x       y       z     vdW  Elec       q    Type
REMARK                         _______ _______ _______ _____ _____    ______ ____
ROOT
ATOM      1  C   UNL     1      -5.551  -6.333   1.728  0.00  0.00    +0.092 C 
ATOM      2  C   UNL     1      -6.144  -6.631   0.349  0.00  0.00    +0.016 C 
ATOM      3  C   UNL     1      -6.136  -8.141   0.104  0.00  0.00    +0.020 C 
ATOM      4  C   UNL     1      -7.003  -8.831   1.163  0.00  0.00    +0.106 C 
ATOM      5  N   UNL     1      -6.528  -8.433   2.495  0.00  0.00    -0.316 N 
ATOM      6  C   UNL     1      -6.410  -7.002   2.805  0.00  0.00    +0.119 C 
ATOM      7  C   UNL     1      -6.206  -9.364   3.416  0.00  0.00    +0.133 C 
ATOM      8  N   UNL     1      -6.193 -10.650   3.113  0.00  0.00    -0.204 NA
ATOM      9  C   UNL     1      -5.998 -11.613   4.011  0.00  0.00    +0.226 C 
ATOM     10  N   UNL     1      -6.119 -11.400   5.314  0.00  0.00    -0.200 NA
ATOM     11  C   UNL     1      -6.236 -10.145   5.720  0.00  0.00    +0.165 C 
ATOM     12  N   UNL     1      -6.712  -9.572   6.788  0.00  0.00    -0.218 NA
ATOM     13  C   UNL     1      -7.020  -8.290   6.551  0.00  0.00    +0.218 C 
ATOM     14  N   UNL     1      -6.588  -7.864   5.394  0.00  0.00    -0.253 NA
ATOM     15  C   UNL     1      -5.846  -8.977   4.816  0.00  0.00    +0.237 C 
ATOM     16 CL   UNL     1      -5.572 -13.202   3.458  0.00  0.00    -0.041 Cl
ENDROOT
BRANCH   1  23
ATOM     17  C   UNL     1      -2.048  -2.731   1.414  0.00  0.00    +0.101 C 
ATOM     18  C   UNL     1      -3.224  -2.183   2.225  0.00  0.00    +0.033 C 
ATOM     19  C   UNL     1      -4.538  -2.636   1.581  0.00  0.00    +0.108 C 
ATOM     20  N   UNL     1      -4.523  -4.100   1.454  0.00  0.00    -0.301 N 
ATOM     21  C   UNL     1      -3.389  -4.737   0.770  0.00  0.00    +0.108 C 
ATOM     22  C   UNL     1      -2.088  -4.261   1.423  0.00  0.00    +0.033 C 
ATOM     23  C   UNL     1      -5.529  -4.843   1.955  0.00  0.00    +0.220 C 
ATOM     24  O   UNL     1      -6.417  -4.314   2.589  0.00  0.00    -0.275 OA
BRANCH  17  25
ATOM     25  C   UNL     1      -0.753  -2.260   2.025  0.00  0.00    +0.310 C 
ATOM     26  O   UNL     1       0.054  -3.064   2.426  0.00  0.00    -0.251 OA
BRANCH  25  27
ATOM     27  O   UNL     1      -0.497  -0.946   2.123  0.00  0.00    -0.465 OA
BRANCH  27  29
ATOM     28  C   UNL     1       0.862   0.955   2.738  0.00  0.00    +0.048 C 
ATOM     29  C   UNL     1       0.750  -0.571   2.713  0.00  0.00    +0.229 C 
ENDBRANCH  27  29
ENDBRANCH  25  27
ENDBRANCH  17  25
ENDBRANCH   1  23
TORSDOF 4
