REMARK  Name = ZINC35990898
REMARK  9 active torsions:
REMARK  status: ('A' for Active; 'I' for Inactive)
REMARK    1  A    between atoms: C_1  and  C_2
REMARK    2  A    between atoms: C_2  and  N_3
REMARK    3  A    between atoms: C_4  and  C_23
REMARK    4  A    between atoms: C_5  and  C_18
REMARK    5  A    between atoms: C_6  and  C_11
REMARK    6  A    between atoms: C_18  and  O_20
REMARK    7  A    between atoms: O_20  and  C_21
REMARK    8  A    between atoms: C_21  and  C_22
REMARK    9  A    between atoms: C_23  and  N_24
REMARK                            x       y       z     vdW  Elec       q    Type
REMARK                         _______ _______ _______ _____ _____    ______ ____
ROOT
ATOM      1  N   UNL     1       0.803  -0.910  -1.554  0.00  0.00    -0.258 N 
ATOM      2  C   UNL     1      -0.048  -0.596  -2.574  0.00  0.00    +0.041 C 
ATOM      3  C   UNL     1       0.349  -0.675  -3.862  0.00  0.00    +0.080 C 
ATOM      4  C   UNL     1       1.771  -1.122  -4.136  0.00  0.00    +0.144 C 
ATOM      5  N   UNL     1       2.608  -1.436  -2.966  0.00  0.00    -0.288 N 
ATOM      6  C   UNL     1       2.069  -1.305  -1.738  0.00  0.00    +0.307 C 
ATOM      7  O   UNL     1       2.754  -1.558  -0.765  0.00  0.00    -0.252 OA
ATOM      8  H   UNL     1       3.527  -1.727  -3.077  0.00  0.00    +0.151 HD
ENDROOT
BRANCH   4   9
ATOM      9  C   UNL     1       1.712  -2.349  -5.008  0.00  0.00    -0.022 A 
ATOM     10  C   UNL     1       1.443  -3.584  -4.446  0.00  0.00    +0.007 A 
ATOM     11  C   UNL     1       1.389  -4.710  -5.245  0.00  0.00    +0.020 A 
ATOM     12  C   UNL     1       1.605  -4.603  -6.607  0.00  0.00    +0.041 A 
ATOM     13  C   UNL     1       1.874  -3.367  -7.169  0.00  0.00    +0.020 A 
ATOM     14  C   UNL     1       1.922  -2.240  -6.370  0.00  0.00    +0.007 A 
ATOM     15 CL   UNL     1       1.538  -6.017  -7.611  0.00  0.00    -0.084 Cl
ENDBRANCH   4   9
BRANCH   1  17
ATOM     16  C   UNL     1       0.489   0.632   0.318  0.00  0.00    +0.025 C 
ATOM     17  C   UNL     1       0.305  -0.802  -0.180  0.00  0.00    +0.111 C 
ENDBRANCH   1  17
BRANCH   3  18
ATOM     18  C   UNL     1      -0.532  -0.351  -4.920  0.00  0.00    +0.339 C 
ATOM     19  O   UNL     1      -1.701  -0.109  -4.686  0.00  0.00    -0.245 OA
BRANCH  18  20
ATOM     20  O   UNL     1      -0.076  -0.311  -6.190  0.00  0.00    -0.462 OA
BRANCH  20  21
ATOM     21  C   UNL     1      -1.022   0.022  -7.208  0.00  0.00    +0.229 C 
ATOM     22  C   UNL     1      -0.326   0.018  -8.571  0.00  0.00    +0.048 C 
ENDBRANCH  20  21
ENDBRANCH  18  20
ENDBRANCH   3  18
BRANCH   2  23
ATOM     23  C   UNL     1      -1.454  -0.156  -2.257  0.00  0.00    +0.136 C 
BRANCH  23  24
ATOM     24  N   UNL     1      -2.360  -1.310  -2.346  0.00  0.00    -0.300 NA
ATOM     25  C   UNL     1      -2.151  -2.230  -1.219  0.00  0.00    +0.066 C 
ATOM     26  C   UNL     1      -3.069  -3.444  -1.380  0.00  0.00    -0.067 C 
ATOM     27  N   UNL     1      -4.468  -2.998  -1.417  0.00  0.00    +0.381 N 
ATOM     28  C   UNL     1      -4.667  -2.099  -2.562  0.00  0.00    -0.067 C 
ATOM     29  C   UNL     1      -3.762  -0.874  -2.411  0.00  0.00    +0.066 C 
ATOM     30  H   UNL     1      -5.074  -3.800  -1.511  0.00  0.00    -0.086 HD
ATOM     31  H   UNL     1      -4.688  -2.509  -0.563  0.00  0.00    -0.086 HD
ENDBRANCH  23  24
ENDBRANCH   2  23
TORSDOF 7
