REMARK  Name = ZINC13959044
REMARK  7 active torsions:
REMARK  status: ('A' for Active; 'I' for Inactive)
REMARK    1  A    between atoms: C_1  and  C_2
REMARK    2  A    between atoms: C_3  and  N_22
REMARK    3  A    between atoms: C_4  and  C_8
REMARK    4  A    between atoms: N_5  and  C_7
REMARK    5  A    between atoms: N_10  and  C_11
REMARK    6  A    between atoms: C_16  and  C_21
REMARK    7  A    between atoms: C_18  and  C_20
REMARK                            x       y       z     vdW  Elec       q    Type
REMARK                         _______ _______ _______ _____ _____    ______ ____
ROOT
ATOM      1  C   UNL     1      -0.024   1.343  -0.018  0.00  0.00    +0.265 C 
ATOM      2  O   UNL     1      -1.038   2.014   0.008  0.00  0.00    -0.268 OA
ATOM      3  N   UNL     1      -0.107  -0.001  -0.062  0.00  0.00    -0.307 N 
ATOM      4  H   UNL     1       0.698  -0.534  -0.160  0.00  0.00    +0.149 HD
ENDROOT
BRANCH   3   5
ATOM      5  C   UNL     1      -1.413  -0.658   0.037  0.00  0.00    +0.076 C 
ATOM      6  C   UNL     1      -2.059  -0.720  -1.348  0.00  0.00    +0.022 C 
ATOM      7  C   UNL     1      -3.423  -1.406  -1.245  0.00  0.00    +0.002 C 
ATOM      8  C   UNL     1      -3.239  -2.826  -0.704  0.00  0.00    +0.003 C 
ATOM      9  C   UNL     1      -2.592  -2.764   0.681  0.00  0.00    -0.009 C 
ATOM     10  C   UNL     1      -1.229  -2.078   0.577  0.00  0.00    +0.009 C 
ATOM     11  C   UNL     1      -0.329  -2.872  -0.371  0.00  0.00    +0.009 C 
ATOM     12  C   UNL     1      -2.409  -4.184   1.222  0.00  0.00    +0.008 C 
ENDBRANCH   3   5
BRANCH   1  16
ATOM     13  C   UNL     1       4.221   3.772  -1.361  0.00  0.00    +0.070 C 
ATOM     14  C   UNL     1       3.150   3.058  -0.578  0.00  0.00    +0.091 A 
ATOM     15  C   UNL     1       1.946   2.568  -1.089  0.00  0.00    +0.179 A 
ATOM     16  C   UNL     1       1.293   2.000  -0.009  0.00  0.00    +0.153 A 
ATOM     17  N   UNL     1       2.119   2.165   1.066  0.00  0.00    -0.260 N 
ATOM     18  N   UNL     1       3.185   2.782   0.700  0.00  0.00    -0.174 NA
ATOM     19  C   UNL     1       1.833   1.709   2.429  0.00  0.00    +0.173 C 
BRANCH  15  20
ATOM     20  N   UNL     1       1.468   2.642  -2.489  0.00  0.00    +0.061 N 
ATOM     21  O   UNL     1       0.809   3.598  -2.857  0.00  0.00    -0.126 OA
ATOM     22  O   UNL     1       1.734   1.748  -3.271  0.00  0.00    -0.126 OA
ENDBRANCH  15  20
ENDBRANCH   1  16
TORSDOF 3
