REMARK  Name = ZINC42677806
REMARK  5 active torsions:
REMARK  status: ('A' for Active; 'I' for Inactive)
REMARK    1  A    between atoms: C_1  and  N_2
REMARK    2  A    between atoms: C_5  and  N_20
REMARK    3  A    between atoms: C_6  and  N_7
REMARK    4  A    between atoms: N_7  and  C_8
REMARK    5  A    between atoms: C_13  and  C_16
REMARK                            x       y       z     vdW  Elec       q    Type
REMARK                         _______ _______ _______ _____ _____    ______ ____
ROOT
ATOM      1  N   UNL     1       0.243  -0.423   2.426  0.00  0.00    -0.324 N 
ATOM      2  H   UNL     1       0.438  -1.079   3.112  0.00  0.00    +0.148 HD
ENDROOT
BRANCH   1   8
ATOM      3  C   UNL     1      -0.339   1.437   0.048  0.00  0.00    +0.151 C 
ATOM      4  N   UNL     1      -0.205  -0.021   0.029  0.00  0.00    -0.320 N 
ATOM      5  C   UNL     1      -0.311  -0.829  -1.063  0.00  0.00    +0.203 A 
ATOM      6  N   UNL     1      -0.132  -2.065  -0.686  0.00  0.00    -0.211 NA
ATOM      7  C   UNL     1       0.091  -2.100   0.637  0.00  0.00    +0.255 A 
ATOM      8  C   UNL     1       0.055  -0.830   1.104  0.00  0.00    +0.150 A 
BRANCH   7   9
ATOM      9  N   UNL     1       0.339  -3.317   1.444  0.00  0.00    +0.079 N 
ATOM     10  O   UNL     1       0.353  -4.402   0.913  0.00  0.00    -0.125 OA
ATOM     11  O   UNL     1       0.527  -3.224   2.635  0.00  0.00    -0.125 OA
ENDBRANCH   7   9
ENDBRANCH   1   8
BRANCH   1  12
ATOM     12  C   UNL     1       0.146   0.997   2.776  0.00  0.00    +0.072 C 
ATOM     13  C   UNL     1      -1.313   1.350   3.072  0.00  0.00    +0.022 C 
ATOM     14  C   UNL     1      -1.816   0.501   4.241  0.00  0.00    +0.002 C 
ATOM     15  C   UNL     1      -0.962   0.780   5.479  0.00  0.00    +0.012 C 
ATOM     16  C   UNL     1       0.497   0.426   5.183  0.00  0.00    +0.095 C 
ATOM     17  C   UNL     1       1.000   1.276   4.014  0.00  0.00    +0.034 C 
BRANCH  16  18
ATOM     18  C   UNL     1       1.351   0.706   6.421  0.00  0.00    +0.393 C 
ATOM     19  F   UNL     1       0.891  -0.071   7.490  0.00  0.00    -0.170 F 
ATOM     20  F   UNL     1       2.685   0.383   6.150  0.00  0.00    -0.170 F 
ATOM     21  F   UNL     1       1.259   2.061   6.756  0.00  0.00    -0.170 F 
ENDBRANCH  16  18
ENDBRANCH   1  12
TORSDOF 4
