REMARK  Name = ZINC10128694
REMARK  7 active torsions:
REMARK  status: ('A' for Active; 'I' for Inactive)
REMARK    1  A    between atoms: C_4  and  C_7
REMARK    2  A    between atoms: C_7  and  C_8
REMARK    3  A    between atoms: C_8  and  C_10
REMARK    4  A    between atoms: C_8  and  N_21
REMARK    5  A    between atoms: N_12  and  C_13
REMARK    6  A    between atoms: N_21  and  S_22
REMARK    7  A    between atoms: S_22  and  C_25
REMARK                            x       y       z     vdW  Elec       q    Type
REMARK                         _______ _______ _______ _____ _____    ______ ____
ROOT
ATOM      1  C   UNL     1      -0.449   1.357  -0.513  0.00  0.00    +0.167 C 
ENDROOT
BRANCH   1   2
ATOM      2  C   UNL     1      -1.225   1.813   0.696  0.00  0.00    +0.236 C 
ATOM      3  O   UNL     1      -1.052   2.928   1.143  0.00  0.00    -0.274 OA
ATOM      4  N   UNL     1      -2.111   0.983   1.281  0.00  0.00    -0.282 N 
ATOM      5  H   UNL     1      -2.195   0.068   0.972  0.00  0.00    +0.155 HD
BRANCH   4   6
ATOM      6  C   UNL     1      -2.910   1.442   2.335  0.00  0.00    +0.070 A 
ATOM      7  C   UNL     1      -2.333   2.113   3.406  0.00  0.00    +0.064 A 
ATOM      8  C   UNL     1      -3.126   2.568   4.443  0.00  0.00    +0.022 A 
ATOM      9  C   UNL     1      -4.491   2.349   4.419  0.00  0.00    +0.003 A 
ATOM     10  C   UNL     1      -5.068   1.677   3.358  0.00  0.00    +0.022 A 
ATOM     11  C   UNL     1      -4.282   1.222   2.315  0.00  0.00    +0.064 A 
ATOM     12 CL   UNL     1      -5.008   0.378   0.983  0.00  0.00    -0.082 Cl
ATOM     13 CL   UNL     1      -0.619   2.384   3.439  0.00  0.00    -0.082 Cl
ENDBRANCH   4   6
ENDBRANCH   1   2
BRANCH   1  14
ATOM     14  N   UNL     1       0.440   2.434  -0.957  0.00  0.00    -0.178 NA
ATOM     15  H   UNL     1       0.106   3.125  -1.550  0.00  0.00    +0.149 HD
BRANCH  14  16
ATOM     16  S   UNL     1       2.015   2.470  -0.448  0.00  0.00    +0.059 S 
ATOM     17  O   UNL     1       2.612   3.607  -1.055  0.00  0.00    -0.153 OA
ATOM     18  O   UNL     1       1.991   2.282   0.961  0.00  0.00    -0.153 OA
BRANCH  16  19
ATOM     19  C   UNL     1       2.816   1.056  -1.130  0.00  0.00    +0.105 A 
ATOM     20  C   UNL     1       2.926  -0.103  -0.385  0.00  0.00    +0.030 A 
ATOM     21  C   UNL     1       3.549  -1.214  -0.921  0.00  0.00    +0.022 A 
ATOM     22  C   UNL     1       4.072  -1.162  -2.201  0.00  0.00    +0.041 A 
ATOM     23  C   UNL     1       3.966  -0.000  -2.945  0.00  0.00    +0.022 A 
ATOM     24  C   UNL     1       3.338   1.108  -2.409  0.00  0.00    +0.030 A 
ATOM     25 CL   UNL     1       4.860  -2.555  -2.874  0.00  0.00    -0.084 Cl
ENDBRANCH  16  19
ENDBRANCH  14  16
ENDBRANCH   1  14
BRANCH   1  26
ATOM     26  C   UNL     1      -1.422   1.002  -1.639  0.00  0.00    +0.065 C 
BRANCH  26  30
ATOM     27  C   UNL     1       0.745  -0.667  -4.920  0.00  0.00    +0.000 A 
ATOM     28  C   UNL     1       0.182  -1.498  -3.970  0.00  0.00    +0.000 A 
ATOM     29  C   UNL     1      -0.519  -0.957  -2.908  0.00  0.00    +0.004 A 
ATOM     30  C   UNL     1      -0.657   0.413  -2.796  0.00  0.00    -0.045 A 
ATOM     31  C   UNL     1      -0.099   1.244  -3.750  0.00  0.00    +0.004 A 
ATOM     32  C   UNL     1       0.606   0.704  -4.809  0.00  0.00    +0.000 A 
ENDBRANCH  26  30
ENDBRANCH   1  26
TORSDOF 7
