REMARK  Name = ZINC38621129
REMARK  9 active torsions:
REMARK  status: ('A' for Active; 'I' for Inactive)
REMARK    1  A    between atoms: C_5  and  N_7
REMARK    2  A    between atoms: N_10  and  C_13
REMARK    3  A    between atoms: C_13  and  C_15
REMARK    4  A    between atoms: C_13  and  C_30
REMARK    5  A    between atoms: C_15  and  N_16
REMARK    6  A    between atoms: C_17  and  C_19
REMARK    7  A    between atoms: N_21  and  C_22
REMARK    8  A    between atoms: C_22  and  C_23
REMARK    9  A    between atoms: C_23  and  C_24
REMARK                            x       y       z     vdW  Elec       q    Type
REMARK                         _______ _______ _______ _____ _____    ______ ____
ROOT
ATOM      1  C   UNL     1       3.244  -5.769  -0.058  0.00  0.00    +0.104 C 
ENDROOT
BRANCH   1   2
ATOM      2  C   UNL     1       3.161  -6.688  -1.250  0.00  0.00    -0.025 A 
ATOM      3  C   UNL     1       1.929  -7.120  -1.704  0.00  0.00    +0.009 A 
ATOM      4  C   UNL     1       1.848  -7.963  -2.797  0.00  0.00    +0.050 A 
ATOM      5  C   UNL     1       3.004  -8.377  -3.440  0.00  0.00    +0.166 A 
ATOM      6  C   UNL     1       4.245  -7.941  -2.982  0.00  0.00    +0.167 A 
ATOM      7  C   UNL     1       4.318  -7.093  -1.890  0.00  0.00    +0.054 A 
ATOM      8  O   UNL     1       5.216  -8.482  -3.775  0.00  0.00    -0.453 OA
ATOM      9  C   UNL     1       4.583  -9.575  -4.466  0.00  0.00    +0.466 C 
ATOM     10  O   UNL     1       3.197  -9.190  -4.519  0.00  0.00    -0.453 OA
ENDBRANCH   1   2
BRANCH   1  14
ATOM     11  N   UNL     1       0.874  -2.312  -0.270  0.00  0.00    -0.325 N 
ATOM     12  C   UNL     1       0.935  -3.001   1.028  0.00  0.00    +0.120 C 
ATOM     13  C   UNL     1       2.179  -3.895   1.046  0.00  0.00    +0.104 C 
ATOM     14  N   UNL     1       2.160  -4.779  -0.127  0.00  0.00    -0.291 NA
ATOM     15  C   UNL     1       2.230  -4.009  -1.376  0.00  0.00    +0.104 C 
ATOM     16  C   UNL     1       0.982  -3.120  -1.494  0.00  0.00    +0.120 C 
BRANCH  11  21
ATOM     17  C   UNL     1      -0.716   0.998  -0.454  0.00  0.00    +0.002 A 
ATOM     18  C   UNL     1       0.394   1.822  -0.475  0.00  0.00    +0.003 A 
ATOM     19  C   UNL     1       1.664   1.278  -0.429  0.00  0.00    +0.040 A 
ATOM     20  C   UNL     1       1.828  -0.093  -0.360  0.00  0.00    +0.144 A 
ATOM     21  C   UNL     1       0.713  -0.924  -0.339  0.00  0.00    +0.065 A 
ATOM     22  C   UNL     1      -0.560  -0.373  -0.386  0.00  0.00    +0.026 A 
ATOM     23  F   UNL     1       3.069  -0.625  -0.315  0.00  0.00    -0.204 F 
ENDBRANCH  11  21
ENDBRANCH   1  14
BRANCH   1  24
ATOM     24  C   UNL     1       3.105  -6.588   1.227  0.00  0.00    +0.128 C 
BRANCH  24  25
ATOM     25  N   UNL     1       4.226  -7.525   1.332  0.00  0.00    -0.306 N 
ATOM     26  C   UNL     1       4.257  -8.429   2.331  0.00  0.00    +0.299 C 
ATOM     27  O   UNL     1       3.357  -8.467   3.144  0.00  0.00    -0.265 OA
ATOM     28  H   UNL     1       4.946  -7.495   0.683  0.00  0.00    +0.149 HD
BRANCH  26  29
ATOM     29  C   UNL     1       5.401  -9.386   2.438  0.00  0.00    +0.299 C 
ATOM     30  O   UNL     1       6.301  -9.348   1.626  0.00  0.00    -0.265 OA
ATOM     31  N   UNL     1       5.432 -10.290   3.438  0.00  0.00    -0.307 N 
ATOM     32  H   UNL     1       4.712 -10.320   4.087  0.00  0.00    +0.149 HD
BRANCH  31  33
ATOM     33  C   UNL     1       6.553 -11.227   3.542  0.00  0.00    +0.109 C 
BRANCH  33  34
ATOM     34  C   UNL     1       6.344 -12.138   4.754  0.00  0.00    +0.049 C 
BRANCH  34  35
ATOM     35  C   UNL     1       7.497 -13.102   4.862  0.00  0.00    -0.072 C 
ATOM     36  C   UNL     1       8.478 -12.790   5.646  0.00  0.00    -0.028 C 
ATOM     37  C   UNL     1       9.697 -13.642   5.848  0.00  0.00    +0.027 C 
ATOM     38  C   UNL     1       9.430 -15.068   5.361  0.00  0.00    +0.004 C 
ATOM     39  C   UNL     1       8.827 -14.994   3.953  0.00  0.00    +0.005 C 
ATOM     40  C   UNL     1       7.433 -14.368   4.058  0.00  0.00    +0.030 C 
ENDBRANCH  34  35
ENDBRANCH  33  34
ENDBRANCH  31  33
ENDBRANCH  26  29
ENDBRANCH  24  25
ENDBRANCH   1  24
TORSDOF 9
