REMARK  Name = ZINC01380948
REMARK  11 active torsions:
REMARK  status: ('A' for Active; 'I' for Inactive)
REMARK    1  A    between atoms: C_1  and  C_2
REMARK    2  A    between atoms: C_9  and  C_11
REMARK    3  A    between atoms: N_13  and  C_14
REMARK    4  A    between atoms: C_14  and  C_15
REMARK    5  A    between atoms: N_22  and  C_32
REMARK    6  A    between atoms: C_23  and  C_25
REMARK    7  A    between atoms: N_27  and  C_28
REMARK    8  A    between atoms: C_28  and  C_29
REMARK    9  A    between atoms: C_28  and  C_30
REMARK   10  A    between atoms: C_28  and  C_31
REMARK   11  A    between atoms: C_32  and  C_33
REMARK                            x       y       z     vdW  Elec       q    Type
REMARK                         _______ _______ _______ _____ _____    ______ ____
ROOT
ATOM      1  C   UNL     1      -0.019   1.526   0.010  0.00  0.00    +0.047 C 
ATOM      2  C   UNL     1       0.002  -0.004   0.002  0.00  0.00    +0.098 C 
ATOM      3  C   UNL     1       0.732  -0.663  -1.175  0.00  0.00    +0.007 C 
ATOM      4  C   UNL     1       1.009  -1.891  -0.763  0.00  0.00    +0.009 C 
ATOM      5  C   UNL     1       0.511  -1.967   0.669  0.00  0.00    +0.128 C 
ATOM      6  O   UNL     1       0.670  -0.657   1.161  0.00  0.00    -0.355 OA
ATOM      7  C   UNL     1      -1.069  -2.037   0.652  0.00  0.00    +0.128 C 
ATOM      8  C   UNL     1      -1.406  -0.716  -0.013  0.00  0.00    +0.125 C 
ATOM      9  C   UNL     1      -1.265  -3.394   0.110  0.00  0.00    +0.224 C 
ATOM     10  O   UNL     1      -2.166  -3.758  -0.616  0.00  0.00    -0.275 OA
ATOM     11  N   UNL     1      -0.234  -4.168   0.585  0.00  0.00    -0.282 N 
ATOM     12  C   UNL     1       0.756  -3.303   1.300  0.00  0.00    +0.199 C 
ENDROOT
BRANCH   8  13
ATOM     13  C   UNL     1      -2.420   0.073   0.774  0.00  0.00    +0.220 C 
ATOM     14  O   UNL     1      -2.950  -0.420   1.747  0.00  0.00    -0.275 OA
ATOM     15  N   UNL     1      -2.738   1.327   0.396  0.00  0.00    -0.310 N 
ATOM     16  H   UNL     1      -2.314   1.721  -0.383  0.00  0.00    +0.149 HD
BRANCH  15  17
ATOM     17  C   UNL     1      -3.724   2.095   1.160  0.00  0.00    +0.146 C 
BRANCH  17  18
ATOM     18  C   UNL     1      -3.897   3.455   0.534  0.00  0.00    +0.007 A 
ATOM     19  C   UNL     1      -4.769   3.847  -0.427  0.00  0.00    +0.013 A 
ATOM     20  C   UNL     1      -4.749   5.162  -0.854  0.00  0.00    +0.008 A 
ATOM     21  C   UNL     1      -3.859   6.020  -0.297  0.00  0.00    +0.045 A 
ATOM     22  S   UNL     1      -3.014   4.969   0.873  0.00  0.00    -0.100 S 
ENDBRANCH  17  18
ENDBRANCH  15  17
ENDBRANCH   8  13
BRANCH  12  23
ATOM     23  C   UNL     1       0.467  -3.262   2.778  0.00  0.00    +0.237 C 
ATOM     24  O   UNL     1      -0.586  -3.688   3.202  0.00  0.00    -0.274 OA
ATOM     25  N   UNL     1       1.379  -2.751   3.629  0.00  0.00    -0.309 N 
ATOM     26  H   UNL     1       2.221  -2.409   3.290  0.00  0.00    +0.149 HD
BRANCH  25  27
ATOM     27  C   UNL     1       1.098  -2.711   5.066  0.00  0.00    +0.026 C 
ATOM     28  C   UNL     1       0.869  -4.133   5.581  0.00  0.00    +0.031 C 
ATOM     29  C   UNL     1       2.287  -2.088   5.801  0.00  0.00    +0.031 C 
ATOM     30  C   UNL     1      -0.155  -1.869   5.318  0.00  0.00    +0.031 C 
ENDBRANCH  25  27
ENDBRANCH  12  23
BRANCH  11  31
ATOM     31  C   UNL     1      -0.121  -5.619   0.417  0.00  0.00    +0.143 C 
BRANCH  31  32
ATOM     32  C   UNL     1       0.625  -5.920  -0.857  0.00  0.00    -0.030 A 
ATOM     33  C   UNL     1      -0.067  -6.064  -2.046  0.00  0.00    +0.006 A 
ATOM     34  C   UNL     1       0.617  -6.340  -3.214  0.00  0.00    +0.020 A 
ATOM     35  C   UNL     1       1.994  -6.474  -3.195  0.00  0.00    +0.041 A 
ATOM     36  C   UNL     1       2.686  -6.330  -2.005  0.00  0.00    +0.020 A 
ATOM     37  C   UNL     1       2.002  -6.048  -0.838  0.00  0.00    +0.006 A 
ATOM     38 CL   UNL     1       2.854  -6.822  -4.662  0.00  0.00    -0.084 Cl
ENDBRANCH  31  32
ENDBRANCH  11  31
TORSDOF 7
