REMARK  Name = ZINC14539329
REMARK  10 active torsions:
REMARK  status: ('A' for Active; 'I' for Inactive)
REMARK    1  A    between atoms: C_1  and  C_2
REMARK    2  A    between atoms: C_2  and  N_69
REMARK    3  A    between atoms: C_6  and  C_8
REMARK    4  A    between atoms: C_8  and  N_9
REMARK    5  A    between atoms: C_10  and  C_12
REMARK    6  A    between atoms: N_15  and  C_17
REMARK    7  A    between atoms: C_17  and  C_18
REMARK    8  A    between atoms: C_18  and  O_19
REMARK    9  A    between atoms: O_19  and  C_20
REMARK   10  A    between atoms: C_25  and  C_27
REMARK                            x       y       z     vdW  Elec       q    Type
REMARK                         _______ _______ _______ _____ _____    ______ ____
ROOT
ATOM      1  C   UNL     1       0.304   0.070  -2.027  0.00  0.00    +0.152 A 
ATOM      2  C   UNL     1      -0.201   0.655  -0.855  0.00  0.00    +0.023 A 
ATOM      3  C   UNL     1      -1.286   1.375  -1.231  0.00  0.00    +0.046 A 
ATOM      4  N   UNL     1      -1.421   1.221  -2.559  0.00  0.00    -0.265 N 
ATOM      5  N   UNL     1      -0.487   0.458  -3.013  0.00  0.00    -0.166 NA
ATOM      6  C   UNL     1      -2.137   2.183  -0.286  0.00  0.00    +0.074 C 
ATOM      7  C   UNL     1      -1.872   1.705   1.148  0.00  0.00    +0.114 C 
ATOM      8  N   UNL     1      -0.421   1.564   1.354  0.00  0.00    -0.292 N 
ATOM      9  C   UNL     1       0.301   0.551   0.561  0.00  0.00    +0.147 C 
ATOM     10  C   UNL     1       0.231   2.338   2.243  0.00  0.00    +0.263 C 
ATOM     11  O   UNL     1      -0.395   3.052   3.003  0.00  0.00    -0.268 OA
ENDROOT
BRANCH  10  12
ATOM     12  C   UNL     1       1.701   2.321   2.295  0.00  0.00    +0.103 A 
ATOM     13  C   UNL     1       2.454   2.591   3.393  0.00  0.00    +0.040 A 
ATOM     14  C   UNL     1       3.815   2.466   3.023  0.00  0.00    +0.000 A 
ATOM     15  C   UNL     1       5.020   2.622   3.722  0.00  0.00    +0.010 A 
ATOM     16  C   UNL     1       6.207   2.431   3.077  0.00  0.00    +0.001 A 
ATOM     17  C   UNL     1       6.234   2.080   1.733  0.00  0.00    +0.002 A 
ATOM     18  C   UNL     1       5.064   1.920   1.026  0.00  0.00    +0.026 A 
ATOM     19  C   UNL     1       3.840   2.111   1.661  0.00  0.00    +0.047 A 
ATOM     20  N   UNL     1       2.536   2.022   1.235  0.00  0.00    -0.351 N 
ATOM     21  H   UNL     1       2.249   1.790   0.338  0.00  0.00    +0.166 HD
ENDBRANCH  10  12
BRANCH   1  23
ATOM     22  N   UNL     1       1.853  -1.297  -3.339  0.00  0.00    -0.312 N 
ATOM     23  C   UNL     1       1.487  -0.807  -2.138  0.00  0.00    +0.264 C 
ATOM     24  O   UNL     1       2.131  -1.087  -1.146  0.00  0.00    -0.268 OA
ATOM     25  H   UNL     1       1.339  -1.073  -4.131  0.00  0.00    +0.149 HD
BRANCH  22  26
ATOM     26  C   UNL     1       3.026  -2.167  -3.449  0.00  0.00    +0.089 C 
BRANCH  26  30
ATOM     27  C   UNL     1       2.288  -4.619  -6.057  0.00  0.00    -0.078 C 
ATOM     28  C   UNL     1       3.824  -4.590  -6.201  0.00  0.00    -0.020 C 
ATOM     29  C   UNL     1       4.273  -3.746  -4.979  0.00  0.00    -0.016 C 
ATOM     30  C   UNL     1       3.127  -2.709  -4.876  0.00  0.00    -0.051 C 
ATOM     31  N   UNL     1       1.910  -3.474  -5.215  0.00  0.00    +0.382 N 
ATOM     32  H   UNL     1       1.473  -3.817  -4.351  0.00  0.00    -0.081 HD
BRANCH  31  34
ATOM     33  C   UNL     1      -0.246  -3.447  -6.400  0.00  0.00    -0.017 C 
ATOM     34  C   UNL     1       0.943  -2.604  -5.935  0.00  0.00    -0.082 C 
ENDBRANCH  31  34
ENDBRANCH  26  30
ENDBRANCH  22  26
ENDBRANCH   1  23
BRANCH   4  35
ATOM     35  C   UNL     1      -2.477   1.830  -3.372  0.00  0.00    +0.171 C 
BRANCH  35  36
ATOM     36  C   UNL     1      -2.009   3.197  -3.874  0.00  0.00    +0.182 C 
BRANCH  36  37
ATOM     37  O   UNL     1      -3.039   3.791  -4.667  0.00  0.00    -0.381 OA
ATOM     38  C   UNL     1      -2.702   5.078  -5.188  0.00  0.00    +0.194 C 
ENDBRANCH  36  37
ENDBRANCH  35  36
ENDBRANCH   4  35
TORSDOF 8
