REMARK  Name = ZINC15226705
REMARK  6 active torsions:
REMARK  status: ('A' for Active; 'I' for Inactive)
REMARK    1  A    between atoms: C_1  and  C_2
REMARK    2  A    between atoms: C_7  and  N_8
REMARK    3  A    between atoms: C_9  and  C_11
REMARK    4  A    between atoms: C_11  and  C_12
REMARK    5  A    between atoms: C_17  and  C_18
REMARK    6  A    between atoms: C_17  and  C_19
REMARK                            x       y       z     vdW  Elec       q    Type
REMARK                         _______ _______ _______ _____ _____    ______ ____
ROOT
ATOM      1  C   UNL     1      -0.245  -0.946   6.038  0.00  0.00    +0.203 C 
ATOM      2  N   UNL     1      -0.491  -0.226   7.273  0.00  0.00    -0.171 NA
ATOM      3  N   UNL     1      -0.041  -0.256   8.385  0.00  0.00    -0.138 NA
ATOM      4  C   UNL     1       0.880  -1.116   8.860  0.00  0.00    +0.147 C 
ATOM      5  C   UNL     1       1.910  -0.616   9.550  0.00  0.00    -0.028 C 
ATOM      6  C   UNL     1       2.966  -1.539  10.102  0.00  0.00    +0.043 C 
ATOM      7  N   UNL     1       0.821  -2.497   8.675  0.00  0.00    -0.260 N 
ATOM      8  C   UNL     1       1.055  -2.998   7.466  0.00  0.00    +0.279 C 
ATOM      9  O   UNL     1       1.093  -4.200   7.290  0.00  0.00    -0.263 OA
ATOM     10  S   UNL     1       1.309  -1.880   6.120  0.00  0.00    -0.038 S 
ATOM     11  H   UNL     1       0.613  -3.085   9.419  0.00  0.00    +0.157 HD
ENDROOT
BRANCH   5  12
ATOM     12  C   UNL     1       2.016   0.870   9.776  0.00  0.00    +0.018 C 
ATOM     13  C   UNL     1       3.318   1.388   9.161  0.00  0.00    +0.008 C 
ATOM     14  C   UNL     1       3.425   2.897   9.391  0.00  0.00    +0.001 C 
ATOM     15  C   UNL     1       3.420   3.186  10.893  0.00  0.00    +0.000 C 
ATOM     16  C   UNL     1       2.119   2.668  11.508  0.00  0.00    +0.001 C 
ATOM     17  C   UNL     1       2.011   1.159  11.279  0.00  0.00    +0.008 C 
ENDBRANCH   5  12
BRANCH   1  18
ATOM     18  C   UNL     1      -0.168   0.054   4.882  0.00  0.00    +0.136 C 
BRANCH  18  20
ATOM     19  N   UNL     1       0.025  -0.014   2.417  0.00  0.00    -0.285 N 
ATOM     20  C   UNL     1      -0.056  -0.693   3.578  0.00  0.00    +0.220 C 
ATOM     21  O   UNL     1      -0.040  -1.906   3.574  0.00  0.00    -0.275 OA
ATOM     22  H   UNL     1       0.078   0.955   2.424  0.00  0.00    +0.155 HD
BRANCH  19  29
ATOM     23  C   UNL     1      -1.265   1.183   0.181  0.00  0.00    +0.045 C 
ATOM     24  C   UNL     1      -0.584  -0.158   0.084  0.00  0.00    -0.029 A 
ATOM     25  C   UNL     1      -0.569  -0.840  -1.117  0.00  0.00    +0.006 A 
ATOM     26  C   UNL     1       0.054  -2.070  -1.207  0.00  0.00    +0.020 A 
ATOM     27  C   UNL     1       0.667  -2.622  -0.095  0.00  0.00    +0.043 A 
ATOM     28  C   UNL     1       0.655  -1.944   1.109  0.00  0.00    +0.043 A 
ATOM     29  C   UNL     1       0.034  -0.706   1.201  0.00  0.00    +0.038 A 
ATOM     30 CL   UNL     1       1.449  -4.168  -0.213  0.00  0.00    -0.083 Cl
ENDBRANCH  19  29
ENDBRANCH  18  20
ENDBRANCH   1  18
TORSDOF 4
