REMARK  Name = ZINC10149311
REMARK  5 active torsions:
REMARK  status: ('A' for Active; 'I' for Inactive)
REMARK    1  A    between atoms: C_4  and  N_28
REMARK    2  A    between atoms: C_5  and  N_7
REMARK    3  A    between atoms: C_8  and  C_10
REMARK    4  A    between atoms: C_16  and  C_18
REMARK    5  A    between atoms: N_20  and  C_21
REMARK                            x       y       z     vdW  Elec       q    Type
REMARK                         _______ _______ _______ _____ _____    ______ ____
ROOT
ATOM      1  C   UNL     1       0.723   7.775   0.343  0.00  0.00    +0.091 C 
ATOM      2  C   UNL     1       0.020   8.330  -0.897  0.00  0.00    +0.040 C 
ATOM      3  C   UNL     1       0.072   9.831  -0.891  0.00  0.00    -0.030 C 
ATOM      4  C   UNL     1       0.879  10.527  -0.157  0.00  0.00    -0.030 C 
ATOM      5  C   UNL     1       1.872   9.931   0.798  0.00  0.00    +0.040 C 
ATOM      6  C   UNL     1       2.093   8.452   0.474  0.00  0.00    +0.091 C 
ENDROOT
BRANCH   1   8
ATOM      7  N   UNL     1      -0.169   5.485   0.059  0.00  0.00    -0.283 N 
ATOM      8  C   UNL     1       0.906   6.286   0.198  0.00  0.00    +0.221 C 
ATOM      9  O   UNL     1       2.021   5.808   0.206  0.00  0.00    -0.275 OA
ATOM     10  H   UNL     1      -1.055   5.872  -0.013  0.00  0.00    +0.155 HD
BRANCH   7  15
ATOM     11  C   UNL     1       1.270   2.172  -0.629  0.00  0.00    +0.002 A 
ATOM     12  C   UNL     1       0.316   1.349  -0.060  0.00  0.00    +0.002 A 
ATOM     13  C   UNL     1      -0.802   1.895   0.543  0.00  0.00    +0.034 A 
ATOM     14  C   UNL     1      -0.962   3.267   0.590  0.00  0.00    +0.147 A 
ATOM     15  C   UNL     1      -0.006   4.096   0.019  0.00  0.00    +0.064 A 
ATOM     16  C   UNL     1       1.113   3.543  -0.591  0.00  0.00    +0.025 A 
BRANCH  14  17
ATOM     17  N   UNL     1      -2.156   3.851   1.241  0.00  0.00    +0.058 N 
ATOM     18  O   UNL     1      -2.949   3.129   1.819  0.00  0.00    -0.126 OA
ATOM     19  O   UNL     1      -2.345   5.054   1.200  0.00  0.00    -0.126 OA
ENDBRANCH  14  17
ENDBRANCH   7  15
ENDBRANCH   1   8
BRANCH   6  20
ATOM     20  C   UNL     1       2.878   7.798   1.582  0.00  0.00    +0.221 C 
ATOM     21  O   UNL     1       2.393   6.880   2.209  0.00  0.00    -0.275 OA
ATOM     22  N   UNL     1       4.119   8.234   1.877  0.00  0.00    -0.285 N 
ATOM     23  H   UNL     1       4.481   9.010   1.422  0.00  0.00    +0.155 HD
BRANCH  22  24
ATOM     24  C   UNL     1       4.884   7.567   2.841  0.00  0.00    +0.033 A 
ATOM     25  C   UNL     1       4.269   7.013   3.956  0.00  0.00    +0.024 A 
ATOM     26  C   UNL     1       5.027   6.351   4.902  0.00  0.00    +0.017 A 
ATOM     27  C   UNL     1       6.398   6.250   4.746  0.00  0.00    +0.018 A 
ATOM     28  C   UNL     1       7.013   6.806   3.639  0.00  0.00    +0.017 A 
ATOM     29  C   UNL     1       6.260   7.464   2.686  0.00  0.00    +0.024 A 
ATOM     30 BR   UNL     1       7.432   5.350   6.048  0.00  0.00    -0.050 Br
ENDBRANCH  22  24
ENDBRANCH   6  20
TORSDOF 5
