REMARK  Name = ZINC36599030
REMARK  11 active torsions:
REMARK  status: ('A' for Active; 'I' for Inactive)
REMARK    1  A    between atoms: C_1  and  C_2
REMARK    2  A    between atoms: C_5  and  C_7
REMARK    3  A    between atoms: C_7  and  N_8
REMARK    4  A    between atoms: N_8  and  C_9
REMARK    5  A    between atoms: C_9  and  C_11
REMARK    6  A    between atoms: C_9  and  C_16
REMARK    7  A    between atoms: N_18  and  C_19
REMARK    8  A    between atoms: C_25  and  C_27
REMARK    9  A    between atoms: C_27  and  C_28
REMARK   10  A    between atoms: C_27  and  C_34
REMARK   11  A    between atoms: C_27  and  O_40
REMARK                            x       y       z     vdW  Elec       q    Type
REMARK                         _______ _______ _______ _____ _____    ______ ____
ROOT
ATOM      1  N   UNL     1       1.889  -3.615  -0.648  0.00  0.00    -0.273 N 
ATOM      2  C   UNL     1       1.308  -4.553  -1.423  0.00  0.00    +0.258 C 
ATOM      3  O   UNL     1       1.986  -5.407  -1.953  0.00  0.00    -0.272 OA
ENDROOT
BRANCH   1   4
ATOM      4  C   UNL     1       1.061  -2.641   0.068  0.00  0.00    +0.183 C 
BRANCH   4   9
ATOM      5  C   UNL     1      -0.961  -5.110   3.974  0.00  0.00    +0.086 C 
ATOM      6  C   UNL     1      -0.066  -4.202   3.171  0.00  0.00    +0.102 A 
ATOM      7  C   UNL     1       0.942  -3.457   3.660  0.00  0.00    +0.045 A 
ATOM      8  C   UNL     1       1.509  -2.765   2.565  0.00  0.00    +0.046 A 
ATOM      9  C   UNL     1       0.814  -3.129   1.472  0.00  0.00    +0.122 A 
ATOM     10  O   UNL     1      -0.135  -4.003   1.844  0.00  0.00    -0.463 OA
ENDBRANCH   4   9
ENDBRANCH   1   4
BRANCH   1  11
ATOM     11  C   UNL     1       3.347  -3.570  -0.523  0.00  0.00    +0.229 C 
BRANCH  11  12
ATOM     12  C   UNL     1       3.834  -2.174  -0.816  0.00  0.00    +0.134 A 
ATOM     13  C   UNL     1       4.821  -1.848  -1.669  0.00  0.00    +0.047 A 
ATOM     14  C   UNL     1       4.944  -0.440  -1.635  0.00  0.00    +0.041 A 
ATOM     15  C   UNL     1       4.024   0.010  -0.763  0.00  0.00    +0.195 A 
ATOM     16  O   UNL     1       3.351  -1.044  -0.275  0.00  0.00    -0.465 OA
ENDBRANCH  11  12
BRANCH  11  17
ATOM     17  C   UNL     1       3.743  -3.955   0.879  0.00  0.00    +0.241 C 
ATOM     18  O   UNL     1       2.967  -4.568   1.582  0.00  0.00    -0.273 OA
ATOM     19  N   UNL     1       4.959  -3.619   1.353  0.00  0.00    -0.311 N 
ATOM     20  H   UNL     1       5.580  -3.129   0.791  0.00  0.00    +0.149 HD
BRANCH  19  21
ATOM     21  C   UNL     1       5.344  -3.994   2.716  0.00  0.00    +0.073 C 
ATOM     22  C   UNL     1       4.832  -2.938   3.699  0.00  0.00    +0.022 C 
ATOM     23  C   UNL     1       5.233  -3.330   5.122  0.00  0.00    +0.002 C 
ATOM     24  C   UNL     1       6.758  -3.417   5.216  0.00  0.00    +0.000 C 
ATOM     25  C   UNL     1       7.270  -4.472   4.234  0.00  0.00    +0.002 C 
ATOM     26  C   UNL     1       6.868  -4.081   2.810  0.00  0.00    +0.022 C 
ENDBRANCH  19  21
ENDBRANCH  11  17
ENDBRANCH   1  11
BRANCH   2  27
ATOM     27  C   UNL     1      -0.185  -4.540  -1.630  0.00  0.00    +0.192 C 
BRANCH  27  28
ATOM     28  C   UNL     1      -0.553  -3.414  -2.561  0.00  0.00    -0.003 A 
ATOM     29  C   UNL     1       0.257  -3.116  -3.640  0.00  0.00    +0.007 A 
ATOM     30  C   UNL     1      -0.081  -2.083  -4.494  0.00  0.00    +0.000 A 
ATOM     31  C   UNL     1      -1.230  -1.347  -4.268  0.00  0.00    +0.000 A 
ATOM     32  C   UNL     1      -2.040  -1.645  -3.189  0.00  0.00    +0.000 A 
ATOM     33  C   UNL     1      -1.705  -2.682  -2.338  0.00  0.00    +0.007 A 
ENDBRANCH  27  28
BRANCH  27  34
ATOM     34  C   UNL     1      -0.620  -5.852  -2.232  0.00  0.00    -0.003 A 
ATOM     35  C   UNL     1       0.035  -6.353  -3.342  0.00  0.00    +0.007 A 
ATOM     36  C   UNL     1      -0.364  -7.556  -3.894  0.00  0.00    +0.000 A 
ATOM     37  C   UNL     1      -1.417  -8.258  -3.337  0.00  0.00    +0.000 A 
ATOM     38  C   UNL     1      -2.070  -7.757  -2.226  0.00  0.00    +0.000 A 
ATOM     39  C   UNL     1      -1.669  -6.556  -1.671  0.00  0.00    +0.007 A 
ENDBRANCH  27  34
BRANCH  27  40
ATOM     40  O   UNL     1      -0.839  -4.353  -0.373  0.00  0.00    -0.371 OA
ATOM     41  H   UNL     1      -0.647  -5.043   0.276  0.00  0.00    +0.212 HD
ENDBRANCH  27  40
ENDBRANCH   2  27
TORSDOF 10
