REMARK  Name = ZINC06409944
REMARK  12 active torsions:
REMARK  status: ('A' for Active; 'I' for Inactive)
REMARK    1  A    between atoms: C_1  and  C_2
REMARK    2  A    between atoms: C_7  and  C_14
REMARK    3  A    between atoms: C_14  and  C_16
REMARK    4  A    between atoms: C_14  and  N_70
REMARK    5  A    between atoms: N_20  and  C_21
REMARK    6  A    between atoms: C_21  and  C_22
REMARK    7  A    between atoms: C_21  and  C_23
REMARK    8  A    between atoms: C_21  and  C_24
REMARK    9  A    between atoms: C_25  and  C_26
REMARK   10  A    between atoms: C_25  and  N_70
REMARK   11  A    between atoms: C_33  and  C_34
REMARK   12  A    between atoms: C_33  and  N_70
REMARK                            x       y       z     vdW  Elec       q    Type
REMARK                         _______ _______ _______ _____ _____    ______ ____
ROOT
ATOM      1  C   UNL     1       1.642  -2.204   0.211  0.00  0.00    +0.039 C 
ENDROOT
BRANCH   1   8
ATOM      2  C   UNL     1       0.939   5.737  -0.056  0.00  0.00    +0.044 C 
ATOM      3  C   UNL     1       1.054   4.245  -0.238  0.00  0.00    -0.048 A 
ATOM      4  C   UNL     1       1.007   3.704  -1.516  0.00  0.00    +0.004 A 
ATOM      5  C   UNL     1       1.111   2.355  -1.703  0.00  0.00    +0.010 A 
ATOM      6  C   UNL     1       1.265   1.511  -0.598  0.00  0.00    -0.001 A 
ATOM      7  C   UNL     1       1.377   0.060  -0.762  0.00  0.00    +0.017 A 
ATOM      8  C   UNL     1       1.524  -0.707   0.345  0.00  0.00    +0.011 A 
ATOM      9  C   UNL     1       1.567  -0.110   1.624  0.00  0.00    +0.251 A 
ATOM     10  O   UNL     1       1.700  -0.819   2.606  0.00  0.00    -0.268 OA
ATOM     11  N   UNL     1       1.464   1.220   1.785  0.00  0.00    -0.322 N 
ATOM     12  H   UNL     1       1.493   1.598   2.678  0.00  0.00    +0.169 HD
ATOM     13  C   UNL     1       1.312   2.056   0.699  0.00  0.00    +0.049 A 
ATOM     14  C   UNL     1       1.206   3.433   0.865  0.00  0.00    +0.029 A 
ENDBRANCH   1   8
BRANCH   1  15
ATOM     15  C   UNL     1       1.111  -2.631  -1.133  0.00  0.00    +0.143 A 
ATOM     16  N   UNL     1      -0.088  -2.403  -1.609  0.00  0.00    -0.115 NA
ATOM     17  N   UNL     1      -0.156  -2.925  -2.784  0.00  0.00    -0.023 NA
ATOM     18  N   UNL     1       0.970  -3.482  -3.071  0.00  0.00    -0.043 NA
ATOM     19  N   UNL     1       1.779  -3.317  -2.079  0.00  0.00    -0.225 N 
BRANCH  19  20
ATOM     20  C   UNL     1       3.163  -3.791  -1.998  0.00  0.00    +0.059 C 
ATOM     21  C   UNL     1       3.293  -4.790  -0.846  0.00  0.00    +0.036 C 
ATOM     22  C   UNL     1       3.546  -4.474  -3.312  0.00  0.00    +0.036 C 
ATOM     23  C   UNL     1       4.095  -2.603  -1.750  0.00  0.00    +0.036 C 
ENDBRANCH  19  20
ENDBRANCH   1  15
BRANCH   1  24
ATOM     24  N   UNL     1       0.869  -2.839   1.299  0.00  0.00    +0.394 N 
ATOM     25  H   UNL     1       1.028  -2.318   2.170  0.00  0.00    -0.080 HD
BRANCH  24  26
ATOM     26  C   UNL     1       1.315  -4.236   1.487  0.00  0.00    -0.041 C 
BRANCH  26  27
ATOM     27  C   UNL     1       0.629  -4.807   2.701  0.00  0.00    -0.064 A 
ATOM     28  C   UNL     1       1.143  -4.568   3.962  0.00  0.00    +0.003 A 
ATOM     29  C   UNL     1       0.511  -5.087   5.076  0.00  0.00    +0.020 A 
ATOM     30  C   UNL     1      -0.630  -5.855   4.928  0.00  0.00    +0.041 A 
ATOM     31  C   UNL     1      -1.141  -6.098   3.666  0.00  0.00    +0.020 A 
ATOM     32  C   UNL     1      -0.511  -5.574   2.553  0.00  0.00    +0.003 A 
ATOM     33 CL   UNL     1      -1.420  -6.514   6.327  0.00  0.00    -0.084 Cl
ENDBRANCH  26  27
ENDBRANCH  24  26
BRANCH  24  34
ATOM     34  C   UNL     1      -0.573  -2.809   0.978  0.00  0.00    -0.045 C 
BRANCH  34  35
ATOM     35  C   UNL     1      -1.119  -1.418   1.307  0.00  0.00    +0.102 C 
ATOM     36  C   UNL     1      -2.663  -1.437   1.331  0.00  0.00    +0.032 C 
ATOM     37  C   UNL     1      -3.066  -0.076   0.721  0.00  0.00    +0.030 C 
ATOM     38  C   UNL     1      -1.716   0.605   0.401  0.00  0.00    +0.160 C 
ATOM     39  O   UNL     1      -0.775  -0.482   0.261  0.00  0.00    -0.378 OA
ENDBRANCH  34  35
ENDBRANCH  24  34
ENDBRANCH   1  24
TORSDOF 8
