REMARK  Name = ZINC40019771
REMARK  18 active torsions:
REMARK  status: ('A' for Active; 'I' for Inactive)
REMARK    1  A    between atoms: C_1  and  C_2
REMARK    2  A    between atoms: C_2  and  C_3
REMARK    3  A    between atoms: C_3  and  C_4
REMARK    4  A    between atoms: C_4  and  N_5
REMARK    5  A    between atoms: N_5  and  C_6
REMARK    6  A    between atoms: N_5  and  C_10
REMARK    7  A    between atoms: C_6  and  C_7
REMARK    8  A    between atoms: C_7  and  C_8
REMARK    9  A    between atoms: C_8  and  C_9
REMARK   10  A    between atoms: C_10  and  C_11
REMARK   11  A    between atoms: C_11  and  C_12
REMARK   12  A    between atoms: C_12  and  N_13
REMARK   13  A    between atoms: C_14  and  C_30
REMARK   14  A    between atoms: C_16  and  C_21
REMARK   15  A    between atoms: C_21  and  C_23
REMARK   16  A    between atoms: C_24  and  C_29
REMARK   17  A    between atoms: C_26  and  C_28
REMARK   18  A    between atoms: C_33  and  N_36
REMARK                            x       y       z     vdW  Elec       q    Type
REMARK                         _______ _______ _______ _____ _____    ______ ____
ROOT
ATOM      1  N   UNL     1      -1.568  -5.999   3.345  0.00  0.00    -0.284 N 
ATOM      2  C   UNL     1      -0.155  -6.288   3.616  0.00  0.00    +0.145 C 
ATOM      3  C   UNL     1      -0.051  -6.516   5.106  0.00  0.00    +0.077 C 
ATOM      4  C   UNL     1      -1.296  -6.365   5.612  0.00  0.00    +0.249 C 
ATOM      5  C   UNL     1      -2.230  -6.040   4.515  0.00  0.00    +0.288 C 
ATOM      6  O   UNL     1      -3.421  -5.841   4.649  0.00  0.00    -0.266 OA
ATOM      7  O   UNL     1      -1.632  -6.489   6.917  0.00  0.00    -0.282 OA
ENDROOT
BRANCH   2   8
ATOM      8  C   UNL     1       0.273  -7.526   2.870  0.00  0.00    -0.022 A 
ATOM      9  C   UNL     1      -0.604  -8.585   2.727  0.00  0.00    +0.008 A 
ATOM     10  C   UNL     1      -0.211  -9.720   2.042  0.00  0.00    +0.033 A 
ATOM     11  C   UNL     1       1.059  -9.796   1.502  0.00  0.00    +0.126 A 
ATOM     12  C   UNL     1       1.936  -8.738   1.645  0.00  0.00    +0.033 A 
ATOM     13  C   UNL     1       1.542  -7.601   2.325  0.00  0.00    +0.008 A 
BRANCH  11  14
ATOM     14  N   UNL     1       1.479 -11.012   0.770  0.00  0.00    +0.056 N 
ATOM     15  O   UNL     1       0.712 -11.939   0.646  0.00  0.00    -0.126 OA
ATOM     16  O   UNL     1       2.590 -11.079   0.298  0.00  0.00    -0.126 OA
ENDBRANCH  11  14
ENDBRANCH   2   8
BRANCH   3  17
ATOM     17  C   UNL     1       1.167  -6.839   5.860  0.00  0.00    +0.203 C 
ATOM     18  O   UNL     1       1.273  -7.920   6.412  0.00  0.00    -0.286 OA
BRANCH  17  19
ATOM     19  C   UNL     1       2.256  -5.861   5.948  0.00  0.00    +0.082 A 
ATOM     20  C   UNL     1       3.519  -5.984   6.515  0.00  0.00    +0.057 A 
ATOM     21  N   UNL     1       4.291  -4.930   6.444  0.00  0.00    -0.249 NA
ATOM     22  C   UNL     1       3.892  -3.819   5.867  0.00  0.00    +0.076 A 
ATOM     23  S   UNL     1       2.333  -4.180   5.348  0.00  0.00    -0.069 S 
ATOM     24  C   UNL     1       4.654  -2.529   5.703  0.00  0.00    +0.073 C 
ATOM     25  C   UNL     1       3.972  -7.260   7.176  0.00  0.00    +0.067 C 
ENDBRANCH  17  19
ENDBRANCH   3  17
BRANCH   1  26
ATOM     26  C   UNL     1      -2.152  -5.710   2.033  0.00  0.00    +0.107 C 
BRANCH  26  27
ATOM     27  C   UNL     1      -2.099  -4.204   1.771  0.00  0.00    +0.000 C 
BRANCH  27  28
ATOM     28  C   UNL     1      -2.709  -3.902   0.401  0.00  0.00    -0.077 C 
BRANCH  28  29
ATOM     29  N   UNL     1      -2.658  -2.455   0.150  0.00  0.00    +0.380 N 
ATOM     30  H   UNL     1      -3.110  -1.966   0.908  0.00  0.00    -0.082 HD
BRANCH  29  31
ATOM     31  C   UNL     1      -1.257  -2.024   0.055  0.00  0.00    -0.079 C 
BRANCH  31  32
ATOM     32  C   UNL     1      -1.200  -0.500  -0.064  0.00  0.00    -0.019 C 
BRANCH  32  34
ATOM     33  C   UNL     1       0.316   1.485  -0.142  0.00  0.00    +0.004 C 
ATOM     34  C   UNL     1       0.259  -0.039  -0.022  0.00  0.00    -0.005 C 
ENDBRANCH  32  34
ENDBRANCH  31  32
ENDBRANCH  29  31
BRANCH  29  35
ATOM     35  C   UNL     1      -3.350  -2.152  -1.110  0.00  0.00    -0.079 C 
BRANCH  35  36
ATOM     36  C   UNL     1      -4.840  -2.468  -0.962  0.00  0.00    -0.019 C 
BRANCH  36  37
ATOM     37  C   UNL     1      -5.584  -2.023  -2.223  0.00  0.00    -0.005 C 
ATOM     38  C   UNL     1      -7.073  -2.339  -2.075  0.00  0.00    +0.004 C 
ENDBRANCH  36  37
ENDBRANCH  35  36
ENDBRANCH  29  35
ENDBRANCH  28  29
ENDBRANCH  27  28
ENDBRANCH  26  27
ENDBRANCH   1  26
TORSDOF 14
