REMARK  Name = ZINC36490720
REMARK  14 active torsions:
REMARK  status: ('A' for Active; 'I' for Inactive)
REMARK    1  A    between atoms: C_1  and  C_2
REMARK    2  A    between atoms: C_2  and  C_3
REMARK    3  A    between atoms: C_2  and  C_4
REMARK    4  A    between atoms: C_2  and  C_5
REMARK    5  A    between atoms: C_5  and  C_6
REMARK    6  A    between atoms: C_6  and  C_7
REMARK    7  A    between atoms: C_6  and  C_8
REMARK    8  A    between atoms: C_6  and  N_9
REMARK    9  A    between atoms: C_10  and  C_12
REMARK   10  A    between atoms: C_12  and  C_14
REMARK   11  A    between atoms: C_12  and  N_21
REMARK   12  A    between atoms: C_19  and  O_20
REMARK   13  A    between atoms: N_21  and  C_22
REMARK   14  A    between atoms: C_28  and  C_30
REMARK                            x       y       z     vdW  Elec       q    Type
REMARK                         _______ _______ _______ _____ _____    ______ ____
ROOT
ATOM      1  C   UNL     1       5.495   0.193  -3.523  0.00  0.00    +0.196 C 
ENDROOT
BRANCH   1   2
ATOM      2  C   UNL     1       4.511   1.186  -4.083  0.00  0.00    +0.023 A 
ATOM      3  C   UNL     1       3.680   1.891  -3.233  0.00  0.00    +0.009 A 
ATOM      4  C   UNL     1       2.776   2.803  -3.747  0.00  0.00    +0.001 A 
ATOM      5  C   UNL     1       2.701   3.012  -5.112  0.00  0.00    +0.004 A 
ATOM      6  C   UNL     1       3.530   2.310  -5.966  0.00  0.00    +0.046 A 
ATOM      7  C   UNL     1       4.441   1.398  -5.452  0.00  0.00    +0.122 A 
BRANCH   7   8
ATOM      8  O   UNL     1       5.261   0.711  -6.290  0.00  0.00    -0.506 OA
ATOM      9  H   UNL     1       4.926  -0.161  -6.540  0.00  0.00    +0.292 HD
ENDBRANCH   7   8
ENDBRANCH   1   2
BRANCH   1  11
ATOM     10  N   UNL     1       4.103  -0.479  -1.591  0.00  0.00    -0.308 N 
ATOM     11  C   UNL     1       5.264   0.037  -2.042  0.00  0.00    +0.239 C 
ATOM     12  O   UNL     1       6.122   0.376  -1.255  0.00  0.00    -0.273 OA
ATOM     13  H   UNL     1       3.398  -0.708  -2.218  0.00  0.00    +0.149 HD
BRANCH  10  14
ATOM     14  C   UNL     1       3.905  -0.695  -0.156  0.00  0.00    +0.030 C 
ATOM     15  C   UNL     1       4.182   0.608   0.598  0.00  0.00    +0.031 C 
ATOM     16  C   UNL     1       4.865  -1.781   0.334  0.00  0.00    +0.031 C 
BRANCH  14  17
ATOM     17  C   UNL     1       2.462  -1.135   0.100  0.00  0.00    +0.031 C 
BRANCH  17  19
ATOM     18  C   UNL     1       1.477  -0.622  -2.138  0.00  0.00    +0.010 C 
ATOM     19  C   UNL     1       1.506  -0.217  -0.663  0.00  0.00    -0.036 C 
ATOM     20  C   UNL     1       1.984   1.232  -0.541  0.00  0.00    +0.010 C 
ATOM     21  C   UNL     1       0.100  -0.341  -0.072  0.00  0.00    +0.010 C 
ENDBRANCH  17  19
ENDBRANCH  14  17
ENDBRANCH  10  14
ENDBRANCH   1  11
BRANCH   1  22
ATOM     22  N   UNL     1       6.859   0.672  -3.756  0.00  0.00    -0.281 N 
ATOM     23  C   UNL     1       7.732  -0.088  -4.447  0.00  0.00    +0.237 C 
ATOM     24  O   UNL     1       7.425  -1.214  -4.779  0.00  0.00    -0.274 OA
BRANCH  23  25
ATOM     25  C   UNL     1       9.089   0.459  -4.806  0.00  0.00    +0.159 C 
ATOM     26  C   UNL     1       9.018   1.231  -6.143  0.00  0.00    +0.041 C 
ATOM     27  C   UNL     1       9.410   0.135  -7.160  0.00  0.00    +0.098 C 
ATOM     28  C   UNL     1      10.230  -0.846  -6.351  0.00  0.00    +0.214 C 
ATOM     29  O   UNL     1      10.957  -1.696  -6.820  0.00  0.00    -0.276 OA
ATOM     30  N   UNL     1      10.036  -0.638  -5.035  0.00  0.00    -0.304 N 
ATOM     31  H   UNL     1      10.465  -1.147  -4.330  0.00  0.00    +0.149 HD
ENDBRANCH  23  25
BRANCH  22  32
ATOM     32  C   UNL     1       7.276   1.978  -3.239  0.00  0.00    +0.077 C 
ATOM     33  C   UNL     1       8.067   1.785  -1.944  0.00  0.00    +0.022 C 
ATOM     34  C   UNL     1       8.501   3.149  -1.403  0.00  0.00    +0.002 C 
ATOM     35  C   UNL     1       7.264   4.004  -1.123  0.00  0.00    +0.000 C 
ATOM     36  C   UNL     1       6.473   4.197  -2.418  0.00  0.00    +0.002 C 
ATOM     37  C   UNL     1       6.038   2.833  -2.958  0.00  0.00    +0.022 C 
ENDBRANCH  22  32
ENDBRANCH   1  22
TORSDOF 9
