REMARK  Name = ZINC03849781
REMARK  7 active torsions:
REMARK  status: ('A' for Active; 'I' for Inactive)
REMARK    1  A    between atoms: C_1  and  C_2
REMARK    2  A    between atoms: C_2  and  C_3
REMARK    3  A    between atoms: C_3  and  O_27
REMARK    4  A    between atoms: C_6  and  C_26
REMARK    5  A    between atoms: C_18  and  C_25
REMARK    6  A    between atoms: O_27  and  C_28
REMARK    7  A    between atoms: C_28  and  C_30
REMARK                            x       y       z     vdW  Elec       q    Type
REMARK                         _______ _______ _______ _____ _____    ______ ____
ROOT
ATOM      1  C   UNL     1      -4.524   4.432   6.135  0.00  0.00    +0.114 C 
ATOM      2  C   UNL     1      -5.217   3.292   5.388  0.00  0.00    +0.048 C 
ATOM      3  C   UNL     1      -4.304   2.762   4.273  0.00  0.00    +0.011 C 
ATOM      4  C   UNL     1      -4.013   3.916   3.315  0.00  0.00    -0.026 C 
ATOM      5  C   UNL     1      -3.245   4.988   4.089  0.00  0.00    -0.001 C 
ATOM      6  C   UNL     1      -4.164   5.564   5.167  0.00  0.00    +0.052 C 
ATOM      7  C   UNL     1      -2.783   6.062   3.111  0.00  0.00    +0.004 C 
ATOM      8  C   UNL     1      -1.695   5.472   2.225  0.00  0.00    +0.004 C 
ATOM      9  C   UNL     1      -1.769   3.945   2.187  0.00  0.00    -0.003 C 
ATOM     10  C   UNL     1      -3.211   3.467   2.100  0.00  0.00    -0.001 C 
ATOM     11  C   UNL     1      -3.233   1.932   2.053  0.00  0.00    +0.005 C 
ATOM     12  C   UNL     1      -2.488   1.466   0.832  0.00  0.00    +0.015 C 
ATOM     13  C   UNL     1      -1.051   1.938   0.814  0.00  0.00    +0.029 C 
ATOM     14  C   UNL     1      -0.947   3.462   0.987  0.00  0.00    +0.006 C 
ATOM     15  C   UNL     1       0.551   3.619   1.390  0.00  0.00    +0.012 C 
ATOM     16  C   UNL     1       0.804   2.403   2.308  0.00  0.00    +0.075 C 
ATOM     17  C   UNL     1      -0.229   1.353   1.937  0.00  0.00    +0.139 C 
ATOM     18  O   UNL     1      -0.365   0.265   2.441  0.00  0.00    -0.297 OA
ATOM     19  C   UNL     1      -0.416   1.546  -0.522  0.00  0.00    +0.019 C 
ATOM     20  C   UNL     1      -5.341   4.508   2.838  0.00  0.00    +0.012 C 
ENDROOT
BRANCH   1  22
ATOM     21  C   UNL     1      -4.765   6.101   7.978  0.00  0.00    +0.008 C 
ATOM     22  C   UNL     1      -5.461   4.971   7.218  0.00  0.00    +0.045 C 
ENDBRANCH   1  22
BRANCH   1  23
ATOM     23  O   UNL     1      -3.311   3.932   6.756  0.00  0.00    -0.458 OA
BRANCH  23  24
ATOM     24  C   UNL     1      -3.443   2.911   7.618  0.00  0.00    +0.304 C 
ATOM     25  O   UNL     1      -4.543   2.511   7.916  0.00  0.00    -0.251 OA
ATOM     26  C   UNL     1      -2.219   2.264   8.213  0.00  0.00    +0.136 C 
ENDBRANCH  23  24
ENDBRANCH   1  23
TORSDOF 3
