REMARK  Name = ZINC13030545
REMARK  13 active torsions:
REMARK  status: ('A' for Active; 'I' for Inactive)
REMARK    1  A    between atoms: C_1  and  C_2
REMARK    2  A    between atoms: C_14  and  C_35
REMARK    3  A    between atoms: N_16  and  C_17
REMARK    4  A    between atoms: C_17  and  C_19
REMARK    5  A    between atoms: C_19  and  C_20
REMARK    6  A    between atoms: C_20  and  C_29
REMARK    7  A    between atoms: C_21  and  C_22
REMARK    8  A    between atoms: C_21  and  N_26
REMARK    9  A    between atoms: C_23  and  C_24
REMARK   10  A    between atoms: N_30  and  C_31
REMARK   11  A    between atoms: C_31  and  C_32
REMARK   12  A    between atoms: C_32  and  O_33
REMARK   13  A    between atoms: O_33  and  C_34
REMARK                            x       y       z     vdW  Elec       q    Type
REMARK                         _______ _______ _______ _____ _____    ______ ____
ROOT
ATOM      1  C   UNL     1      -4.068  -0.235  -2.084  0.00  0.00    +0.047 C 
ATOM      2  C   UNL     1      -3.398  -0.352  -3.429  0.00  0.00    -0.007 A 
ATOM      3  C   UNL     1      -4.148  -0.445  -4.562  0.00  0.00    +0.008 A 
ATOM      4  C   UNL     1      -3.512  -0.553  -5.807  0.00  0.00    +0.019 A 
ATOM      5  C   UNL     1      -2.162  -0.565  -5.878  0.00  0.00    +0.096 A 
ATOM      6  N   UNL     1      -1.403  -0.472  -4.749  0.00  0.00    -0.267 N 
ATOM      7  C   UNL     1      -1.992  -0.365  -3.520  0.00  0.00    +0.145 A 
ATOM      8  N   UNL     1      -1.278  -0.273  -2.399  0.00  0.00    -0.211 NA
ATOM      9  C   UNL     1       0.046  -0.279  -2.400  0.00  0.00    +0.150 A 
ATOM     10  C   UNL     1       0.735  -0.380  -3.634  0.00  0.00    +0.084 A 
ATOM     11  C   UNL     1      -0.054  -0.475  -4.862  0.00  0.00    +0.268 A 
ATOM     12  O   UNL     1       0.485  -0.569  -5.950  0.00  0.00    -0.267 OA
ATOM     13  C   UNL     1       2.132  -0.393  -3.661  0.00  0.00    +0.039 A 
ATOM     14  C   UNL     1       2.832  -0.300  -2.459  0.00  0.00    +0.093 A 
ATOM     15  C   UNL     1       2.121  -0.194  -1.241  0.00  0.00    +0.145 A 
ATOM     16  N   UNL     1       2.790  -0.104  -0.091  0.00  0.00    -0.162 NA
ATOM     17  N   UNL     1       0.754  -0.182  -1.230  0.00  0.00    -0.309 N 
ENDROOT
BRANCH  16  18
ATOM     18  C   UNL     1       4.110   0.047  -0.101  0.00  0.00    +0.242 C 
ATOM     19  O   UNL     1       4.602   1.063  -0.554  0.00  0.00    -0.273 OA
BRANCH  18  20
ATOM     20  C   UNL     1       4.997  -1.040   0.449  0.00  0.00    +0.130 C 
BRANCH  20  21
ATOM     21  C   UNL     1       6.440  -0.624   0.321  0.00  0.00    -0.034 C 
ATOM     22  C   UNL     1       7.018   0.085   1.290  0.00  0.00    +0.126 C 
ATOM     23  C   UNL     1       7.229  -1.009  -0.904  0.00  0.00    +0.042 C 
BRANCH  22  24
ATOM     24  N   UNL     1       6.286   0.352   2.549  0.00  0.00    +0.056 N 
ATOM     25  O   UNL     1       6.390  -0.415   3.489  0.00  0.00    -0.126 OA
ATOM     26  O   UNL     1       5.580   1.340   2.644  0.00  0.00    -0.126 OA
ENDBRANCH  22  24
BRANCH  22  27
ATOM     27  C   UNL     1       8.378   0.599   1.111  0.00  0.00    +0.032 C 
ATOM     28  C   UNL     1       9.006   1.218   2.132  0.00  0.00    +0.002 C 
BRANCH  28  29
ATOM     29  C   UNL     1      10.316   1.836   1.919  0.00  0.00    -0.008 C 
ATOM     30  C   UNL     1      10.936   2.448   2.928  0.00  0.00    +0.008 C 
ENDBRANCH  28  29
ENDBRANCH  22  27
ENDBRANCH  20  21
ENDBRANCH  18  20
ENDBRANCH  16  18
BRANCH  14  31
ATOM     31  C   UNL     1       4.264  -0.311  -2.458  0.00  0.00    +0.103 C 
ATOM     32  N   UNL     1       5.400  -0.319  -2.457  0.00  0.00    -0.191 NA
ENDBRANCH  14  31
BRANCH  17  33
ATOM     33  C   UNL     1       0.039  -0.072   0.044  0.00  0.00    +0.153 C 
BRANCH  33  34
ATOM     34  C   UNL     1      -0.199   1.404   0.369  0.00  0.00    +0.181 C 
BRANCH  34  35
ATOM     35  O   UNL     1      -0.896   1.512   1.611  0.00  0.00    -0.381 OA
ATOM     36  C   UNL     1      -1.169   2.857   2.010  0.00  0.00    +0.194 C 
ENDBRANCH  34  35
ENDBRANCH  33  34
ENDBRANCH  17  33
TORSDOF 10
