REMARK  Name = ZINC54621849
REMARK  6 active torsions:
REMARK  status: ('A' for Active; 'I' for Inactive)
REMARK    1  A    between atoms: C_1  and  C_2
REMARK    2  A    between atoms: C_8  and  C_13
REMARK    3  A    between atoms: C_9  and  O_12
REMARK    4  A    between atoms: C_13  and  C_15
REMARK    5  A    between atoms: C_13  and  N_21
REMARK    6  A    between atoms: N_21  and  C_22
REMARK                            x       y       z     vdW  Elec       q    Type
REMARK                         _______ _______ _______ _____ _____    ______ ____
ROOT
ATOM      1  C   UNL     1       0.086  -4.769   3.747  0.00  0.00    +0.136 C 
ENDROOT
BRANCH   1   9
ATOM      2  C   UNL     1       0.750   1.567   0.180  0.00  0.00    +0.065 C 
ATOM      3  C   UNL     1       0.592   0.069   0.132  0.00  0.00    +0.039 A 
ATOM      4  C   UNL     1       0.524  -0.566  -1.107  0.00  0.00    +0.023 A 
ATOM      5  C   UNL     1       0.380  -1.922  -1.170  0.00  0.00    +0.012 A 
ATOM      6  C   UNL     1       0.306  -2.639   0.039  0.00  0.00    +0.004 A 
ATOM      7  C   UNL     1       0.159  -4.036   0.053  0.00  0.00    +0.010 A 
ATOM      8  C   UNL     1       0.091  -4.696   1.242  0.00  0.00    +0.010 A 
ATOM      9  C   UNL     1       0.165  -4.006   2.449  0.00  0.00    +0.021 A 
ATOM     10  C   UNL     1       0.308  -2.648   2.476  0.00  0.00    +0.148 A 
ATOM     11  C   UNL     1       0.382  -1.931   1.263  0.00  0.00    +0.113 A 
ATOM     12  N   UNL     1       0.528  -0.603   1.255  0.00  0.00    -0.248 NA
BRANCH  10  13
ATOM     13  O   UNL     1       0.378  -1.992   3.663  0.00  0.00    -0.504 OA
ATOM     14  H   UNL     1       1.277  -1.894   4.006  0.00  0.00    +0.292 HD
ENDBRANCH  10  13
ENDBRANCH   1   9
BRANCH   1  15
ATOM     15  C   UNL     1      -1.346  -4.815   4.216  0.00  0.00    -0.005 A 
ATOM     16  C   UNL     1      -1.791  -3.941   5.196  0.00  0.00    +0.009 A 
ATOM     17  C   UNL     1      -3.116  -4.019   5.597  0.00  0.00    +0.020 A 
ATOM     18  C   UNL     1      -3.943  -4.958   5.010  0.00  0.00    +0.111 A 
ATOM     19  N   UNL     1      -3.485  -5.774   4.081  0.00  0.00    -0.263 NA
ATOM     20  C   UNL     1      -2.232  -5.724   3.671  0.00  0.00    +0.116 A 
ENDBRANCH   1  15
BRANCH   1  21
ATOM     21  N   UNL     1       0.576  -6.134   3.541  0.00  0.00    -0.333 N 
ATOM     22  H   UNL     1       0.553  -6.529   2.655  0.00  0.00    +0.147 HD
BRANCH  21  23
ATOM     23  C   UNL     1       1.075  -6.867   4.620  0.00  0.00    +0.029 A 
ATOM     24  C   UNL     1       1.103  -6.305   5.890  0.00  0.00    +0.024 A 
ATOM     25  C   UNL     1       1.597  -7.031   6.956  0.00  0.00    +0.023 A 
ATOM     26  C   UNL     1       2.066  -8.318   6.760  0.00  0.00    +0.059 A 
ATOM     27  C   UNL     1       2.040  -8.882   5.495  0.00  0.00    +0.061 A 
ATOM     28  C   UNL     1       1.540  -8.161   4.426  0.00  0.00    +0.044 A 
ATOM     29 CL   UNL     1       2.630 -10.496   5.253  0.00  0.00    -0.082 Cl
ATOM     30 CL   UNL     1       2.687  -9.228   8.101  0.00  0.00    -0.082 Cl
ENDBRANCH  21  23
ENDBRANCH   1  21
TORSDOF 5
