REMARK  Name = ZINC08424875
REMARK  10 active torsions:
REMARK  status: ('A' for Active; 'I' for Inactive)
REMARK    1  A    between atoms: C_1  and  C_2
REMARK    2  A    between atoms: C_2  and  O_3
REMARK    3  A    between atoms: O_3  and  C_4
REMARK    4  A    between atoms: C_4  and  C_6
REMARK    5  A    between atoms: C_7  and  C_37
REMARK    6  A    between atoms: C_14  and  C_15
REMARK    7  A    between atoms: C_18  and  O_23
REMARK    8  A    between atoms: C_19  and  O_21
REMARK    9  A    between atoms: O_21  and  C_22
REMARK   10  A    between atoms: C_25  and  C_27
REMARK                            x       y       z     vdW  Elec       q    Type
REMARK                         _______ _______ _______ _____ _____    ______ ____
ROOT
ATOM      1  C   UNL     1       1.509   1.401  -1.198  0.00  0.00    +0.085 C 
ATOM      2  C   UNL     1       1.835   0.229  -1.821  0.00  0.00    +0.053 C 
ATOM      3  N   UNL     1       1.918  -0.902  -1.131  0.00  0.00    -0.228 NA
ATOM      4  C   UNL     1       1.707  -1.009   0.157  0.00  0.00    +0.178 A 
ATOM      5  N   UNL     1       1.368   0.046   0.971  0.00  0.00    -0.275 N 
ATOM      6  C   UNL     1       1.177  -0.185   2.277  0.00  0.00    +0.268 A 
ATOM      7  O   UNL     1       0.875   0.718   3.036  0.00  0.00    -0.266 OA
ATOM      8  C   UNL     1       1.342  -1.561   2.764  0.00  0.00    +0.081 A 
ATOM      9  C   UNL     1       1.207  -2.053   4.024  0.00  0.00    +0.028 C 
ATOM     10  S   UNL     1       1.768  -2.412   1.253  0.00  0.00    -0.046 S 
ATOM     11  C   UNL     1       1.249   1.367   0.290  0.00  0.00    +0.162 C 
ATOM     12  C   UNL     1       2.102   0.220  -3.304  0.00  0.00    +0.066 C 
ENDROOT
BRANCH  11  13
ATOM     13  C   UNL     1      -0.145   1.887   0.529  0.00  0.00    -0.012 A 
ATOM     14  C   UNL     1      -1.197   1.025   0.584  0.00  0.00    +0.006 A 
ATOM     15  C   UNL     1      -2.494   1.488   0.799  0.00  0.00    +0.001 A 
ATOM     16  C   UNL     1      -2.745   2.815   0.971  0.00  0.00    +0.008 A 
ATOM     17  C   UNL     1      -1.684   3.735   0.920  0.00  0.00    -0.018 A 
ATOM     18  C   UNL     1      -0.366   3.264   0.696  0.00  0.00    -0.012 A 
ATOM     19  C   UNL     1       0.695   4.185   0.645  0.00  0.00    +0.009 A 
ATOM     20  C   UNL     1       0.443   5.512   0.811  0.00  0.00    +0.001 A 
ATOM     21  C   UNL     1      -0.853   5.975   1.031  0.00  0.00    +0.001 A 
ATOM     22  C   UNL     1      -1.905   5.113   1.087  0.00  0.00    +0.008 A 
ENDBRANCH  11  13
BRANCH   9  23
ATOM     23  C   UNL     1       1.014  -1.135   5.153  0.00  0.00    -0.020 A 
ATOM     24  C   UNL     1       1.694   0.089   5.188  0.00  0.00    +0.012 A 
ATOM     25  C   UNL     1       1.506   0.950   6.247  0.00  0.00    +0.050 A 
ATOM     26  C   UNL     1       0.653   0.603   7.286  0.00  0.00    +0.158 A 
ATOM     27  C   UNL     1      -0.023  -0.616   7.261  0.00  0.00    +0.162 A 
ATOM     28  C   UNL     1       0.154  -1.484   6.202  0.00  0.00    +0.057 A 
BRANCH  27  29
ATOM     29  O   UNL     1      -0.858  -0.951   8.282  0.00  0.00    -0.491 OA
ATOM     30  C   UNL     1      -1.518  -2.215   8.192  0.00  0.00    +0.277 C 
ENDBRANCH  27  29
BRANCH  26  31
ATOM     31  O   UNL     1       0.477   1.454   8.330  0.00  0.00    -0.503 OA
ATOM     32  H   UNL     1       1.100   1.318   9.057  0.00  0.00    +0.292 HD
ENDBRANCH  26  31
ENDBRANCH   9  23
BRANCH   1  33
ATOM     33  C   UNL     1       1.418   2.602  -1.920  0.00  0.00    +0.339 C 
ATOM     34  O   UNL     1       2.356   3.379  -1.930  0.00  0.00    -0.245 OA
BRANCH  33  35
ATOM     35  O   UNL     1       0.291   2.895  -2.604  0.00  0.00    -0.462 OA
BRANCH  35  37
ATOM     36  C   UNL     1      -1.082   4.309  -4.002  0.00  0.00    +0.048 C 
ATOM     37  C   UNL     1       0.308   4.078  -3.406  0.00  0.00    +0.229 C 
ENDBRANCH  35  37
ENDBRANCH  33  35
ENDBRANCH   1  33
TORSDOF 7
