REMARK  Name = ZINC44858555
REMARK  7 active torsions:
REMARK  status: ('A' for Active; 'I' for Inactive)
REMARK    1  A    between atoms: C_1  and  C_2
REMARK    2  A    between atoms: C_2  and  C_3
REMARK    3  A    between atoms: C_2  and  C_4
REMARK    4  A    between atoms: C_4  and  C_6
REMARK    5  A    between atoms: C_4  and  C_9
REMARK    6  A    between atoms: C_6  and  N_8
REMARK    7  A    between atoms: C_16  and  C_18
REMARK                            x       y       z     vdW  Elec       q    Type
REMARK                         _______ _______ _______ _____ _____    ______ ____
ROOT
ATOM      1  C   UNL     1      -2.273   0.172  -1.110  0.00  0.00    +0.226 C 
ATOM      2  O   UNL     1      -1.717   0.798  -1.987  0.00  0.00    -0.275 OA
ATOM      3  N   UNL     1      -3.569  -0.174  -1.247  0.00  0.00    -0.289 N 
ATOM      4  C   UNL     1      -4.291  -0.821  -0.143  0.00  0.00    +0.108 C 
ATOM      5  C   UNL     1      -4.923  -2.117  -0.661  0.00  0.00    +0.019 C 
ATOM      6  C   UNL     1      -5.790  -1.805  -1.883  0.00  0.00    +0.004 C 
ATOM      7  C   UNL     1      -4.917  -1.216  -2.993  0.00  0.00    +0.032 C 
ATOM      8  C   UNL     1      -4.287   0.095  -2.500  0.00  0.00    +0.162 C 
ENDROOT
BRANCH   8   9
ATOM      9  C   UNL     1      -3.321   0.614  -3.534  0.00  0.00    +0.231 C 
ATOM     10  O   UNL     1      -2.382  -0.068  -3.883  0.00  0.00    -0.274 OA
ATOM     11  N   UNL     1      -3.502   1.837  -4.071  0.00  0.00    -0.328 N 
ATOM     12  H   UNL     1      -4.254   2.383  -3.792  0.00  0.00    +0.145 HD
ATOM     13  H   UNL     1      -2.881   2.171  -4.737  0.00  0.00    +0.145 HD
ENDBRANCH   8   9
BRANCH   1  14
ATOM     14  C   UNL     1      -1.516  -0.219   0.133  0.00  0.00    +0.129 C 
BRANCH  14  16
ATOM     15  C   UNL     1      -0.889   2.171   0.503  0.00  0.00    +0.008 C 
ATOM     16  C   UNL     1      -0.350   0.748   0.345  0.00  0.00    +0.001 C 
ATOM     17  C   UNL     1       0.418   0.351   1.608  0.00  0.00    +0.008 C 
ENDBRANCH  14  16
BRANCH  14  18
ATOM     18  C   UNL     1      -0.985  -1.621  -0.022  0.00  0.00    +0.058 C 
ATOM     19  S   UNL     1      -1.363  -2.743   1.053  0.00  0.00    -0.040 S 
BRANCH  18  20
ATOM     20  N   UNL     1      -0.191  -1.928  -1.067  0.00  0.00    -0.355 N 
ATOM     21  H   UNL     1       0.038  -1.248  -1.719  0.00  0.00    +0.143 HD
ATOM     22  H   UNL     1       0.151  -2.830  -1.167  0.00  0.00    +0.143 HD
ENDBRANCH  18  20
ENDBRANCH  14  18
ENDBRANCH   1  14
TORSDOF 5
