REMARK  Name = ZINC63772356
REMARK  3 active torsions:
REMARK  status: ('A' for Active; 'I' for Inactive)
REMARK    1  A    between atoms: C_2  and  C_3
REMARK    2  A    between atoms: C_8  and  O_9
REMARK    3  A    between atoms: O_9  and  C_10
REMARK                            x       y       z     vdW  Elec       q    Type
REMARK                         _______ _______ _______ _____ _____    ______ ____
ROOT
ATOM      1  C   UNL     1      -0.017   1.428   0.010  0.00  0.00    +0.066 A 
ATOM      2  C   UNL     1      -1.233   2.112   0.031  0.00  0.00    +0.020 A 
ATOM      3  C   UNL     1      -1.245   3.492   0.039  0.00  0.00    +0.001 A 
ATOM      4  C   UNL     1      -0.056   4.200   0.026  0.00  0.00    +0.004 A 
ATOM      5  C   UNL     1       1.154   3.533   0.005  0.00  0.00    +0.047 A 
ATOM      6  C   UNL     1       1.183   2.148   0.002  0.00  0.00    +0.139 A 
ENDROOT
BRANCH   1   8
ATOM      7  C   UNL     1       0.018  -1.178  -0.004  0.00  0.00    +0.009 C 
ATOM      8  C   UNL     1       0.002  -0.004   0.002  0.00  0.00    -0.066 C 
ENDBRANCH   1   8
BRANCH   6   9
ATOM      9  O   UNL     1       2.372   1.491  -0.013  0.00  0.00    -0.462 OA
BRANCH   9  10
ATOM     10  C   UNL     1       3.556   2.292  -0.020  0.00  0.00    +0.307 C 
ATOM     11  C   UNL     1       4.785   1.386   0.089  0.00  0.00    +0.075 C 
ATOM     12  C   UNL     1       6.051   2.247   0.020  0.00  0.00    +0.008 C 
ATOM     13  C   UNL     1       6.036   3.053  -1.282  0.00  0.00    +0.028 C 
ATOM     14  C   UNL     1       4.758   3.894  -1.337  0.00  0.00    +0.164 C 
ATOM     15  O   UNL     1       3.620   3.036  -1.238  0.00  0.00    -0.341 OA
ENDBRANCH   9  10
ENDBRANCH   6   9
TORSDOF 3
