REMARK  Name = ZINC09581768
REMARK  7 active torsions:
REMARK  status: ('A' for Active; 'I' for Inactive)
REMARK    1  A    between atoms: C_1  and  C_2
REMARK    2  A    between atoms: C_2  and  C_3
REMARK    3  A    between atoms: C_3  and  N_4
REMARK    4  A    between atoms: C_8  and  S_27
REMARK    5  A    between atoms: N_13  and  C_14
REMARK    6  A    between atoms: C_14  and  C_16
REMARK    7  A    between atoms: S_27  and  N_30
REMARK                            x       y       z     vdW  Elec       q    Type
REMARK                         _______ _______ _______ _____ _____    ______ ____
ROOT
ATOM      1  N   UNL     1      -3.153   2.921   4.834  0.00  0.00    -0.321 N 
ATOM      2  C   UNL     1      -2.368   2.688   3.720  0.00  0.00    +0.058 A 
ATOM      3  C   UNL     1      -1.426   3.542   3.124  0.00  0.00    +0.029 A 
ATOM      4  C   UNL     1      -0.723   3.145   2.011  0.00  0.00    +0.030 A 
ATOM      5  C   UNL     1      -0.927   1.900   1.439  0.00  0.00    +0.106 A 
ATOM      6  C   UNL     1      -1.849   1.038   2.007  0.00  0.00    +0.045 A 
ATOM      7  C   UNL     1      -2.549   1.432   3.122  0.00  0.00    +0.041 A 
ATOM      8  S   UNL     1      -3.787   0.671   4.142  0.00  0.00    -0.052 S 
ATOM      9  C   UNL     1      -4.017   1.968   5.271  0.00  0.00    +0.167 A 
ATOM     10  N   UNL     1      -4.842   2.017   6.314  0.00  0.00    -0.153 NA
ENDROOT
BRANCH   5  11
ATOM     11  S   UNL     1      -0.017   1.417   0.010  0.00  0.00    +0.056 S 
ATOM     12  O   UNL     1       0.002  -0.004   0.002  0.00  0.00    -0.153 OA
ATOM     13  O   UNL     1       1.172   2.195   0.003  0.00  0.00    -0.153 OA
BRANCH  11  14
ATOM     14  N   UNL     1      -0.897   1.885  -1.312  0.00  0.00    -0.204 NA
ATOM     15  H   UNL     1      -1.201   1.223  -1.952  0.00  0.00    +0.144 HD
ATOM     16  H   UNL     1      -1.110   2.822  -1.446  0.00  0.00    +0.144 HD
ENDBRANCH  11  14
ENDBRANCH   5  11
BRANCH  10  17
ATOM     17  C   UNL     1      -5.623   0.978   6.593  0.00  0.00    +0.283 C 
ATOM     18  O   UNL     1      -5.584  -0.017   5.895  0.00  0.00    -0.269 OA
BRANCH  17  19
ATOM     19  C   UNL     1      -6.557   1.034   7.775  0.00  0.00    +0.298 C 
ATOM     20  C   UNL     1      -7.628   2.106   7.538  0.00  0.00    +0.283 C 
ATOM     21  O   UNL     1      -8.504   2.123   8.670  0.00  0.00    -0.484 OA
ATOM     22  C   UNL     1      -8.942   0.916   9.122  0.00  0.00    +0.162 A 
ATOM     23  C   UNL     1     -10.048   0.863   9.958  0.00  0.00    +0.049 A 
ATOM     24  C   UNL     1     -10.503  -0.355  10.428  0.00  0.00    +0.004 A 
ATOM     25  C   UNL     1      -9.857  -1.523  10.066  0.00  0.00    +0.004 A 
ATOM     26  C   UNL     1      -8.756  -1.477   9.232  0.00  0.00    +0.049 A 
ATOM     27  C   UNL     1      -8.295  -0.258   8.756  0.00  0.00    +0.163 A 
ATOM     28  O   UNL     1      -7.213  -0.229   7.932  0.00  0.00    -0.472 OA
ENDBRANCH  17  19
ENDBRANCH  10  17
BRANCH   1  29
ATOM     29  C   UNL     1      -3.052   4.198   5.545  0.00  0.00    +0.124 C 
BRANCH  29  31
ATOM     30  C   UNL     1      -1.880   5.425   7.379  0.00  0.00    +0.005 C 
ATOM     31  C   UNL     1      -1.985   4.092   6.636  0.00  0.00    +0.018 C 
ENDBRANCH  29  31
ENDBRANCH   1  29
TORSDOF 6
