REMARK  Name = ZINC39920747
REMARK  9 active torsions:
REMARK  status: ('A' for Active; 'I' for Inactive)
REMARK    1  A    between atoms: C_1  and  C_2
REMARK    2  A    between atoms: C_5  and  O_8
REMARK    3  A    between atoms: O_8  and  C_9
REMARK    4  A    between atoms: C_9  and  C_10
REMARK    5  A    between atoms: N_12  and  N_13
REMARK    6  A    between atoms: C_14  and  C_25
REMARK    7  A    between atoms: C_28  and  N_31
REMARK    8  A    between atoms: N_31  and  C_32
REMARK    9  A    between atoms: N_31  and  C_33
REMARK                            x       y       z     vdW  Elec       q    Type
REMARK                         _______ _______ _______ _____ _____    ______ ____
ROOT
ATOM      1  N   UNL     1       0.108  -8.726   1.876  0.00  0.00    -0.191 N 
ATOM      2  C   UNL     1      -1.269  -9.159   2.110  0.00  0.00    +0.212 C 
ATOM      3  N   UNL     1      -1.286 -10.496   2.716  0.00  0.00    -0.320 N 
ATOM      4  C   UNL     1      -0.442 -11.471   2.196  0.00  0.00    +0.041 A 
ATOM      5  C   UNL     1      -0.764 -12.817   2.237  0.00  0.00    +0.024 A 
ATOM      6  C   UNL     1       0.109 -13.745   1.703  0.00  0.00    +0.002 A 
ATOM      7  C   UNL     1       1.303 -13.339   1.128  0.00  0.00    +0.001 A 
ATOM      8  C   UNL     1       1.640 -12.002   1.080  0.00  0.00    +0.015 A 
ATOM      9  C   UNL     1       0.770 -11.056   1.617  0.00  0.00    +0.059 A 
ATOM     10  C   UNL     1       1.083  -9.616   1.595  0.00  0.00    +0.266 C 
ATOM     11  O   UNL     1       2.207  -9.234   1.332  0.00  0.00    -0.268 OA
ATOM     12  H   UNL     1      -1.873 -10.695   3.462  0.00  0.00    +0.148 HD
ENDROOT
BRANCH   2  13
ATOM     13  C   UNL     1      -2.010  -9.200   0.798  0.00  0.00    -0.008 A 
ATOM     14  C   UNL     1      -3.193  -8.500   0.652  0.00  0.00    +0.009 A 
ATOM     15  C   UNL     1      -3.874  -8.535  -0.549  0.00  0.00    +0.023 A 
ATOM     16  C   UNL     1      -3.369  -9.275  -1.611  0.00  0.00    +0.029 A 
ATOM     17  C   UNL     1      -2.180  -9.977  -1.460  0.00  0.00    +0.023 A 
ATOM     18  C   UNL     1      -1.501  -9.933  -0.259  0.00  0.00    +0.009 A 
BRANCH  16  19
ATOM     19  N   UNL     1      -4.055  -9.313  -2.827  0.00  0.00    -0.336 N 
ATOM     20  C   UNL     1      -5.309  -8.572  -2.984  0.00  0.00    +0.129 C 
ATOM     21  C   UNL     1      -3.521 -10.094  -3.946  0.00  0.00    +0.129 C 
ENDBRANCH  16  19
ENDBRANCH   2  13
BRANCH   1  24
ATOM     22  C   UNL     1       0.604  -6.659   0.803  0.00  0.00    +0.267 C 
ATOM     23  O   UNL     1       0.588  -7.226  -0.269  0.00  0.00    -0.271 OA
ATOM     24  N   UNL     1       0.420  -7.361   1.939  0.00  0.00    -0.227 N 
ATOM     25  H   UNL     1       0.503  -6.922   2.799  0.00  0.00    +0.173 HD
BRANCH  22  26
ATOM     26  C   UNL     1       0.829  -5.171   0.866  0.00  0.00    +0.326 C 
BRANCH  26  27
ATOM     27  O   UNL     1       0.997  -4.658  -0.458  0.00  0.00    -0.483 OA
BRANCH  27  32
ATOM     28  C   UNL     1       1.883   0.881  -0.962  0.00  0.00    +0.044 C 
ATOM     29  C   UNL     1       1.646  -0.601  -0.827  0.00  0.00    -0.050 A 
ATOM     30  C   UNL     1       1.600  -1.398  -1.956  0.00  0.00    +0.007 A 
ATOM     31  C   UNL     1       1.383  -2.757  -1.835  0.00  0.00    +0.046 A 
ATOM     32  C   UNL     1       1.211  -3.322  -0.579  0.00  0.00    +0.121 A 
ATOM     33  C   UNL     1       1.259  -2.520   0.552  0.00  0.00    +0.046 A 
ATOM     34  C   UNL     1       1.482  -1.162   0.426  0.00  0.00    +0.007 A 
ENDBRANCH  27  32
ENDBRANCH  26  27
ENDBRANCH  22  26
ENDBRANCH   1  24
TORSDOF 6
