REMARK  Name = ZINC06409884
REMARK  10 active torsions:
REMARK  status: ('A' for Active; 'I' for Inactive)
REMARK    1  A    between atoms: C_1  and  C_2
REMARK    2  A    between atoms: C_7  and  C_14
REMARK    3  A    between atoms: C_14  and  C_16
REMARK    4  A    between atoms: C_14  and  N_65
REMARK    5  A    between atoms: N_20  and  C_21
REMARK    6  A    between atoms: C_21  and  C_22
REMARK    7  A    between atoms: C_28  and  C_29
REMARK    8  A    between atoms: C_28  and  N_65
REMARK    9  A    between atoms: C_34  and  C_35
REMARK   10  A    between atoms: C_34  and  N_65
REMARK                            x       y       z     vdW  Elec       q    Type
REMARK                         _______ _______ _______ _____ _____    ______ ____
ROOT
ATOM      1  C   UNL     1      -5.528   1.743  -0.481  0.00  0.00    +0.040 C 
ENDROOT
BRANCH   1   8
ATOM      2  C   UNL     1       0.305   6.770  -2.563  0.00  0.00    +0.044 C 
ATOM      3  C   UNL     1      -0.628   5.660  -2.151  0.00  0.00    -0.048 A 
ATOM      4  C   UNL     1      -0.119   4.394  -1.896  0.00  0.00    +0.004 A 
ATOM      5  C   UNL     1      -0.947   3.374  -1.522  0.00  0.00    +0.010 A 
ATOM      6  C   UNL     1      -2.321   3.606  -1.400  0.00  0.00    -0.001 A 
ATOM      7  C   UNL     1      -3.237   2.537  -0.995  0.00  0.00    +0.017 A 
ATOM      8  C   UNL     1      -4.558   2.822  -0.890  0.00  0.00    +0.011 A 
ATOM      9  C   UNL     1      -5.029   4.125  -1.161  0.00  0.00    +0.251 A 
ATOM     10  O   UNL     1      -6.221   4.359  -1.060  0.00  0.00    -0.268 OA
ATOM     11  N   UNL     1      -4.195   5.114  -1.528  0.00  0.00    -0.322 N 
ATOM     12  H   UNL     1      -4.552   5.998  -1.706  0.00  0.00    +0.169 HD
ATOM     13  C   UNL     1      -2.841   4.889  -1.653  0.00  0.00    +0.049 A 
ATOM     14  C   UNL     1      -1.978   5.912  -2.033  0.00  0.00    +0.029 A 
ENDBRANCH   1   8
BRANCH   1  15
ATOM     15  C   UNL     1      -6.167   2.114   0.833  0.00  0.00    +0.143 A 
ATOM     16  N   UNL     1      -6.853   3.201   1.090  0.00  0.00    -0.115 NA
ATOM     17  N   UNL     1      -7.234   3.150   2.320  0.00  0.00    -0.023 NA
ATOM     18  N   UNL     1      -6.802   2.061   2.856  0.00  0.00    -0.044 NA
ATOM     19  N   UNL     1      -6.140   1.396   1.970  0.00  0.00    -0.228 N 
BRANCH  19  20
ATOM     20  C   UNL     1      -5.482   0.102   2.167  0.00  0.00    +0.178 C 
BRANCH  20  21
ATOM     21  C   UNL     1      -4.083   0.324   2.746  0.00  0.00    +0.140 C 
ATOM     22  C   UNL     1      -3.339  -1.025   2.849  0.00  0.00    +0.035 C 
ATOM     23  C   UNL     1      -2.587  -0.884   4.200  0.00  0.00    +0.031 C 
ATOM     24  C   UNL     1      -3.602  -0.044   5.016  0.00  0.00    +0.160 C 
ATOM     25  O   UNL     1      -4.184   0.865   4.068  0.00  0.00    -0.375 OA
ENDBRANCH  20  21
ENDBRANCH  19  20
ENDBRANCH   1  15
BRANCH   1  26
ATOM     26  N   UNL     1      -6.577   1.631  -1.516  0.00  0.00    +0.397 N 
ATOM     27  H   UNL     1      -6.924   2.570  -1.744  0.00  0.00    -0.079 HD
BRANCH  26  28
ATOM     28  C   UNL     1      -7.701   0.815  -1.009  0.00  0.00    -0.001 C 
BRANCH  28  29
ATOM     29  C   UNL     1      -8.700   1.731  -0.351  0.00  0.00    +0.089 A 
ATOM     30  C   UNL     1      -9.633   2.463  -0.986  0.00  0.00    +0.042 A 
ATOM     31  C   UNL     1     -10.348   3.167   0.010  0.00  0.00    +0.041 A 
ATOM     32  C   UNL     1      -9.804   2.830   1.193  0.00  0.00    +0.195 A 
ATOM     33  O   UNL     1      -8.806   1.959   0.968  0.00  0.00    -0.470 OA
ENDBRANCH  28  29
ENDBRANCH  26  28
BRANCH  26  34
ATOM     34  C   UNL     1      -6.018   1.016  -2.738  0.00  0.00    -0.034 C 
BRANCH  34  35
ATOM     35  C   UNL     1      -5.229   2.060  -3.486  0.00  0.00    -0.027 A 
ATOM     36  C   UNL     1      -3.892   2.130  -3.699  0.00  0.00    +0.009 A 
ATOM     37  C   UNL     1      -3.384   3.190  -4.425  0.00  0.00    +0.008 A 
ATOM     38  C   UNL     1      -4.236   4.134  -4.894  0.00  0.00    +0.045 A 
ATOM     39  S   UNL     1      -5.812   3.530  -4.313  0.00  0.00    -0.103 S 
ENDBRANCH  34  35
ENDBRANCH  26  34
ENDBRANCH   1  26
TORSDOF 9
