REMARK  Name = ZINC13847824
REMARK  4 active torsions:
REMARK  status: ('A' for Active; 'I' for Inactive)
REMARK    1  A    between atoms: C_1  and  C_2
REMARK    2  A    between atoms: C_7  and  S_15
REMARK    3  A    between atoms: C_12  and  C_14
REMARK    4  A    between atoms: S_15  and  N_18
REMARK                            x       y       z     vdW  Elec       q    Type
REMARK                         _______ _______ _______ _____ _____    ______ ____
ROOT
ATOM      1  S   UNL     1      -0.284  -0.362  -0.739  0.00  0.00    +0.061 S 
ATOM      2  O   UNL     1      -0.429  -1.604  -0.063  0.00  0.00    -0.153 OA
ATOM      3  O   UNL     1      -1.395   0.462  -1.063  0.00  0.00    -0.153 OA
ENDROOT
BRANCH   1   4
ATOM      4  N   UNL     1       0.738   0.560   0.181  0.00  0.00    -0.174 NA
ATOM      5  C   UNL     1       0.714   2.028   0.093  0.00  0.00    +0.128 C 
ATOM      6  C   UNL     1       2.146   2.525  -0.138  0.00  0.00    +0.123 C 
ATOM      7  N   UNL     1       3.024   1.979   0.905  0.00  0.00    -0.311 N 
ATOM      8  C   UNL     1       3.086   0.513   0.836  0.00  0.00    +0.123 C 
ATOM      9  C   UNL     1       1.693  -0.066   1.107  0.00  0.00    +0.128 C 
ATOM     10  C   UNL     1       4.297   2.535   0.826  0.00  0.00    +0.142 A 
ATOM     11  C   UNL     1       4.448   3.935   0.869  0.00  0.00    +0.049 A 
ATOM     12  C   UNL     1       5.687   4.489   0.798  0.00  0.00    +0.053 A 
ATOM     13  C   UNL     1       6.808   3.648   0.671  0.00  0.00    +0.178 A 
ATOM     14  N   UNL     1       8.110   3.865   0.575  0.00  0.00    -0.128 NA
ATOM     15  N   UNL     1       8.723   2.737   0.476  0.00  0.00    -0.136 NA
ATOM     16  C   UNL     1       7.860   1.751   0.503  0.00  0.00    +0.249 A 
ATOM     17  N   UNL     1       6.627   2.288   0.626  0.00  0.00    -0.198 N 
ATOM     18  N   UNL     1       5.341   1.750   0.707  0.00  0.00    -0.148 NA
ENDBRANCH   1   4
BRANCH   1  24
ATOM     19  C   UNL     1       1.222  -0.690  -7.966  0.00  0.00    +0.029 C 
ATOM     20  C   UNL     1       1.997  -0.201  -6.741  0.00  0.00    +0.083 C 
ATOM     21  C   UNL     1       1.083   0.634  -5.830  0.00  0.00    +0.059 C 
ATOM     22  C   UNL     1       1.060  -0.120  -4.519  0.00  0.00    -0.022 A 
ATOM     23  C   UNL     1       0.405   0.146  -3.332  0.00  0.00    +0.034 A 
ATOM     24  C   UNL     1       0.546  -0.707  -2.254  0.00  0.00    +0.106 A 
ATOM     25  C   UNL     1       1.337  -1.836  -2.370  0.00  0.00    +0.030 A 
ATOM     26  C   UNL     1       1.989  -2.108  -3.554  0.00  0.00    +0.026 A 
ATOM     27  C   UNL     1       1.855  -1.248  -4.645  0.00  0.00    +0.040 A 
ATOM     28  N   UNL     1       2.422  -1.338  -5.920  0.00  0.00    -0.268 N 
ATOM     29  C   UNL     1       3.239  -2.327  -6.334  0.00  0.00    +0.217 C 
ATOM     30  O   UNL     1       3.440  -3.287  -5.619  0.00  0.00    -0.276 OA
ATOM     31  C   UNL     1       3.904  -2.240  -7.683  0.00  0.00    +0.109 C 
ENDBRANCH   1  24
TORSDOF 2
