REMARK  Name = ZINC02859182
REMARK  8 active torsions:
REMARK  status: ('A' for Active; 'I' for Inactive)
REMARK    1  A    between atoms: C_2  and  C_3
REMARK    2  A    between atoms: C_3  and  N_4
REMARK    3  A    between atoms: C_5  and  C_24
REMARK    4  A    between atoms: C_8  and  S_9
REMARK    5  A    between atoms: S_9  and  C_10
REMARK    6  A    between atoms: C_10  and  C_11
REMARK    7  A    between atoms: N_13  and  C_14
REMARK    8  A    between atoms: C_29  and  O_30
REMARK                            x       y       z     vdW  Elec       q    Type
REMARK                         _______ _______ _______ _____ _____    ______ ____
ROOT
ATOM      1  N   UNL     1       0.814  -1.488   1.381  0.00  0.00    -0.298 N 
ATOM      2  C   UNL     1       1.578  -1.341   2.515  0.00  0.00    +0.169 A 
ATOM      3  N   UNL     1       1.682  -2.528   3.066  0.00  0.00    -0.128 NA
ATOM      4  N   UNL     1       1.045  -3.395   2.364  0.00  0.00    -0.122 NA
ATOM      5  C   UNL     1       0.489  -2.814   1.325  0.00  0.00    +0.193 A 
ENDROOT
BRANCH   2   6
ATOM      6  C   UNL     1       2.170  -0.084   3.018  0.00  0.00    +0.062 A 
ATOM      7  C   UNL     1       2.869   0.758   2.152  0.00  0.00    +0.030 A 
ATOM      8  C   UNL     1       3.420   1.931   2.628  0.00  0.00    +0.019 A 
ATOM      9  C   UNL     1       3.282   2.275   3.962  0.00  0.00    +0.019 A 
ATOM     10  C   UNL     1       2.591   1.449   4.829  0.00  0.00    +0.047 A 
ATOM     11  C   UNL     1       2.028   0.271   4.365  0.00  0.00    +0.128 A 
ATOM     12 BR   UNL     1       4.367   3.071   1.454  0.00  0.00    -0.050 Br
BRANCH  11  13
ATOM     13  O   UNL     1       1.345  -0.539   5.215  0.00  0.00    -0.506 OA
ATOM     14  H   UNL     1       1.895  -1.202   5.653  0.00  0.00    +0.292 HD
ENDBRANCH  11  13
ENDBRANCH   2   6
BRANCH   1  15
ATOM     15  C   UNL     1       0.424  -0.441   0.434  0.00  0.00    +0.152 C 
BRANCH  15  17
ATOM     16  C   UNL     1      -1.106   1.373   1.007  0.00  0.00    +0.005 C 
ATOM     17  C   UNL     1      -0.937   0.090   0.805  0.00  0.00    -0.013 C 
ENDBRANCH  15  17
ENDBRANCH   1  15
BRANCH   5  18
ATOM     18  S   UNL     1      -0.487  -3.600   0.086  0.00  0.00    -0.077 S 
BRANCH  18  19
ATOM     19  C   UNL     1      -0.530  -5.340   0.600  0.00  0.00    +0.173 C 
BRANCH  19  20
ATOM     20  C   UNL     1      -1.346  -6.134  -0.387  0.00  0.00    +0.227 C 
ATOM     21  O   UNL     1      -1.849  -5.582  -1.343  0.00  0.00    -0.275 OA
ATOM     22  N   UNL     1      -1.517  -7.459  -0.208  0.00  0.00    -0.285 N 
ATOM     23  H   UNL     1      -1.175  -7.889   0.592  0.00  0.00    +0.155 HD
BRANCH  22  24
ATOM     24  C   UNL     1      -2.188  -8.216  -1.177  0.00  0.00    +0.037 A 
ATOM     25  C   UNL     1      -2.965  -9.302  -0.795  0.00  0.00    +0.027 A 
ATOM     26  C   UNL     1      -3.627 -10.049  -1.750  0.00  0.00    +0.051 A 
ATOM     27  C   UNL     1      -3.518  -9.718  -3.093  0.00  0.00    +0.162 A 
ATOM     28  C   UNL     1      -2.742  -8.630  -3.478  0.00  0.00    +0.164 A 
ATOM     29  C   UNL     1      -2.081  -7.879  -2.519  0.00  0.00    +0.072 A 
ATOM     30  O   UNL     1      -2.629  -8.286  -4.790  0.00  0.00    -0.485 OA
ATOM     31  C   UNL     1      -3.005  -9.278  -5.751  0.00  0.00    +0.270 C 
ATOM     32  C   UNL     1      -4.346  -9.885  -5.316  0.00  0.00    +0.270 C 
ATOM     33  O   UNL     1      -4.174 -10.469  -4.020  0.00  0.00    -0.485 OA
ENDBRANCH  22  24
ENDBRANCH  19  20
ENDBRANCH  18  19
ENDBRANCH   5  18
TORSDOF 8
