REMARK  Name = ZINC09347568
REMARK  17 active torsions:
REMARK  status: ('A' for Active; 'I' for Inactive)
REMARK    1  A    between atoms: C_1  and  C_2
REMARK    2  A    between atoms: C_2  and  O_3
REMARK    3  A    between atoms: O_3  and  C_4
REMARK    4  A    between atoms: C_6  and  C_16
REMARK    5  A    between atoms: C_8  and  O_13
REMARK    6  A    between atoms: C_9  and  O_10
REMARK    7  A    between atoms: O_10  and  C_11
REMARK    8  A    between atoms: C_11  and  C_12
REMARK    9  A    between atoms: O_13  and  C_14
REMARK   10  A    between atoms: C_14  and  C_15
REMARK   11  A    between atoms: N_18  and  C_19
REMARK   12  A    between atoms: C_20  and  C_33
REMARK   13  A    between atoms: C_28  and  O_30
REMARK   14  A    between atoms: O_30  and  C_31
REMARK   15  A    between atoms: C_31  and  C_32
REMARK   16  A    between atoms: C_33  and  O_35
REMARK   17  A    between atoms: O_35  and  C_36
REMARK                            x       y       z     vdW  Elec       q    Type
REMARK                         _______ _______ _______ _____ _____    ______ ____
ROOT
ATOM      1  C   UNL     1       1.245  -2.160  -0.021  0.00  0.00    +0.249 C 
ATOM      2  O   UNL     1       0.202  -2.785  -0.014  0.00  0.00    -0.270 OA
ATOM      3  N   UNL     1       2.423  -2.816  -0.036  0.00  0.00    -0.275 N 
ATOM      4  H   UNL     1       3.255  -2.318  -0.041  0.00  0.00    +0.156 HD
ENDROOT
BRANCH   3   5
ATOM      5  C   UNL     1       2.444  -4.200  -0.043  0.00  0.00    +0.087 A 
ATOM      6  C   UNL     1       3.546  -5.046  -0.058  0.00  0.00    +0.091 A 
ATOM      7  C   UNL     1       3.294  -6.479  -0.063  0.00  0.00    -0.018 A 
ATOM      8  C   UNL     1       1.990  -6.830  -0.049  0.00  0.00    +0.013 A 
ATOM      9  S   UNL     1       1.104  -5.298  -0.028  0.00  0.00    -0.076 S 
ATOM     10  C   UNL     1       1.434  -8.223  -0.045  0.00  0.00    +0.153 C 
ATOM     11  N   UNL     1       2.562  -9.142  -0.296  0.00  0.00    -0.262 N 
ATOM     12  C   UNL     1       3.830  -8.865   0.396  0.00  0.00    +0.116 C 
ATOM     13  C   UNL     1       4.397  -7.529  -0.087  0.00  0.00    +0.056 C 
ATOM     14  C   UNL     1       2.435 -10.195  -1.127  0.00  0.00    +0.403 C 
ATOM     15  O   UNL     1       3.378 -10.937  -1.317  0.00  0.00    -0.226 OA
BRANCH   6  16
ATOM     16  C   UNL     1       4.910  -4.516  -0.068  0.00  0.00    +0.342 C 
ATOM     17  O   UNL     1       5.487  -4.301   0.982  0.00  0.00    -0.245 OA
BRANCH  16  18
ATOM     18  O   UNL     1       5.528  -4.266  -1.240  0.00  0.00    -0.464 OA
ATOM     19  C   UNL     1       6.880  -3.740  -1.174  0.00  0.00    +0.280 C 
ENDBRANCH  16  18
ENDBRANCH   6  16
BRANCH  14  20
ATOM     20  O   UNL     1       1.262 -10.424  -1.748  0.00  0.00    -0.451 OA
BRANCH  20  21
ATOM     21  C   UNL     1       1.197 -11.576  -2.630  0.00  0.00    +0.230 C 
ATOM     22  C   UNL     1      -0.203 -11.674  -3.239  0.00  0.00    +0.048 C 
ENDBRANCH  20  21
ENDBRANCH  14  20
ENDBRANCH   3   5
BRANCH   1  25
ATOM     23  C   UNL     1      -0.017   1.378   0.010  0.00  0.00    +0.166 A 
ATOM     24  C   UNL     1       0.002  -0.004   0.002  0.00  0.00    +0.062 A 
ATOM     25  C   UNL     1       1.222  -0.685  -0.013  0.00  0.00    +0.044 A 
ATOM     26  C   UNL     1       2.420   0.034  -0.021  0.00  0.00    +0.062 A 
ATOM     27  C   UNL     1       2.396   1.416  -0.013  0.00  0.00    +0.166 A 
ATOM     28  C   UNL     1       1.179   2.092   0.002  0.00  0.00    +0.204 A 
BRANCH  23  29
ATOM     29  O   UNL     1      -1.204   2.041   0.019  0.00  0.00    -0.488 OA
BRANCH  29  31
ATOM     30  C   UNL     1      -3.618   2.161   0.031  0.00  0.00    +0.048 C 
ATOM     31  C   UNL     1      -2.391   1.246   0.020  0.00  0.00    +0.226 C 
ENDBRANCH  29  31
ENDBRANCH  23  29
BRANCH  28  32
ATOM     32  O   UNL     1       1.158   3.450   0.009  0.00  0.00    -0.485 OA
BRANCH  32  33
ATOM     33  C   UNL     1       1.160   4.092   1.286  0.00  0.00    +0.226 C 
ATOM     34  C   UNL     1       1.134   5.610   1.094  0.00  0.00    +0.048 C 
ENDBRANCH  32  33
ENDBRANCH  28  32
BRANCH  27  35
ATOM     35  O   UNL     1       3.562   2.116  -0.021  0.00  0.00    -0.488 OA
BRANCH  35  36
ATOM     36  C   UNL     1       4.774   1.359  -0.037  0.00  0.00    +0.226 C 
ATOM     37  C   UNL     1       5.971   2.311  -0.044  0.00  0.00    +0.048 C 
ENDBRANCH  35  36
ENDBRANCH  27  35
ENDBRANCH   1  25
TORSDOF 12
