REMARK  Name = ZINC05214519
REMARK  5 active torsions:
REMARK  status: ('A' for Active; 'I' for Inactive)
REMARK    1  A    between atoms: C_1  and  C_2
REMARK    2  A    between atoms: C_5  and  S_9
REMARK    3  A    between atoms: C_6  and  C_8
REMARK    4  A    between atoms: S_9  and  O_12
REMARK    5  A    between atoms: O_12  and  C_13
REMARK                            x       y       z     vdW  Elec       q    Type
REMARK                         _______ _______ _______ _____ _____    ______ ____
ROOT
ATOM      1  S   UNL     1       5.503   2.597  -1.853  0.00  0.00    +0.154 S 
ATOM      2  O   UNL     1       6.913   2.575  -1.680  0.00  0.00    -0.131 OA
ATOM      3  O   UNL     1       4.837   1.765  -2.794  0.00  0.00    -0.131 OA
ENDROOT
BRANCH   1   8
ATOM      4  C   UNL     1       4.021   8.282  -3.227  0.00  0.00    +0.044 C 
ATOM      5  C   UNL     1       4.391   6.862  -2.884  0.00  0.00    -0.050 A 
ATOM      6  C   UNL     1       3.633   5.813  -3.371  0.00  0.00    +0.005 A 
ATOM      7  C   UNL     1       3.972   4.511  -3.056  0.00  0.00    +0.031 A 
ATOM      8  C   UNL     1       5.070   4.257  -2.255  0.00  0.00    +0.131 A 
ATOM      9  C   UNL     1       5.825   5.306  -1.764  0.00  0.00    -0.022 A 
ATOM     10  C   UNL     1       5.488   6.608  -2.083  0.00  0.00    +0.008 A 
ATOM     11  C   UNL     1       7.018   5.029  -0.886  0.00  0.00    +0.046 C 
ENDBRANCH   1   8
BRANCH   1  12
ATOM     12  O   UNL     1       4.893   2.289  -0.493  0.00  0.00    -0.303 OA
BRANCH  12  13
ATOM     13  C   UNL     1       3.555   2.086  -0.523  0.00  0.00    +0.325 A 
ATOM     14  N   UNL     1       2.952   0.877  -0.710  0.00  0.00    -0.306 N 
ATOM     15  H   UNL     1       3.411  -0.001  -0.848  0.00  0.00    +0.170 HD
ATOM     16  C   UNL     1       1.584   1.091  -0.675  0.00  0.00    +0.069 A 
ATOM     17  C   UNL     1       0.478   0.265  -0.802  0.00  0.00    +0.028 A 
ATOM     18  C   UNL     1      -0.791   0.800  -0.723  0.00  0.00    +0.002 A 
ATOM     19  C   UNL     1      -0.968   2.158  -0.504  0.00  0.00    +0.002 A 
ATOM     20  C   UNL     1       0.119   2.993  -0.376  0.00  0.00    +0.030 A 
ATOM     21  C   UNL     1       1.411   2.468  -0.460  0.00  0.00    +0.093 A 
ATOM     22  N   UNL     1       2.651   3.018  -0.376  0.00  0.00    -0.193 NA
ENDBRANCH  12  13
ENDBRANCH   1  12
TORSDOF 3
