REMARK  Name = ZINC03371314
REMARK  6 active torsions:
REMARK  status: ('A' for Active; 'I' for Inactive)
REMARK    1  A    between atoms: C_1  and  C_2
REMARK    2  A    between atoms: C_9  and  C_14
REMARK    3  A    between atoms: C_14  and  N_15
REMARK    4  A    between atoms: N_15  and  C_16
REMARK    5  A    between atoms: N_15  and  C_17
REMARK    6  A    between atoms: C_17  and  C_18
REMARK                            x       y       z     vdW  Elec       q    Type
REMARK                         _______ _______ _______ _____ _____    ______ ____
ROOT
ATOM      1  N   UNL     1       1.340  -4.554   4.335  0.00  0.00    +0.386 N 
ATOM      2  C   UNL     1       1.387  -3.128   4.687  0.00  0.00    -0.095 C 
ATOM      3  H   UNL     1       2.122  -4.779   3.738  0.00  0.00    -0.081 HD
ENDROOT
BRANCH   1   4
ATOM      4  C   UNL     1       0.085  -4.843   3.627  0.00  0.00    -0.022 C 
BRANCH   4  13
ATOM      5  C   UNL     1      -0.018   1.503   0.010  0.00  0.00    +0.047 C 
ATOM      6  C   UNL     1       0.002  -0.004   0.002  0.00  0.00    -0.009 A 
ATOM      7  C   UNL     1       0.006  -0.704  -1.214  0.00  0.00    +0.062 A 
ATOM      8  C   UNL     1       0.025  -2.056  -1.219  0.00  0.00    +0.116 A 
ATOM      9  N   UNL     1       0.040  -2.757  -0.051  0.00  0.00    -0.266 N 
ATOM     10  C   UNL     1       0.058  -4.107  -0.083  0.00  0.00    +0.259 A 
ATOM     11  O   UNL     1       0.062  -4.702  -1.149  0.00  0.00    -0.267 OA
ATOM     12  C   UNL     1       0.073  -4.813   1.125  0.00  0.00    +0.092 A 
ATOM     13  C   UNL     1       0.069  -4.106   2.312  0.00  0.00    +0.032 A 
ATOM     14  N   UNL     1       0.051  -2.783   2.296  0.00  0.00    -0.234 NA
ATOM     15  C   UNL     1       0.037  -2.104   1.149  0.00  0.00    +0.159 A 
ATOM     16  C   UNL     1       0.023  -0.697   1.176  0.00  0.00    +0.088 A 
ATOM     17 CL   UNL     1       0.025   0.150   2.692  0.00  0.00    -0.079 Cl
ATOM     18 CL   UNL     1      -0.014   0.169  -2.715  0.00  0.00    -0.082 Cl
ENDBRANCH   4  13
ENDBRANCH   1   4
BRANCH   1  19
ATOM     19  C   UNL     1       1.409  -5.363   5.559  0.00  0.00    -0.003 C 
BRANCH  19  20
ATOM     20  C   UNL     1       2.748  -5.160   6.220  0.00  0.00    +0.094 A 
ATOM     21  N   UNL     1       3.006  -5.833   7.372  0.00  0.00    -0.312 N 
ATOM     22  C   UNL     1       4.194  -5.685   8.004  0.00  0.00    +0.259 A 
ATOM     23  O   UNL     1       4.439  -6.282   9.036  0.00  0.00    -0.267 OA
ATOM     24  C   UNL     1       5.176  -4.775   7.397  0.00  0.00    +0.065 A 
ATOM     25  C   UNL     1       6.427  -4.553   7.968  0.00  0.00    +0.015 A 
ATOM     26  C   UNL     1       7.309  -3.689   7.356  0.00  0.00    +0.001 A 
ATOM     27  C   UNL     1       6.961  -3.042   6.178  0.00  0.00    +0.002 A 
ATOM     28  C   UNL     1       5.729  -3.247   5.597  0.00  0.00    +0.028 A 
ATOM     29  C   UNL     1       4.818  -4.118   6.198  0.00  0.00    +0.078 A 
ATOM     30  N   UNL     1       3.597  -4.354   5.658  0.00  0.00    -0.236 NA
ATOM     31  H   UNL     1       2.334  -6.425   7.744  0.00  0.00    +0.170 HD
ENDBRANCH  19  20
ENDBRANCH   1  19
TORSDOF 4
