REMARK  Name = ZINC35240049
REMARK  7 active torsions:
REMARK  status: ('A' for Active; 'I' for Inactive)
REMARK    1  A    between atoms: C_1  and  C_2
REMARK    2  A    between atoms: C_5  and  S_8
REMARK    3  A    between atoms: S_8  and  N_11
REMARK    4  A    between atoms: N_19  and  C_28
REMARK    5  A    between atoms: N_21  and  C_22
REMARK    6  A    between atoms: C_28  and  C_29
REMARK    7  A    between atoms: N_31  and  C_32
REMARK                            x       y       z     vdW  Elec       q    Type
REMARK                         _______ _______ _______ _____ _____    ______ ____
ROOT
ATOM      1  N   UNL     1       1.651  -5.000   0.006  0.00  0.00    -0.176 NA
ATOM      2  C   UNL     1       2.351  -5.189  -1.272  0.00  0.00    +0.112 C 
ATOM      3  C   UNL     1       3.629  -4.344  -1.264  0.00  0.00    +0.052 C 
ATOM      4  C   UNL     1       4.459  -4.693  -0.028  0.00  0.00    +0.115 C 
ATOM      5  C   UNL     1       3.664  -4.389   1.242  0.00  0.00    +0.052 C 
ATOM      6  C   UNL     1       2.389  -5.229   1.256  0.00  0.00    +0.112 C 
ATOM      7  C   UNL     1       5.746  -3.909  -0.032  0.00  0.00    +0.241 C 
ATOM      8  O   UNL     1       5.833  -2.700  -0.011  0.00  0.00    -0.273 OA
ATOM      9  N   UNL     1       6.781  -4.765  -0.062  0.00  0.00    -0.275 N 
ATOM     10  C   UNL     1       6.297  -6.145  -0.080  0.00  0.00    +0.217 C 
ATOM     11  N   UNL     1       4.829  -6.113  -0.059  0.00  0.00    -0.300 N 
ENDROOT
BRANCH  11  12
ATOM     12  C   UNL     1       3.963  -7.209  -0.065  0.00  0.00    +0.032 A 
ATOM     13  C   UNL     1       2.592  -7.013   0.042  0.00  0.00    +0.023 A 
ATOM     14  C   UNL     1       1.738  -8.098   0.035  0.00  0.00    +0.002 A 
ATOM     15  C   UNL     1       2.247  -9.379  -0.079  0.00  0.00    +0.000 A 
ATOM     16  C   UNL     1       3.611  -9.578  -0.186  0.00  0.00    +0.002 A 
ATOM     17  C   UNL     1       4.470  -8.496  -0.185  0.00  0.00    +0.023 A 
ENDBRANCH  11  12
BRANCH   1  18
ATOM     18  S   UNL     1       0.063  -4.531   0.036  0.00  0.00    +0.061 S 
ATOM     19  O   UNL     1      -0.463  -4.961   1.284  0.00  0.00    -0.153 OA
ATOM     20  O   UNL     1      -0.501  -4.928  -1.206  0.00  0.00    -0.153 OA
BRANCH  18  25
ATOM     21  C   UNL     1      -0.018   1.502   0.117  0.00  0.00    +0.044 C 
ATOM     22  C   UNL     1       0.003  -0.005   0.097  0.00  0.00    -0.050 A 
ATOM     23  C   UNL     1      -0.005  -0.680  -1.109  0.00  0.00    +0.005 A 
ATOM     24  C   UNL     1       0.013  -2.062  -1.128  0.00  0.00    +0.029 A 
ATOM     25  C   UNL     1       0.041  -2.769   0.060  0.00  0.00    +0.105 A 
ATOM     26  C   UNL     1       0.050  -2.094   1.266  0.00  0.00    +0.029 A 
ATOM     27  C   UNL     1       0.035  -0.712   1.285  0.00  0.00    +0.005 A 
ENDBRANCH  18  25
ENDBRANCH   1  18
BRANCH   9  28
ATOM     28  C   UNL     1       8.192  -4.372  -0.075  0.00  0.00    +0.205 C 
BRANCH  28  29
ATOM     29  C   UNL     1       8.697  -4.263   1.340  0.00  0.00    +0.231 C 
ATOM     30  O   UNL     1       7.951  -4.491   2.269  0.00  0.00    -0.274 OA
ATOM     31  N   UNL     1       9.977  -3.913   1.575  0.00  0.00    -0.311 N 
ATOM     32  H   UNL     1      10.573  -3.730   0.832  0.00  0.00    +0.149 HD
BRANCH  31  33
ATOM     33  C   UNL     1      10.467  -3.807   2.951  0.00  0.00    +0.073 C 
ATOM     34  C   UNL     1      10.139  -2.418   3.504  0.00  0.00    +0.022 C 
ATOM     35  C   UNL     1      10.651  -2.307   4.941  0.00  0.00    +0.002 C 
ATOM     36  C   UNL     1      12.167  -2.519   4.960  0.00  0.00    +0.000 C 
ATOM     37  C   UNL     1      12.494  -3.908   4.408  0.00  0.00    +0.002 C 
ATOM     38  C   UNL     1      11.982  -4.019   2.970  0.00  0.00    +0.022 C 
ENDBRANCH  31  33
ENDBRANCH  28  29
ENDBRANCH   9  28
TORSDOF 6
