REMARK  Name = ZINC08744378
REMARK  10 active torsions:
REMARK  status: ('A' for Active; 'I' for Inactive)
REMARK    1  A    between atoms: C_1  and  C_2
REMARK    2  A    between atoms: C_2  and  C_3
REMARK    3  A    between atoms: C_3  and  C_4
REMARK    4  A    between atoms: C_4  and  C_5
REMARK    5  A    between atoms: C_11  and  C_12
REMARK    6  A    between atoms: C_14  and  C_28
REMARK    7  A    between atoms: N_15  and  C_18
REMARK    8  A    between atoms: C_16  and  C_17
REMARK    9  A    between atoms: C_20  and  N_25
REMARK   10  A    between atoms: C_23  and  C_24
REMARK                            x       y       z     vdW  Elec       q    Type
REMARK                         _______ _______ _______ _____ _____    ______ ____
ROOT
ATOM      1  C   UNL     1       5.333  -1.893  -2.542  0.00  0.00    +0.100 C 
ATOM      2  N   UNL     1       5.270  -1.388  -3.741  0.00  0.00    -0.169 NA
ATOM      3  N   UNL     1       4.960  -2.171  -4.832  0.00  0.00    -0.152 N 
ATOM      4  C   UNL     1       4.954  -1.746  -6.178  0.00  0.00    +0.152 C 
ATOM      5  N   UNL     1       5.625  -0.710  -6.607  0.00  0.00    -0.283 NA
ATOM      6  C   UNL     1       4.106  -2.595  -7.061  0.00  0.00    +0.081 C 
ATOM      7  C   UNL     1       3.427  -2.068  -8.140  0.00  0.00    +0.026 C 
ATOM      8  C   UNL     1       4.032  -4.035  -6.718  0.00  0.00    +0.273 C 
ATOM      9  O   UNL     1       3.773  -4.870  -7.570  0.00  0.00    -0.268 OA
ATOM     10  N   UNL     1       4.259  -4.396  -5.440  0.00  0.00    -0.152 NA
ATOM     11  C   UNL     1       4.659  -3.493  -4.581  0.00  0.00    +0.181 C 
ATOM     12  S   UNL     1       4.942  -3.613  -2.834  0.00  0.00    -0.038 S 
ATOM     13  H   UNL     1       6.131  -0.167  -5.982  0.00  0.00    +0.188 HD
ENDROOT
BRANCH   7  14
ATOM     14  C   UNL     1       3.393  -0.664  -8.341  0.00  0.00    -0.003 A 
ATOM     15  C   UNL     1       3.449   0.380  -7.307  0.00  0.00    +0.031 A 
ATOM     16  C   UNL     1       3.388   1.556  -7.952  0.00  0.00    +0.022 A 
ATOM     17  N   UNL     1       3.299   1.328  -9.298  0.00  0.00    -0.317 N 
ATOM     18  C   UNL     1       3.305   0.004  -9.551  0.00  0.00    +0.028 A 
ATOM     19  C   UNL     1       3.229  -0.637 -10.912  0.00  0.00    +0.064 C 
ATOM     20  C   UNL     1       3.414   2.913  -7.297  0.00  0.00    +0.064 C 
BRANCH  17  21
ATOM     21  C   UNL     1       3.216   2.329 -10.275  0.00  0.00    +0.052 A 
ATOM     22  C   UNL     1       4.374   2.839 -10.848  0.00  0.00    +0.059 A 
ATOM     23  C   UNL     1       4.290   3.825 -11.810  0.00  0.00    +0.128 A 
ATOM     24  C   UNL     1       3.054   4.306 -12.204  0.00  0.00    +0.033 A 
ATOM     25  C   UNL     1       1.900   3.800 -11.636  0.00  0.00    +0.007 A 
ATOM     26  C   UNL     1       1.977   2.808 -10.677  0.00  0.00    -0.026 A 
ATOM     27  C   UNL     1       0.718   2.253 -10.063  0.00  0.00    +0.046 C 
BRANCH  23  28
ATOM     28  N   UNL     1       5.523   4.370 -12.421  0.00  0.00    +0.056 N 
ATOM     29  O   UNL     1       6.604   3.951 -12.077  0.00  0.00    -0.126 OA
ATOM     30  O   UNL     1       5.450   5.233 -13.264  0.00  0.00    -0.126 OA
ENDBRANCH  23  28
ENDBRANCH  17  21
ENDBRANCH   7  14
BRANCH   1  31
ATOM     31  C   UNL     1       5.658  -1.205  -1.242  0.00  0.00    +0.064 C 
BRANCH  31  32
ATOM     32  C   UNL     1       5.923   0.280  -1.502  0.00  0.00    +0.006 C 
BRANCH  32  34
ATOM     33  C   UNL     1       6.518   2.462  -0.442  0.00  0.00    +0.004 C 
ATOM     34  C   UNL     1       6.253   0.978  -0.182  0.00  0.00    -0.003 C 
ENDBRANCH  32  34
ENDBRANCH  31  32
ENDBRANCH   1  31
TORSDOF 6
