REMARK  Name = ZINC39886021
REMARK  6 active torsions:
REMARK  status: ('A' for Active; 'I' for Inactive)
REMARK    1  A    between atoms: C_1  and  C_2
REMARK    2  A    between atoms: C_2  and  O_3
REMARK    3  A    between atoms: O_3  and  C_4
REMARK    4  A    between atoms: C_6  and  C_11
REMARK    5  A    between atoms: C_9  and  O_10
REMARK    6  A    between atoms: C_22  and  C_24
REMARK                            x       y       z     vdW  Elec       q    Type
REMARK                         _______ _______ _______ _____ _____    ______ ____
ROOT
ATOM      1  C   UNL     1      -0.212  -4.965   0.449  0.00  0.00    +0.026 C 
ATOM      2  C   UNL     1      -0.195  -6.284   0.237  0.00  0.00    +0.079 C 
ATOM      3  C   UNL     1      -0.808  -7.395   1.069  0.00  0.00    +0.302 C 
ATOM      4  N   UNL     1      -0.584  -8.717   0.523  0.00  0.00    -0.247 N 
ATOM      5  C   UNL     1       0.112  -8.852  -0.616  0.00  0.00    +0.281 C 
ATOM      6  O   UNL     1       0.382  -9.887  -1.196  0.00  0.00    -0.262 OA
ATOM      7  S   UNL     1       0.548  -7.197  -1.102  0.00  0.00    -0.028 S 
ATOM      8  N   UNL     1      -0.262  -7.314   2.432  0.00  0.00    -0.186 N 
ATOM      9  C   UNL     1      -0.795  -8.172   3.514  0.00  0.00    +0.138 C 
ATOM     10  C   UNL     1      -0.262  -7.490   4.781  0.00  0.00    +0.086 C 
ATOM     11  C   UNL     1       0.750  -6.494   4.252  0.00  0.00    +0.069 C 
ATOM     12  N   UNL     1       0.699  -6.473   2.960  0.00  0.00    -0.183 NA
ATOM     13  C   UNL     1      -2.296  -8.110   3.405  0.00  0.00    +0.018 A 
ATOM     14  C   UNL     1      -3.068  -8.521   4.475  0.00  0.00    +0.029 A 
ATOM     15  C   UNL     1      -4.448  -8.489   4.394  0.00  0.00    +0.042 A 
ATOM     16  C   UNL     1      -5.055  -8.044   3.233  0.00  0.00    +0.023 A 
ATOM     17  C   UNL     1      -4.288  -7.628   2.166  0.00  0.00    +0.047 A 
ATOM     18  C   UNL     1      -2.895  -7.647   2.244  0.00  0.00    +0.131 A 
ATOM     19  O   UNL     1      -2.217  -7.147   1.191  0.00  0.00    -0.446 OA
ATOM     20 CL   UNL     1      -5.414  -9.004   5.742  0.00  0.00    -0.084 Cl
ATOM     21  H   UNL     1      -0.934  -9.499   0.978  0.00  0.00    +0.155 HD
ENDROOT
BRANCH   1  24
ATOM     22  C   UNL     1       1.025  -1.872  -1.287  0.00  0.00    +0.162 A 
ATOM     23  C   UNL     1       0.276  -2.707  -0.479  0.00  0.00    +0.057 A 
ATOM     24  C   UNL     1       0.583  -4.068  -0.412  0.00  0.00    -0.020 A 
ATOM     25  C   UNL     1       1.645  -4.579  -1.163  0.00  0.00    +0.012 A 
ATOM     26  C   UNL     1       2.387  -3.739  -1.967  0.00  0.00    +0.050 A 
ATOM     27  C   UNL     1       2.079  -2.388  -2.037  0.00  0.00    +0.158 A 
BRANCH  27  28
ATOM     28  O   UNL     1       2.811  -1.566  -2.835  0.00  0.00    -0.503 OA
ATOM     29  H   UNL     1       3.576  -1.170  -2.396  0.00  0.00    +0.292 HD
ENDBRANCH  27  28
BRANCH  22  30
ATOM     30  O   UNL     1       0.729  -0.546  -1.354  0.00  0.00    -0.489 OA
BRANCH  30  32
ATOM     31  C   UNL     1      -0.545   1.421  -0.764  0.00  0.00    +0.048 C 
ATOM     32  C   UNL     1      -0.365  -0.085  -0.559  0.00  0.00    +0.226 C 
ENDBRANCH  30  32
ENDBRANCH  22  30
ENDBRANCH   1  24
BRANCH  11  33
ATOM     33  C   UNL     1       1.654  -5.676   5.083  0.00  0.00    -0.002 A 
ATOM     34  C   UNL     1       1.622  -5.789   6.475  0.00  0.00    +0.010 A 
ATOM     35  C   UNL     1       2.470  -5.021   7.245  0.00  0.00    +0.001 A 
ATOM     36  C   UNL     1       3.350  -4.139   6.642  0.00  0.00    +0.000 A 
ATOM     37  C   UNL     1       3.386  -4.022   5.264  0.00  0.00    +0.001 A 
ATOM     38  C   UNL     1       2.549  -4.788   4.481  0.00  0.00    +0.010 A 
ENDBRANCH  11  33
TORSDOF 5
