REMARK  Name = ZINC08790373
REMARK  7 active torsions:
REMARK  status: ('A' for Active; 'I' for Inactive)
REMARK    1  A    between atoms: C_1  and  C_2
REMARK    2  A    between atoms: C_2  and  C_3
REMARK    3  A    between atoms: C_14  and  C_16
REMARK    4  A    between atoms: C_16  and  C_17
REMARK    5  A    between atoms: C_17  and  C_18
REMARK    6  A    between atoms: N_23  and  C_26
REMARK    7  A    between atoms: C_26  and  C_27
REMARK                            x       y       z     vdW  Elec       q    Type
REMARK                         _______ _______ _______ _____ _____    ______ ____
ROOT
ATOM      1  C   UNL     1       0.071  -2.978   4.253  0.00  0.00    -0.047 A 
ATOM      2  C   UNL     1      -0.492  -3.509   5.399  0.00  0.00    +0.005 A 
ATOM      3  C   UNL     1      -1.204  -2.703   6.263  0.00  0.00    +0.024 A 
ATOM      4  C   UNL     1      -1.363  -1.347   5.987  0.00  0.00    +0.036 A 
ATOM      5  C   UNL     1      -0.793  -0.824   4.830  0.00  0.00    -0.027 A 
ATOM      6  C   UNL     1      -0.082  -1.632   3.971  0.00  0.00    +0.008 A 
ATOM      7  C   UNL     1      -1.143   0.637   4.825  0.00  0.00    +0.050 C 
ATOM      8  C   UNL     1      -1.944   1.020   3.575  0.00  0.00    +0.088 C 
ATOM      9  C   UNL     1      -1.477   2.459   3.218  0.00  0.00    +0.073 C 
ATOM     10  C   UNL     1      -0.445   2.822   4.306  0.00  0.00    -0.057 C 
ATOM     11  C   UNL     1      -0.776   2.279   1.890  0.00  0.00    +0.224 C 
ATOM     12  O   UNL     1      -0.244   3.163   1.254  0.00  0.00    -0.275 OA
ATOM     13  N   UNL     1      -0.836   0.993   1.526  0.00  0.00    -0.237 N 
ATOM     14  C   UNL     1      -1.469   0.198   2.397  0.00  0.00    +0.225 C 
ATOM     15  O   UNL     1      -1.636  -0.995   2.263  0.00  0.00    -0.275 OA
ATOM     16  C   UNL     1      -1.946   0.852   6.079  0.00  0.00    +0.211 C 
ATOM     17  O   UNL     1      -2.425   1.898   6.461  0.00  0.00    -0.277 OA
ATOM     18  N   UNL     1      -2.029  -0.344   6.694  0.00  0.00    -0.286 N 
ATOM     19  H   UNL     1      -2.496  -0.490   7.531  0.00  0.00    +0.155 HD
ATOM     20  N   UNL     1       0.023   1.524   4.802  0.00  0.00    +0.394 N 
ATOM     21  H   UNL     1       0.743   1.145   4.176  0.00  0.00    -0.083 HD
ATOM     22  H   UNL     1       0.410   1.625   5.748  0.00  0.00    -0.083 HD
ENDROOT
BRANCH   1  24
ATOM     23  C   UNL     1      -0.100  -4.452   2.267  0.00  0.00    +0.009 C 
ATOM     24  C   UNL     1       0.848  -3.863   3.313  0.00  0.00    +0.032 C 
ENDBRANCH   1  24
BRANCH  10  25
ATOM     25  C   UNL     1      -1.116   3.610   5.433  0.00  0.00    -0.006 C 
BRANCH  25  26
ATOM     26  C   UNL     1      -1.026   5.107   5.133  0.00  0.00    +0.094 C 
BRANCH  26  27
ATOM     27  C   UNL     1      -1.687   5.883   6.243  0.00  0.00    +0.210 C 
ATOM     28  O   UNL     1      -2.181   5.296   7.182  0.00  0.00    -0.276 OA
ATOM     29  N   UNL     1      -1.728   7.229   6.192  0.00  0.00    -0.329 N 
ATOM     30  H   UNL     1      -1.333   7.699   5.441  0.00  0.00    +0.145 HD
ATOM     31  H   UNL     1      -2.154   7.729   6.907  0.00  0.00    +0.145 HD
ENDBRANCH  26  27
ENDBRANCH  25  26
ENDBRANCH  10  25
BRANCH  13  32
ATOM     32  C   UNL     1      -0.252   0.495   0.279  0.00  0.00    +0.151 C 
BRANCH  32  33
ATOM     33  C   UNL     1      -1.280   0.565  -0.821  0.00  0.00    -0.026 A 
ATOM     34  C   UNL     1      -1.385   1.706  -1.595  0.00  0.00    +0.009 A 
ATOM     35  C   UNL     1      -2.326   1.775  -2.606  0.00  0.00    +0.050 A 
ATOM     36  C   UNL     1      -3.168   0.701  -2.844  0.00  0.00    +0.166 A 
ATOM     37  C   UNL     1      -3.063  -0.447  -2.063  0.00  0.00    +0.167 A 
ATOM     38  C   UNL     1      -2.113  -0.512  -1.057  0.00  0.00    +0.054 A 
ATOM     39  O   UNL     1      -3.992  -1.352  -2.491  0.00  0.00    -0.453 OA
ATOM     40  C   UNL     1      -4.389  -0.905  -3.801  0.00  0.00    +0.466 C 
ATOM     41  O   UNL     1      -4.162   0.517  -3.760  0.00  0.00    -0.453 OA
ENDBRANCH  32  33
ENDBRANCH  13  32
TORSDOF 6
