REMARK  Name = ZINC15168934
REMARK  8 active torsions:
REMARK  status: ('A' for Active; 'I' for Inactive)
REMARK    1  A    between atoms: C_1  and  N_2
REMARK    2  A    between atoms: N_2  and  S_3
REMARK    3  A    between atoms: S_3  and  C_6
REMARK    4  A    between atoms: C_9  and  N_15
REMARK    5  A    between atoms: C_10  and  N_12
REMARK    6  A    between atoms: N_15  and  C_16
REMARK    7  A    between atoms: C_16  and  C_17
REMARK    8  A    between atoms: C_17  and  N_23
REMARK                            x       y       z     vdW  Elec       q    Type
REMARK                         _______ _______ _______ _____ _____    ______ ____
ROOT
ATOM      1  N   UNL     1      -6.179   1.219  -4.271  0.00  0.00    -0.343 N 
ATOM      2  H   UNL     1      -7.030   1.019  -4.692  0.00  0.00    +0.146 HD
ENDROOT
BRANCH   1   6
ATOM      3  C   UNL     1      -5.691   0.626  -0.179  0.00  0.00    +0.108 A 
ATOM      4  C   UNL     1      -4.616   1.027  -0.951  0.00  0.00    +0.030 A 
ATOM      5  C   UNL     1      -4.774   1.225  -2.308  0.00  0.00    +0.027 A 
ATOM      6  C   UNL     1      -6.015   1.020  -2.899  0.00  0.00    +0.058 A 
ATOM      7  C   UNL     1      -7.093   0.616  -2.121  0.00  0.00    +0.149 A 
ATOM      8  C   UNL     1      -6.926   0.415  -0.764  0.00  0.00    +0.063 A 
BRANCH   3   9
ATOM      9  S   UNL     1      -5.485   0.374   1.553  0.00  0.00    +0.058 S 
ATOM     10  O   UNL     1      -6.770   0.522   2.141  0.00  0.00    -0.153 OA
ATOM     11  O   UNL     1      -4.371   1.164   1.948  0.00  0.00    -0.153 OA
BRANCH   9  13
ATOM     12  C   UNL     1      -3.764  -1.689   1.245  0.00  0.00    +0.127 C 
ATOM     13  N   UNL     1      -5.044  -1.207   1.769  0.00  0.00    -0.193 NA
ATOM     14  H   UNL     1      -5.634  -1.815   2.242  0.00  0.00    +0.148 HD
ENDBRANCH   9  13
ENDBRANCH   3   9
BRANCH   7  15
ATOM     15  N   UNL     1      -8.416   0.397  -2.745  0.00  0.00    +0.058 N 
ATOM     16  O   UNL     1      -9.424   0.705  -2.151  0.00  0.00    -0.126 OA
ATOM     17  O   UNL     1      -8.491  -0.091  -3.849  0.00  0.00    -0.126 OA
ENDBRANCH   7  15
ENDBRANCH   1   6
BRANCH   1  18
ATOM     18  C   UNL     1      -5.066   1.729  -5.075  0.00  0.00    +0.089 C 
BRANCH  18  19
ATOM     19  C   UNL     1      -5.540   1.969  -6.510  0.00  0.00    -0.050 C 
ATOM     20  C   UNL     1      -6.595   3.078  -6.520  0.00  0.00    -0.010 C 
ATOM     21  C   UNL     1      -5.986   4.366  -5.962  0.00  0.00    -0.001 C 
ATOM     22  C   UNL     1      -4.797   4.785  -6.829  0.00  0.00    -0.000 C 
ATOM     23  C   UNL     1      -3.743   3.676  -6.819  0.00  0.00    -0.001 C 
ATOM     24  C   UNL     1      -4.352   2.388  -7.377  0.00  0.00    -0.010 C 
BRANCH  19  25
ATOM     25  N   UNL     1      -6.125   0.732  -7.045  0.00  0.00    +0.384 N 
ATOM     26  C   UNL     1      -6.548   0.954  -8.433  0.00  0.00    -0.078 C 
ATOM     27  C   UNL     1      -7.231  -0.306  -8.970  0.00  0.00    -0.019 C 
ATOM     28  C   UNL     1      -6.245  -1.477  -8.915  0.00  0.00    -0.004 C 
ATOM     29  C   UNL     1      -5.754  -1.651  -7.475  0.00  0.00    -0.019 C 
ATOM     30  C   UNL     1      -5.126  -0.342  -6.994  0.00  0.00    -0.078 C 
ATOM     31  H   UNL     1      -6.926   0.472  -6.489  0.00  0.00    -0.081 HD
ENDBRANCH  19  25
ENDBRANCH  18  19
ENDBRANCH   1  18
TORSDOF 7
