REMARK  Name = ZINC39836377
REMARK  8 active torsions:
REMARK  status: ('A' for Active; 'I' for Inactive)
REMARK    1  A    between atoms: C_1  and  C_2
REMARK    2  A    between atoms: C_7  and  O_8
REMARK    3  A    between atoms: O_8  and  C_9
REMARK    4  A    between atoms: C_9  and  C_10
REMARK    5  A    between atoms: N_12  and  C_13
REMARK    6  A    between atoms: C_14  and  C_24
REMARK    7  A    between atoms: C_19  and  C_23
REMARK    8  A    between atoms: N_26  and  C_27
REMARK                            x       y       z     vdW  Elec       q    Type
REMARK                         _______ _______ _______ _____ _____    ______ ____
ROOT
ATOM      1  C   UNL     1       0.066   0.406   7.122  0.00  0.00    +0.084 A 
ATOM      2  C   UNL     1       0.089   0.050   8.461  0.00  0.00    +0.069 A 
ATOM      3  C   UNL     1       0.083   1.127   9.435  0.00  0.00    -0.023 A 
ATOM      4  C   UNL     1       0.054   2.363   8.892  0.00  0.00    -0.004 A 
ATOM      5  S   UNL     1       0.044   2.085   7.145  0.00  0.00    -0.077 S 
ATOM      6  C   UNL     1       0.038   3.668   9.626  0.00  0.00    +0.046 C 
ATOM      7  C   UNL     1      -0.320   3.392  11.094  0.00  0.00    -0.009 C 
ATOM      8  C   UNL     1       0.543   2.235  11.605  0.00  0.00    +0.008 C 
ATOM      9  C   UNL     1       0.107   0.927  10.944  0.00  0.00    +0.037 C 
ATOM     10  C   UNL     1      -0.052   4.644  11.931  0.00  0.00    +0.008 C 
ENDROOT
BRANCH   1  13
ATOM     11  C   UNL     1       0.047   0.092   4.775  0.00  0.00    +0.255 C 
ATOM     12  O   UNL     1       0.030   1.295   4.624  0.00  0.00    -0.272 OA
ATOM     13  N   UNL     1       0.066  -0.431   6.017  0.00  0.00    -0.277 N 
ATOM     14  H   UNL     1       0.080  -1.394   6.138  0.00  0.00    +0.155 HD
BRANCH  11  15
ATOM     15  C   UNL     1       0.048  -0.819   3.574  0.00  0.00    +0.324 C 
BRANCH  15  16
ATOM     16  O   UNL     1       0.025  -0.033   2.381  0.00  0.00    -0.482 OA
BRANCH  16  23
ATOM     17  C   UNL     1      -0.018   1.503   0.010  0.00  0.00    +0.047 C 
ATOM     18  C   UNL     1       0.002  -0.004   0.002  0.00  0.00    -0.007 A 
ATOM     19  C   UNL     1       0.006  -0.689  -1.198  0.00  0.00    +0.027 A 
ATOM     20  C   UNL     1       0.024  -2.072  -1.206  0.00  0.00    +0.041 A 
ATOM     21  C   UNL     1       0.040  -2.773  -0.013  0.00  0.00    +0.023 A 
ATOM     22  C   UNL     1       0.036  -2.092   1.189  0.00  0.00    +0.047 A 
ATOM     23  C   UNL     1       0.023  -0.704   1.199  0.00  0.00    +0.124 A 
ATOM     24 CL   UNL     1       0.028  -2.930  -2.715  0.00  0.00    -0.084 Cl
ENDBRANCH  16  23
ENDBRANCH  15  16
ENDBRANCH  11  15
ENDBRANCH   1  13
BRANCH   2  25
ATOM     25  C   UNL     1       0.118  -1.356   8.877  0.00  0.00    +0.247 C 
ATOM     26  O   UNL     1       1.184  -1.921   9.037  0.00  0.00    -0.270 OA
ATOM     27  N   UNL     1      -1.035  -2.022   9.083  0.00  0.00    -0.307 N 
ATOM     28  H   UNL     1      -1.885  -1.572   8.956  0.00  0.00    +0.149 HD
BRANCH  27  29
ATOM     29  C   UNL     1      -1.006  -3.427   9.498  0.00  0.00    +0.096 C 
ATOM     30  C   UNL     1      -0.871  -3.504  11.028  0.00  0.00    +0.046 C 
ATOM     31  C   UNL     1      -1.157  -4.969  11.466  0.00  0.00    +0.168 C 
ATOM     32  S   UNL     1      -2.575  -5.380  10.364  0.00  0.00    -0.029 S 
ATOM     33  O   UNL     1      -3.788  -5.090  11.045  0.00  0.00    -0.174 OA
ATOM     34  O   UNL     1      -2.374  -6.675   9.816  0.00  0.00    -0.174 OA
ATOM     35  C   UNL     1      -2.313  -4.123   9.049  0.00  0.00    +0.188 C 
ENDBRANCH  27  29
ENDBRANCH   2  25
TORSDOF 6
