REMARK  Name = ZINC32256083
REMARK  7 active torsions:
REMARK  status: ('A' for Active; 'I' for Inactive)
REMARK    1  A    between atoms: C_1  and  N_2
REMARK    2  A    between atoms: N_5  and  C_14
REMARK    3  A    between atoms: C_14  and  C_15
REMARK    4  A    between atoms: N_17  and  N_18
REMARK    5  A    between atoms: N_18  and  C_19
REMARK    6  A    between atoms: N_18  and  C_26
REMARK    7  A    between atoms: C_19  and  C_20
REMARK                            x       y       z     vdW  Elec       q    Type
REMARK                         _______ _______ _______ _____ _____    ______ ____
ROOT
ATOM      1  C   UNL     1      -0.914  -1.276  -1.884  0.00  0.00    +0.247 C 
ATOM      2  O   UNL     1       0.204  -1.103  -2.320  0.00  0.00    -0.273 OA
ATOM      3  N   UNL     1      -1.280  -0.704  -0.720  0.00  0.00    -0.232 N 
ATOM      4  H   UNL     1      -2.294  -0.862  -0.324  0.00  0.00    +0.173 HD
ENDROOT
BRANCH   1   5
ATOM      5  C   UNL     1      -1.895  -2.133  -2.643  0.00  0.00    +0.215 C 
BRANCH   5  10
ATOM      6  C   UNL     1      -0.465  -2.267  -7.403  0.00  0.00    +0.134 C 
ATOM      7  N   UNL     1      -0.631  -2.673  -6.005  0.00  0.00    -0.274 N 
ATOM      8  C   UNL     1      -1.294  -2.002  -5.044  0.00  0.00    +0.312 C 
ATOM      9  O   UNL     1      -1.857  -0.940  -5.226  0.00  0.00    -0.252 OA
ATOM     10  N   UNL     1      -1.261  -2.635  -3.865  0.00  0.00    -0.215 N 
ATOM     11  C   UNL     1      -0.576  -3.795  -3.942  0.00  0.00    +0.247 C 
ATOM     12  O   UNL     1      -0.375  -4.589  -3.049  0.00  0.00    -0.273 OA
ATOM     13  C   UNL     1      -0.111  -3.894  -5.377  0.00  0.00    +0.115 C 
ATOM     14  C   UNL     1      -0.704  -5.131  -6.043  0.00  0.00    +0.035 C 
ATOM     15  C   UNL     1      -0.245  -5.199  -7.502  0.00  0.00    +0.003 C 
ATOM     16  C   UNL     1       1.284  -5.254  -7.552  0.00  0.00    +0.000 C 
ATOM     17  C   UNL     1       1.862  -3.995  -6.903  0.00  0.00    +0.003 C 
ATOM     18  C   UNL     1       1.412  -3.923  -5.442  0.00  0.00    +0.035 C 
ENDBRANCH   5  10
ENDBRANCH   1   5
BRANCH   3  19
ATOM     19  N   UNL     1      -0.369   0.092  -0.014  0.00  0.00    -0.247 N 
BRANCH  19  20
ATOM     20  C   UNL     1       0.675  -0.504   0.698  0.00  0.00    +0.048 A 
ATOM     21  C   UNL     1       1.583   0.284   1.393  0.00  0.00    +0.025 A 
ATOM     22  C   UNL     1       2.610  -0.309   2.101  0.00  0.00    +0.002 A 
ATOM     23  C   UNL     1       2.742  -1.686   2.108  0.00  0.00    +0.000 A 
ATOM     24  C   UNL     1       1.843  -2.473   1.411  0.00  0.00    +0.002 A 
ATOM     25  C   UNL     1       0.810  -1.887   0.707  0.00  0.00    +0.025 A 
ENDBRANCH  19  20
BRANCH  19  26
ATOM     26  C   UNL     1      -0.510   1.550  -0.022  0.00  0.00    +0.162 C 
BRANCH  26  27
ATOM     27  C   UNL     1      -1.284   1.987   1.195  0.00  0.00    -0.028 A 
ATOM     28  C   UNL     1      -2.661   2.090   1.139  0.00  0.00    +0.005 A 
ATOM     29  C   UNL     1      -3.371   2.485   2.257  0.00  0.00    +0.000 A 
ATOM     30  C   UNL     1      -2.703   2.788   3.429  0.00  0.00    +0.000 A 
ATOM     31  C   UNL     1      -1.325   2.691   3.483  0.00  0.00    +0.000 A 
ATOM     32  C   UNL     1      -0.615   2.290   2.367  0.00  0.00    +0.005 A 
ENDBRANCH  26  27
ENDBRANCH  19  26
ENDBRANCH   3  19
TORSDOF 6
