REMARK  Name = ZINC00259021
REMARK  4 active torsions:
REMARK  status: ('A' for Active; 'I' for Inactive)
REMARK    1  A    between atoms: C_3  and  C_6
REMARK    2  A    between atoms: C_6  and  N_7
REMARK    3  A    between atoms: C_8  and  C_10
REMARK    4  A    between atoms: C_14  and  N_16
REMARK                            x       y       z     vdW  Elec       q    Type
REMARK                         _______ _______ _______ _____ _____    ______ ____
ROOT
ATOM      1  N   UNL     1      -3.681   3.184   0.054  0.00  0.00    -0.304 N 
ATOM      2  C   UNL     1      -2.521   3.870   0.046  0.00  0.00    +0.244 C 
ATOM      3  O   UNL     1      -2.533   5.085   0.052  0.00  0.00    -0.270 OA
ATOM      4  H   UNL     1      -3.671   2.214   0.050  0.00  0.00    +0.149 HD
ENDROOT
BRANCH   2   5
ATOM      5  C   UNL     1      -1.234   3.144   0.031  0.00  0.00    +0.039 A 
ATOM      6  C   UNL     1      -1.217   1.748   0.017  0.00  0.00    +0.014 A 
ATOM      7  C   UNL     1      -0.013   1.076   0.008  0.00  0.00    +0.023 A 
ATOM      8  C   UNL     1       1.178   1.783   0.000  0.00  0.00    +0.071 A 
ATOM      9  C   UNL     1       1.168   3.168   0.007  0.00  0.00    +0.145 A 
ATOM     10  C   UNL     1      -0.030   3.851   0.023  0.00  0.00    +0.047 A 
ATOM     11 CL   UNL     1       2.691   0.931  -0.019  0.00  0.00    -0.081 Cl
BRANCH   9  12
ATOM     12  N   UNL     1       2.445   3.917  -0.001  0.00  0.00    +0.058 N 
ATOM     13  O   UNL     1       2.436   5.135   0.005  0.00  0.00    -0.126 OA
ATOM     14  O   UNL     1       3.503   3.315  -0.014  0.00  0.00    -0.126 OA
ENDBRANCH   9  12
ENDBRANCH   2   5
BRANCH   1  15
ATOM     15  C   UNL     1      -4.957   3.903   0.070  0.00  0.00    +0.179 C 
BRANCH  15  18
ATOM     16  C   UNL     1      -7.687   1.513   0.717  0.00  0.00    +0.041 A 
ATOM     17  C   UNL     1      -6.675   2.390   1.170  0.00  0.00    +0.046 A 
ATOM     18  C   UNL     1      -6.093   2.913   0.076  0.00  0.00    +0.122 A 
ATOM     19  O   UNL     1      -6.699   2.406  -1.010  0.00  0.00    -0.466 OA
ATOM     20  C   UNL     1      -7.662   1.552  -0.628  0.00  0.00    +0.195 A 
ENDBRANCH  15  18
ENDBRANCH   1  15
TORSDOF 4
