REMARK  Name = ZINC58892790
REMARK  12 active torsions:
REMARK  status: ('A' for Active; 'I' for Inactive)
REMARK    1  A    between atoms: C_1  and  C_2
REMARK    2  A    between atoms: C_2  and  O_3
REMARK    3  A    between atoms: O_3  and  C_4
REMARK    4  A    between atoms: C_7  and  C_10
REMARK    5  A    between atoms: C_10  and  C_12
REMARK    6  A    between atoms: C_10  and  O_34
REMARK    7  A    between atoms: C_12  and  C_13
REMARK    8  A    between atoms: C_13  and  C_14
REMARK    9  A    between atoms: N_16  and  N_17
REMARK   10  A    between atoms: C_18  and  C_19
REMARK   11  A    between atoms: C_22  and  C_24
REMARK   12  A    between atoms: C_27  and  N_31
REMARK                            x       y       z     vdW  Elec       q    Type
REMARK                         _______ _______ _______ _____ _____    ______ ____
ROOT
ATOM      1  C   UNL     1       3.855  -8.509  -0.837  0.00  0.00    +0.232 C 
ATOM      2  O   UNL     1       4.665  -7.704  -0.441  0.00  0.00    -0.274 OA
ATOM      3  N   UNL     1       4.141  -9.826  -0.799  0.00  0.00    -0.207 N 
ATOM      4  H   UNL     1       3.492 -10.472  -1.117  0.00  0.00    +0.177 HD
ENDROOT
BRANCH   3   5
ATOM      5  N   UNL     1       5.279 -10.226  -0.341  0.00  0.00    -0.185 NA
ATOM      6  C   UNL     1       5.560 -11.522  -0.304  0.00  0.00    +0.176 C 
BRANCH   6   7
ATOM      7  C   UNL     1       6.785 -11.953   0.189  0.00  0.00    +0.148 A 
ATOM      8  C   UNL     1       7.232 -13.350   0.284  0.00  0.00    +0.051 A 
ATOM      9  C   UNL     1       8.479 -13.323   0.818  0.00  0.00    +0.050 A 
ATOM     10  C   UNL     1       8.809 -11.919   1.055  0.00  0.00    +0.137 A 
ATOM     11  O   UNL     1       7.771 -11.162   0.659  0.00  0.00    -0.454 OA
BRANCH  10  12
ATOM     12  C   UNL     1      10.021 -11.436   1.605  0.00  0.00    +0.031 A 
ATOM     13  C   UNL     1      10.531 -11.991   2.796  0.00  0.00    +0.015 A 
ATOM     14  C   UNL     1      11.700 -11.520   3.319  0.00  0.00    +0.033 A 
ATOM     15  C   UNL     1      12.391 -10.496   2.686  0.00  0.00    +0.127 A 
ATOM     16  C   UNL     1      11.905  -9.937   1.514  0.00  0.00    +0.048 A 
ATOM     17  C   UNL     1      10.730 -10.401   0.963  0.00  0.00    +0.031 A 
ATOM     18 BR   UNL     1      10.069  -9.647  -0.640  0.00  0.00    -0.049 Br
BRANCH  15  19
ATOM     19  N   UNL     1      13.658  -9.996   3.267  0.00  0.00    +0.056 N 
ATOM     20  O   UNL     1      14.124 -10.523   4.381  0.00  0.00    -0.126 OA
ATOM     21  O   UNL     1      14.318  -9.025   2.671  0.00  0.00    -0.126 OA
ENDBRANCH  15  19
ENDBRANCH  10  12
ENDBRANCH   6   7
ENDBRANCH   3   5
BRANCH   1  22
ATOM     22  C   UNL     1       2.527  -8.041  -1.372  0.00  0.00    +0.100 C 
BRANCH  22  23
ATOM     23  C   UNL     1       2.458  -6.515  -1.304  0.00  0.00    +0.045 C 
BRANCH  23  24
ATOM     24  C   UNL     1       1.109  -6.040  -1.847  0.00  0.00    +0.145 C 
BRANCH  24  28
ATOM     25  C   UNL     1       0.777  -1.810  -1.336  0.00  0.00    +0.121 A 
ATOM     26  C   UNL     1       0.243  -2.669  -0.386  0.00  0.00    +0.046 A 
ATOM     27  C   UNL     1       0.351  -4.036  -0.554  0.00  0.00    +0.010 A 
ATOM     28  C   UNL     1       0.992  -4.548  -1.667  0.00  0.00    -0.019 A 
ATOM     29  C   UNL     1       1.525  -3.694  -2.615  0.00  0.00    +0.010 A 
ATOM     30  C   UNL     1       1.414  -2.327  -2.455  0.00  0.00    +0.046 A 
BRANCH  25  31
ATOM     31  O   UNL     1       0.671  -0.465  -1.174  0.00  0.00    -0.492 OA
BRANCH  31  33
ATOM     32  C   UNL     1      -0.019   1.526   0.010  0.00  0.00    +0.048 C 
ATOM     33  C   UNL     1       0.002  -0.004   0.002  0.00  0.00    +0.225 C 
ENDBRANCH  31  33
ENDBRANCH  25  31
ENDBRANCH  24  28
BRANCH  24  34
ATOM     34  O   UNL     1       1.016  -6.361  -3.237  0.00  0.00    -0.387 OA
ATOM     35  H   UNL     1       1.702  -5.952  -3.781  0.00  0.00    +0.210 HD
ENDBRANCH  24  34
ENDBRANCH  23  24
ENDBRANCH  22  23
ENDBRANCH   1  22
TORSDOF 11
