REMARK  Name = ZINC38887341
REMARK  9 active torsions:
REMARK  status: ('A' for Active; 'I' for Inactive)
REMARK    1  A    between atoms: C_1  and  C_2
REMARK    2  A    between atoms: C_5  and  C_8
REMARK    3  A    between atoms: C_8  and  C_10
REMARK    4  A    between atoms: C_8  and  N_16
REMARK    5  A    between atoms: C_17  and  C_19
REMARK    6  A    between atoms: N_24  and  C_26
REMARK    7  A    between atoms: C_26  and  C_27
REMARK    8  A    between atoms: C_29  and  C_32
REMARK    9  A    between atoms: C_37  and  C_38
REMARK                            x       y       z     vdW  Elec       q    Type
REMARK                         _______ _______ _______ _____ _____    ______ ____
ROOT
ATOM      1  C   UNL     1       3.717  -5.254   2.712  0.00  0.00    +0.058 C 
ATOM      2  C   UNL     1       2.941  -5.328   4.030  0.00  0.00    +0.009 C 
ATOM      3  C   UNL     1       3.729  -6.180   5.029  0.00  0.00    -0.018 C 
ATOM      4  C   UNL     1       3.979  -7.563   4.425  0.00  0.00    -0.078 C 
ATOM      5  N   UNL     1       4.748  -7.427   3.182  0.00  0.00    +0.386 N 
ATOM      6  C   UNL     1       3.969  -6.671   2.194  0.00  0.00    -0.065 C 
ATOM      7  H   UNL     1       5.610  -6.938   3.373  0.00  0.00    -0.081 HD
ENDROOT
BRANCH   1   9
ATOM      8  N   UNL     1       2.571  -3.202   1.942  0.00  0.00    -0.304 N 
ATOM      9  C   UNL     1       2.914  -4.482   1.697  0.00  0.00    +0.215 C 
ATOM     10  O   UNL     1       2.578  -5.012   0.660  0.00  0.00    -0.276 OA
ATOM     11  H   UNL     1       2.840  -2.778   2.772  0.00  0.00    +0.150 HD
BRANCH   8  12
ATOM     12  C   UNL     1       1.790  -2.451   0.956  0.00  0.00    +0.134 C 
BRANCH  12  17
ATOM     13  C   UNL     1       2.773   3.204   1.617  0.00  0.00    +0.044 C 
ATOM     14  C   UNL     1       2.517   1.730   1.444  0.00  0.00    -0.050 A 
ATOM     15  C   UNL     1       2.412   1.190   0.176  0.00  0.00    +0.004 A 
ATOM     16  C   UNL     1       2.177  -0.163   0.018  0.00  0.00    +0.006 A 
ATOM     17  C   UNL     1       2.047  -0.977   1.128  0.00  0.00    -0.023 A 
ATOM     18  C   UNL     1       2.153  -0.437   2.396  0.00  0.00    +0.006 A 
ATOM     19  C   UNL     1       2.392   0.915   2.555  0.00  0.00    +0.004 A 
ENDBRANCH  12  17
BRANCH  12  20
ATOM     20  C   UNL     1       0.323  -2.732   1.157  0.00  0.00    -0.023 A 
ATOM     21  C   UNL     1      -0.195  -2.821   2.435  0.00  0.00    +0.006 A 
ATOM     22  C   UNL     1      -1.540  -3.079   2.620  0.00  0.00    +0.000 A 
ATOM     23  C   UNL     1      -2.368  -3.247   1.526  0.00  0.00    +0.000 A 
ATOM     24  C   UNL     1      -1.850  -3.158   0.247  0.00  0.00    +0.000 A 
ATOM     25  C   UNL     1      -0.506  -2.896   0.062  0.00  0.00    +0.006 A 
ENDBRANCH  12  20
ENDBRANCH   8  12
ENDBRANCH   1   9
BRANCH   5  26
ATOM     26  C   UNL     1       5.053  -8.761   2.647  0.00  0.00    +0.022 C 
BRANCH  26  27
ATOM     27  C   UNL     1       5.963  -9.489   3.602  0.00  0.00    +0.211 A 
ATOM     28  N   UNL     1       5.581 -10.255   4.584  0.00  0.00    -0.193 NA
ATOM     29  C   UNL     1       6.654 -10.743   5.232  0.00  0.00    +0.202 A 
ATOM     30  N   UNL     1       7.736 -10.283   4.655  0.00  0.00    -0.056 NA
ATOM     31  O   UNL     1       7.302  -9.463   3.581  0.00  0.00    -0.340 OA
BRANCH  29  32
ATOM     32  C   UNL     1       6.617 -11.652   6.405  0.00  0.00    +0.025 A 
ATOM     33  C   UNL     1       5.762 -11.382   7.472  0.00  0.00    +0.012 A 
ATOM     34  C   UNL     1       5.732 -12.230   8.560  0.00  0.00    +0.001 A 
ATOM     35  C   UNL     1       6.549 -13.346   8.593  0.00  0.00    +0.000 A 
ATOM     36  C   UNL     1       7.399 -13.619   7.537  0.00  0.00    +0.004 A 
ATOM     37  C   UNL     1       7.433 -12.780   6.441  0.00  0.00    -0.040 A 
ATOM     38  C   UNL     1       8.355 -13.082   5.288  0.00  0.00    +0.044 C 
ENDBRANCH  29  32
ENDBRANCH  26  27
ENDBRANCH   5  26
TORSDOF 7
