REMARK  Name = ZINC09006097
REMARK  9 active torsions:
REMARK  status: ('A' for Active; 'I' for Inactive)
REMARK    1  A    between atoms: C_3  and  C_7
REMARK    2  A    between atoms: C_7  and  C_9
REMARK    3  A    between atoms: C_7  and  S_26
REMARK    4  A    between atoms: C_9  and  N_10
REMARK    5  A    between atoms: N_10  and  S_11
REMARK    6  A    between atoms: S_11  and  C_14
REMARK    7  A    between atoms: C_17  and  O_20
REMARK    8  A    between atoms: O_20  and  C_21
REMARK    9  A    between atoms: S_26  and  C_29
REMARK                            x       y       z     vdW  Elec       q    Type
REMARK                         _______ _______ _______ _____ _____    ______ ____
ROOT
ATOM      1  C   UNL     1      -0.699   2.074  -1.330  0.00  0.00    +0.137 C 
ENDROOT
BRANCH   1   2
ATOM      2  N   UNL     1      -1.960   1.335  -1.233  0.00  0.00    -0.188 NA
ATOM      3  H   UNL     1      -2.049   0.608  -0.598  0.00  0.00    +0.148 HD
BRANCH   2   4
ATOM      4  S   UNL     1      -3.235   1.742  -2.209  0.00  0.00    +0.058 S 
ATOM      5  O   UNL     1      -4.287   0.839  -1.900  0.00  0.00    -0.153 OA
ATOM      6  O   UNL     1      -3.387   3.151  -2.112  0.00  0.00    -0.153 OA
BRANCH   4   7
ATOM      7  C   UNL     1      -2.750   1.401  -3.869  0.00  0.00    +0.105 A 
ATOM      8  C   UNL     1      -2.132   2.382  -4.622  0.00  0.00    +0.032 A 
ATOM      9  C   UNL     1      -1.746   2.116  -5.922  0.00  0.00    +0.047 A 
ATOM     10  C   UNL     1      -1.989   0.866  -6.474  0.00  0.00    +0.121 A 
ATOM     11  C   UNL     1      -2.614  -0.114  -5.717  0.00  0.00    +0.047 A 
ATOM     12  C   UNL     1      -2.993   0.155  -4.417  0.00  0.00    +0.032 A 
BRANCH  10  13
ATOM     13  O   UNL     1      -1.615   0.603  -7.754  0.00  0.00    -0.489 OA
BRANCH  13  14
ATOM     14  C   UNL     1      -2.005  -0.659  -8.297  0.00  0.00    +0.173 C 
ATOM     15  C   UNL     1      -0.955  -1.733  -7.946  0.00  0.00    +0.044 C 
ATOM     16  C   UNL     1      -0.892  -2.630  -9.208  0.00  0.00    +0.004 C 
ATOM     17  C   UNL     1      -1.034  -1.606 -10.362  0.00  0.00    +0.004 C 
ATOM     18  C   UNL     1      -2.055  -0.579  -9.833  0.00  0.00    +0.044 C 
ENDBRANCH  13  14
ENDBRANCH  10  13
ENDBRANCH   4   7
ENDBRANCH   2   4
ENDBRANCH   1   2
BRANCH   1  19
ATOM     19  C   UNL     1       0.165   1.771  -0.104  0.00  0.00    +0.183 C 
BRANCH  19  22
ATOM     20  C   UNL     1       3.841   2.595  -0.322  0.00  0.00    +0.020 A 
ATOM     21  C   UNL     1       2.673   1.855  -0.223  0.00  0.00    +0.008 A 
ATOM     22  C   UNL     1       1.463   2.531  -0.204  0.00  0.00    -0.004 A 
ATOM     23  C   UNL     1       1.462   3.912  -0.273  0.00  0.00    +0.116 A 
ATOM     24  N   UNL     1       2.593   4.583  -0.361  0.00  0.00    -0.263 NA
ATOM     25  C   UNL     1       3.762   3.973  -0.386  0.00  0.00    +0.111 A 
ENDBRANCH  19  22
BRANCH  19  26
ATOM     26  S   UNL     1      -0.718   2.277   1.397  0.00  0.00    +0.005 S 
ATOM     27  O   UNL     1      -0.940   3.681   1.385  0.00  0.00    -0.169 OA
ATOM     28  O   UNL     1      -1.784   1.377   1.665  0.00  0.00    -0.169 OA
BRANCH  26  29
ATOM     29  C   UNL     1       0.431   2.015   2.708  0.00  0.00    +0.089 A 
ATOM     30  C   UNL     1       0.468   0.797   3.361  0.00  0.00    +0.028 A 
ATOM     31  C   UNL     1       1.372   0.589   4.385  0.00  0.00    +0.022 A 
ATOM     32  C   UNL     1       2.233   1.604   4.764  0.00  0.00    +0.041 A 
ATOM     33  C   UNL     1       2.191   2.825   4.114  0.00  0.00    +0.022 A 
ATOM     34  C   UNL     1       1.290   3.030   3.086  0.00  0.00    +0.028 A 
ATOM     35 CL   UNL     1       3.365   1.346   6.055  0.00  0.00    -0.084 Cl
ENDBRANCH  26  29
ENDBRANCH  19  26
ENDBRANCH   1  19
TORSDOF 9
