REMARK  Name = ZINC39669582
REMARK  7 active torsions:
REMARK  status: ('A' for Active; 'I' for Inactive)
REMARK    1  A    between atoms: C_1  and  C_2
REMARK    2  A    between atoms: C_2  and  C_3
REMARK    3  A    between atoms: C_2  and  C_4
REMARK    4  A    between atoms: C_2  and  N_29
REMARK    5  A    between atoms: C_4  and  N_5
REMARK    6  A    between atoms: C_6  and  C_8
REMARK    7  A    between atoms: C_19  and  C_21
REMARK                            x       y       z     vdW  Elec       q    Type
REMARK                         _______ _______ _______ _____ _____    ______ ____
ROOT
ATOM      1  C   UNL     1      -1.921  -3.846  -0.322  0.00  0.00    +0.100 C 
ATOM      2  C   UNL     1      -0.896  -4.563  -1.230  0.00  0.00    +0.121 C 
ATOM      3  N   UNL     1      -1.529  -5.863  -1.555  0.00  0.00    -0.296 N 
ATOM      4  C   UNL     1      -2.961  -5.535  -1.758  0.00  0.00    +0.115 C 
ATOM      5  C   UNL     1      -3.275  -4.487  -0.672  0.00  0.00    -0.004 C 
ATOM      6  C   UNL     1      -3.873  -5.164   0.557  0.00  0.00    -0.010 C 
ATOM      7  C   UNL     1      -5.244  -5.744   0.198  0.00  0.00    -0.082 C 
ATOM      8  N   UNL     1      -6.125  -4.668  -0.270  0.00  0.00    +0.379 N 
ATOM      9  C   UNL     1      -5.590  -4.084  -1.506  0.00  0.00    -0.082 C 
ATOM     10  C   UNL     1      -4.233  -3.433  -1.219  0.00  0.00    -0.010 C 
ATOM     11  C   UNL     1      -0.937  -7.070  -1.647  0.00  0.00    +0.247 C 
ATOM     12  O   UNL     1       0.228  -7.201  -1.324  0.00  0.00    -0.270 OA
ATOM     13  H   UNL     1      -7.045  -5.042  -0.448  0.00  0.00    -0.086 HD
ATOM     14  H   UNL     1      -6.187  -3.953   0.439  0.00  0.00    -0.086 HD
ENDROOT
BRANCH  11  15
ATOM     15  C   UNL     1      -1.703  -8.234  -2.138  0.00  0.00    +0.038 A 
ATOM     16  C   UNL     1      -2.860  -8.042  -2.896  0.00  0.00    +0.014 A 
ATOM     17  C   UNL     1      -3.571  -9.131  -3.352  0.00  0.00    +0.022 A 
ATOM     18  C   UNL     1      -3.141 -10.415  -3.060  0.00  0.00    +0.059 A 
ATOM     19  C   UNL     1      -1.994 -10.613  -2.308  0.00  0.00    +0.060 A 
ATOM     20  C   UNL     1      -1.270  -9.529  -1.851  0.00  0.00    +0.034 A 
ATOM     21 CL   UNL     1      -1.462 -12.225  -1.946  0.00  0.00    -0.082 Cl
ATOM     22 CL   UNL     1      -4.043 -11.781  -3.637  0.00  0.00    -0.082 Cl
ENDBRANCH  11  15
BRANCH   1  24
ATOM     23  N   UNL     1      -2.368  -1.498   0.315  0.00  0.00    -0.313 N 
ATOM     24  C   UNL     1      -1.946  -2.370  -0.623  0.00  0.00    +0.218 C 
ATOM     25  O   UNL     1      -1.587  -1.966  -1.708  0.00  0.00    -0.275 OA
ATOM     26  H   UNL     1      -2.655  -1.821   1.183  0.00  0.00    +0.149 HD
BRANCH  23  27
ATOM     27  C   UNL     1      -2.392  -0.063   0.023  0.00  0.00    +0.126 C 
BRANCH  27  29
ATOM     28  C   UNL     1      -1.684   0.544   2.341  0.00  0.00    +0.029 C 
ATOM     29  C   UNL     1      -2.780   0.708   1.286  0.00  0.00    +0.032 C 
ATOM     30  C   UNL     1      -2.945   2.191   0.948  0.00  0.00    +0.029 C 
BRANCH  29  31
ATOM     31  N   UNL     1      -4.047   0.182   1.811  0.00  0.00    -0.291 NA
ATOM     32  C   UNL     1      -5.108   0.251   0.795  0.00  0.00    +0.113 C 
ATOM     33  C   UNL     1      -6.391  -0.361   1.363  0.00  0.00    +0.175 C 
ATOM     34  O   UNL     1      -6.749   0.326   2.565  0.00  0.00    -0.377 OA
ATOM     35  C   UNL     1      -5.739   0.279   3.577  0.00  0.00    +0.175 C 
ATOM     36  C   UNL     1      -4.449   0.897   3.032  0.00  0.00    +0.113 C 
ENDBRANCH  29  31
ENDBRANCH  27  29
ENDBRANCH  23  27
ENDBRANCH   1  24
TORSDOF 5
