REMARK  Name = ZINC04032133
REMARK  7 active torsions:
REMARK  status: ('A' for Active; 'I' for Inactive)
REMARK    1  A    between atoms: C_1  and  C_2
REMARK    2  A    between atoms: C_3  and  C_20
REMARK    3  A    between atoms: C_4  and  C_13
REMARK    4  A    between atoms: C_6  and  C_11
REMARK    5  A    between atoms: C_7  and  S_9
REMARK    6  A    between atoms: S_9  and  C_10
REMARK    7  A    between atoms: N_22  and  C_23
REMARK                            x       y       z     vdW  Elec       q    Type
REMARK                         _______ _______ _______ _____ _____    ______ ____
ROOT
ATOM      1  C   UNL     1       1.327   5.626  -0.931  0.00  0.00    +0.061 C 
ATOM      2  C   UNL     1       0.301   5.206   0.091  0.00  0.00    +0.014 C 
ATOM      3  C   UNL     1      -0.182   6.114   0.954  0.00  0.00    +0.044 C 
ATOM      4  C   UNL     1      -1.210   5.752   1.987  0.00  0.00    +0.100 C 
ATOM      5  C   UNL     1      -1.297   4.263   2.159  0.00  0.00    +0.069 C 
ATOM      6  C   UNL     1      -0.760   3.414   1.242  0.00  0.00    +0.079 C 
ATOM      7  N   UNL     1      -0.122   3.905   0.125  0.00  0.00    -0.312 N 
ATOM      8  H   UNL     1       0.047   3.249  -0.742  0.00  0.00    +0.152 HD
ENDROOT
BRANCH   4   9
ATOM      9  C   UNL     1      -2.555   6.274   1.551  0.00  0.00    -0.016 A 
ATOM     10  C   UNL     1      -3.109   5.848   0.359  0.00  0.00    +0.006 A 
ATOM     11  C   UNL     1      -4.342   6.327  -0.041  0.00  0.00    +0.000 A 
ATOM     12  C   UNL     1      -5.023   7.232   0.751  0.00  0.00    +0.001 A 
ATOM     13  C   UNL     1      -4.470   7.660   1.943  0.00  0.00    +0.020 A 
ATOM     14  C   UNL     1      -3.238   7.177   2.347  0.00  0.00    +0.045 A 
ATOM     15 CL   UNL     1      -2.546   7.707   3.848  0.00  0.00    -0.083 Cl
ENDBRANCH   4   9
BRANCH   3  16
ATOM     16  C   UNL     1       0.291   7.447   0.890  0.00  0.00    +0.247 C 
ATOM     17  O   UNL     1       1.126   7.757   0.059  0.00  0.00    -0.270 OA
ATOM     18  N   UNL     1      -0.182   8.372   1.748  0.00  0.00    -0.282 N 
ATOM     19  H   UNL     1      -0.989   8.111   2.448  0.00  0.00    +0.155 HD
BRANCH  18  20
ATOM     20  C   UNL     1       0.354   9.664   1.748  0.00  0.00    +0.034 A 
ATOM     21  C   UNL     1       0.468  10.369   2.939  0.00  0.00    +0.023 A 
ATOM     22  C   UNL     1       1.002  11.643   2.937  0.00  0.00    +0.002 A 
ATOM     23  C   UNL     1       1.413  12.220   1.749  0.00  0.00    +0.000 A 
ATOM     24  C   UNL     1       1.295  11.522   0.561  0.00  0.00    +0.002 A 
ATOM     25  C   UNL     1       0.767  10.246   0.557  0.00  0.00    +0.023 A 
ENDBRANCH  18  20
ENDBRANCH   3  16
BRANCH   6  26
ATOM     26  S   UNL     1      -0.889   1.673   1.480  0.00  0.00    -0.113 S 
ATOM     27  C   UNL     1      -0.034   1.088  -0.004  0.00  0.00    +0.091 C 
ENDBRANCH   6  26
BRANCH   5  28
ATOM     28  C   UNL     1      -1.952   3.726   3.313  0.00  0.00    +0.098 C 
ATOM     29  N   UNL     1      -2.472   3.300   4.229  0.00  0.00    -0.191 NA
ENDBRANCH   5  28
TORSDOF 5
