REMARK  Name = ZINC37413379
REMARK  5 active torsions:
REMARK  status: ('A' for Active; 'I' for Inactive)
REMARK    1  A    between atoms: C_1  and  C_2
REMARK    2  A    between atoms: C_2  and  C_4
REMARK    3  A    between atoms: C_2  and  N_11
REMARK    4  A    between atoms: N_7  and  C_10
REMARK    5  A    between atoms: N_11  and  C_12
REMARK                            x       y       z     vdW  Elec       q    Type
REMARK                         _______ _______ _______ _____ _____    ______ ____
ROOT
ATOM      1  N   UNL     1       0.688  -0.476  -1.203  0.00  0.00    -0.340 N 
ATOM      2  H   UNL     1       1.632  -0.695  -1.170  0.00  0.00    +0.146 HD
ENDROOT
BRANCH   1   3
ATOM      3  C   UNL     1      -0.020  -0.613  -2.403  0.00  0.00    +0.045 A 
ATOM      4  C   UNL     1      -1.370  -0.296  -2.453  0.00  0.00    +0.073 A 
ATOM      5  C   UNL     1      -2.071  -0.431  -3.641  0.00  0.00    +0.164 A 
ATOM      6  C   UNL     1      -1.420  -0.882  -4.783  0.00  0.00    +0.163 A 
ATOM      7  C   UNL     1      -0.071  -1.200  -4.730  0.00  0.00    +0.066 A 
ATOM      8  C   UNL     1       0.629  -1.061  -3.546  0.00  0.00    +0.042 A 
ATOM      9 BR   UNL     1       2.470  -1.488  -3.481  0.00  0.00    -0.048 Br
ATOM     10  O   UNL     1      -2.090  -1.014  -5.962  0.00  0.00    -0.485 OA
ATOM     11  C   UNL     1      -3.519  -1.042  -5.889  0.00  0.00    +0.270 C 
ATOM     12  C   UNL     1      -3.977   0.094  -4.964  0.00  0.00    +0.270 C 
ATOM     13  O   UNL     1      -3.396  -0.119  -3.673  0.00  0.00    -0.485 OA
ENDBRANCH   1   3
BRANCH   1  15
ATOM     14  C   UNL     1      -0.019   1.526   0.010  0.00  0.00    +0.028 C 
ATOM     15  C   UNL     1       0.002  -0.004   0.002  0.00  0.00    +0.070 C 
BRANCH  15  16
ATOM     16  C   UNL     1       0.742  -0.511   1.242  0.00  0.00    +0.005 C 
ATOM     17  C   UNL     1       0.755  -2.042   1.240  0.00  0.00    -0.013 C 
ATOM     18  C   UNL     1       1.426  -2.543   2.521  0.00  0.00    -0.079 C 
ATOM     19  N   UNL     1       0.680  -2.060   3.689  0.00  0.00    +0.378 N 
ATOM     20  C   UNL     1       0.725  -0.593   3.737  0.00  0.00    -0.079 C 
ATOM     21  C   UNL     1       0.026  -0.018   2.502  0.00  0.00    -0.013 C 
ATOM     22  C   UNL     1       1.282  -2.606   4.912  0.00  0.00    -0.096 C 
ATOM     23  H   UNL     1      -0.279  -2.364   3.623  0.00  0.00    -0.082 HD
ENDBRANCH  15  16
ENDBRANCH   1  15
TORSDOF 3
