REMARK  Name = ZINC35509541
REMARK  6 active torsions:
REMARK  status: ('A' for Active; 'I' for Inactive)
REMARK    1  A    between atoms: C_1  and  C_2
REMARK    2  A    between atoms: C_5  and  C_14
REMARK    3  A    between atoms: N_6  and  C_8
REMARK    4  A    between atoms: N_17  and  C_19
REMARK    5  A    between atoms: C_19  and  C_21
REMARK    6  A    between atoms: C_19  and  C_22
REMARK                            x       y       z     vdW  Elec       q    Type
REMARK                         _______ _______ _______ _____ _____    ______ ____
ROOT
ATOM      1  C   UNL     1       0.176   1.745  -0.067  0.00  0.00    +0.070 C 
ATOM      2  C   UNL     1       0.089   0.242  -0.015  0.00  0.00    +0.086 A 
ATOM      3  C   UNL     1      -1.219  -0.417   0.031  0.00  0.00    +0.121 A 
ATOM      4  C   UNL     1      -1.244  -1.890   0.080  0.00  0.00    +0.091 A 
ATOM      5  C   UNL     1      -2.566  -2.259   0.116  0.00  0.00    +0.055 A 
ATOM      6  N   UNL     1      -3.307  -1.137   0.092  0.00  0.00    -0.236 N 
ATOM      7  N   UNL     1      -2.468  -0.016   0.040  0.00  0.00    -0.164 NA
ATOM      8  C   UNL     1      -3.092  -3.670   0.172  0.00  0.00    +0.066 C 
ATOM      9  C   UNL     1       0.043  -2.592   0.081  0.00  0.00    +0.279 A 
ATOM     10  O   UNL     1       0.087  -3.808   0.120  0.00  0.00    -0.265 OA
ATOM     11  N   UNL     1       1.178  -1.864   0.037  0.00  0.00    -0.217 N 
ATOM     12  N   UNL     1       1.173  -0.472  -0.016  0.00  0.00    -0.171 NA
ENDROOT
BRANCH   6  13
ATOM     13  C   UNL     1      -4.706  -1.095   0.114  0.00  0.00    +0.066 A 
ATOM     14  C   UNL     1      -5.414  -1.931   0.969  0.00  0.00    +0.028 A 
ATOM     15  C   UNL     1      -6.794  -1.887   0.989  0.00  0.00    +0.002 A 
ATOM     16  C   UNL     1      -7.472  -1.012   0.160  0.00  0.00    +0.000 A 
ATOM     17  C   UNL     1      -6.770  -0.178  -0.692  0.00  0.00    +0.002 A 
ATOM     18  C   UNL     1      -5.390  -0.214  -0.713  0.00  0.00    +0.028 A 
ENDBRANCH   6  13
BRANCH  11  19
ATOM     19  C   UNL     1       2.465  -2.564   0.038  0.00  0.00    +0.193 C 
ATOM     20  C   UNL     1       3.236  -2.217  -1.238  0.00  0.00    +0.043 C 
BRANCH  19  21
ATOM     21  C   UNL     1       3.267  -2.139   1.241  0.00  0.00    +0.240 C 
ATOM     22  O   UNL     1       3.066  -1.058   1.753  0.00  0.00    -0.273 OA
ATOM     23  N   UNL     1       4.208  -2.961   1.748  0.00  0.00    -0.297 N 
ATOM     24  C   UNL     1       4.544  -4.221   1.071  0.00  0.00    +0.127 C 
ATOM     25  C   UNL     1       6.052  -4.242   0.795  0.00  0.00    +0.125 C 
ATOM     26  N   UNL     1       6.761  -3.893   2.035  0.00  0.00    -0.314 N 
ATOM     27  C   UNL     1       6.425  -2.633   2.712  0.00  0.00    +0.125 C 
ATOM     28  C   UNL     1       4.920  -2.609   2.984  0.00  0.00    +0.127 C 
ATOM     29  C   UNL     1       7.731  -4.741   2.558  0.00  0.00    +0.099 A 
ATOM     30  C   UNL     1       8.132  -5.859   1.834  0.00  0.00    +0.042 A 
ATOM     31  C   UNL     1       9.098  -6.694   2.366  0.00  0.00    +0.005 A 
ATOM     32  C   UNL     1       9.633  -6.380   3.609  0.00  0.00    +0.018 A 
ATOM     33  C   UNL     1       9.188  -5.254   4.272  0.00  0.00    +0.084 A 
ATOM     34  N   UNL     1       8.269  -4.473   3.737  0.00  0.00    -0.350 N 
ATOM     35  H   UNL     1       7.977  -3.686   4.223  0.00  0.00    +0.166 HD
ENDBRANCH  19  21
ENDBRANCH  11  19
TORSDOF 3
