REMARK  Name = ZINC39992745
REMARK  11 active torsions:
REMARK  status: ('A' for Active; 'I' for Inactive)
REMARK    1  A    between atoms: C_1  and  C_2
REMARK    2  A    between atoms: C_2  and  O_3
REMARK    3  A    between atoms: O_3  and  C_4
REMARK    4  A    between atoms: C_4  and  C_6
REMARK    5  A    between atoms: C_9  and  C_12
REMARK    6  A    between atoms: C_15  and  C_17
REMARK    7  A    between atoms: C_18  and  C_19
REMARK    8  A    between atoms: C_18  and  C_21
REMARK    9  A    between atoms: N_23  and  C_24
REMARK   10  A    between atoms: C_25  and  C_33
REMARK   11  A    between atoms: N_35  and  C_36
REMARK                            x       y       z     vdW  Elec       q    Type
REMARK                         _______ _______ _______ _____ _____    ______ ____
ROOT
ATOM      1  C   UNL     1       5.159  -3.648  -9.033  0.00  0.00    +0.070 C 
ATOM      2  C   UNL     1       5.324  -2.302  -9.325  0.00  0.00    +0.117 C 
ENDROOT
BRANCH   1   6
ATOM      3  C   UNL     1       3.404  -3.924  -5.949  0.00  0.00    +0.136 A 
ATOM      4  C   UNL     1       3.568  -5.263  -6.237  0.00  0.00    +0.050 A 
ATOM      5  C   UNL     1       4.257  -5.339  -7.447  0.00  0.00    +0.050 A 
ATOM      6  C   UNL     1       4.490  -4.035  -7.858  0.00  0.00    +0.130 A 
ATOM      7  O   UNL     1       3.960  -3.202  -6.938  0.00  0.00    -0.455 OA
BRANCH   3  11
ATOM      8  C   UNL     1       1.454  -2.347  -2.526  0.00  0.00    +0.059 A 
ATOM      9  C   UNL     1       1.993  -1.483  -3.483  0.00  0.00    +0.015 A 
ATOM     10  C   UNL     1       2.623  -1.992  -4.589  0.00  0.00    +0.012 A 
ATOM     11  C   UNL     1       2.727  -3.376  -4.759  0.00  0.00    +0.017 A 
ATOM     12  C   UNL     1       2.188  -4.241  -3.801  0.00  0.00    +0.012 A 
ATOM     13  C   UNL     1       1.563  -3.731  -2.692  0.00  0.00    +0.015 A 
BRANCH   8  14
ATOM     14  C   UNL     1       0.776  -1.798  -1.335  0.00  0.00    +0.339 C 
ATOM     15  O   UNL     1       0.312  -2.550  -0.500  0.00  0.00    -0.245 OA
BRANCH  14  16
ATOM     16  O   UNL     1       0.671  -0.465  -1.174  0.00  0.00    -0.461 OA
BRANCH  16  18
ATOM     17  C   UNL     1      -0.019   1.526   0.010  0.00  0.00    +0.048 C 
ATOM     18  C   UNL     1       0.002  -0.004   0.002  0.00  0.00    +0.229 C 
ENDBRANCH  16  18
ENDBRANCH  14  16
ENDBRANCH   8  14
ENDBRANCH   3  11
ENDBRANCH   1   6
BRANCH   2  19
ATOM     19  C   UNL     1       6.022  -1.898 -10.552  0.00  0.00    +0.259 C 
ATOM     20  O   UNL     1       6.455  -2.744 -11.312  0.00  0.00    -0.269 OA
ATOM     21  N   UNL     1       6.183  -0.590 -10.836  0.00  0.00    -0.275 N 
ATOM     22  H   UNL     1       5.837   0.084 -10.230  0.00  0.00    +0.156 HD
BRANCH  21  23
ATOM     23  C   UNL     1       6.841  -0.209 -11.993  0.00  0.00    +0.085 A 
ATOM     24  C   UNL     1       7.102   1.077 -12.441  0.00  0.00    +0.069 A 
ATOM     25  C   UNL     1       7.816   1.210 -13.699  0.00  0.00    -0.023 A 
ATOM     26  C   UNL     1       8.139   0.033 -14.278  0.00  0.00    -0.004 A 
ATOM     27  S   UNL     1       7.513  -1.198 -13.172  0.00  0.00    -0.077 S 
ATOM     28  C   UNL     1       8.869  -0.163 -15.570  0.00  0.00    +0.043 C 
ATOM     29  C   UNL     1       8.869   1.171 -16.332  0.00  0.00    +0.005 C 
ATOM     30  C   UNL     1       9.293   2.288 -15.374  0.00  0.00    +0.005 C 
ATOM     31  C   UNL     1       8.189   2.537 -14.343  0.00  0.00    +0.037 C 
BRANCH  24  32
ATOM     32  C   UNL     1       6.674   2.253 -11.678  0.00  0.00    +0.246 C 
ATOM     33  O   UNL     1       7.413   2.737 -10.841  0.00  0.00    -0.270 OA
ATOM     34  N   UNL     1       5.462   2.799 -11.903  0.00  0.00    -0.314 N 
ATOM     35  C   UNL     1       5.034   3.974 -11.141  0.00  0.00    +0.128 C 
ATOM     36  H   UNL     1       4.873   2.413 -12.571  0.00  0.00    +0.149 HD
ENDBRANCH  24  32
ENDBRANCH  21  23
ENDBRANCH   2  19
BRANCH   2  37
ATOM     37  C   UNL     1       4.814  -1.307  -8.430  0.00  0.00    +0.104 C 
ATOM     38  N   UNL     1       4.410  -0.518  -7.720  0.00  0.00    -0.191 NA
ENDBRANCH   2  37
TORSDOF 9
