REMARK  Name = ZINC15866208
REMARK  2 active torsions:
REMARK  status: ('A' for Active; 'I' for Inactive)
REMARK    1  A    between atoms: C_4  and  C_7
REMARK    2  A    between atoms: C_10  and  C_18
REMARK                            x       y       z     vdW  Elec       q    Type
REMARK                         _______ _______ _______ _____ _____    ______ ____
ROOT
ATOM      1  C   UNL     1      -0.752   1.592  -1.236  0.00  0.00    +0.106 C 
ATOM      2  C   UNL     1      -0.013   1.086   0.008  0.00  0.00    +0.059 C 
ATOM      3  C   UNL     1      -0.728   1.579   1.272  0.00  0.00    +0.146 C 
ATOM      4  N   UNL     1      -2.154   1.294   1.149  0.00  0.00    -0.206 N 
ATOM      5  C   UNL     1      -2.785   1.036  -0.025  0.00  0.00    +0.236 A 
ATOM      6  N   UNL     1      -4.042   0.825   0.249  0.00  0.00    -0.092 NA
ATOM      7  N   UNL     1      -4.247   0.935   1.517  0.00  0.00    -0.021 NA
ATOM      8  N   UNL     1      -3.143   1.220   2.129  0.00  0.00    -0.042 NA
ATOM      9  N   UNL     1      -2.115   1.026  -1.240  0.00  0.00    -0.305 N 
ATOM     10  H   UNL     1      -2.519   0.667  -2.045  0.00  0.00    +0.150 HD
ENDROOT
BRANCH   3  11
ATOM     11  C   UNL     1      -0.175   0.864   2.478  0.00  0.00    -0.005 A 
ATOM     12  C   UNL     1      -0.265  -0.512   2.567  0.00  0.00    +0.007 A 
ATOM     13  C   UNL     1       0.247  -1.169   3.670  0.00  0.00    +0.000 A 
ATOM     14  C   UNL     1       0.840  -0.448   4.691  0.00  0.00    +0.001 A 
ATOM     15  C   UNL     1       0.926   0.928   4.605  0.00  0.00    +0.020 A 
ATOM     16  C   UNL     1       0.418   1.586   3.498  0.00  0.00    +0.046 A 
ATOM     17 CL   UNL     1       0.526   3.315   3.390  0.00  0.00    -0.083 Cl
ENDBRANCH   3  11
BRANCH   1  21
ATOM     18  C   UNL     1      -0.973   5.857  -1.134  0.00  0.00    +0.000 A 
ATOM     19  C   UNL     1      -0.016   5.233  -1.912  0.00  0.00    +0.000 A 
ATOM     20  C   UNL     1       0.056   3.853  -1.945  0.00  0.00    +0.005 A 
ATOM     21  C   UNL     1      -0.830   3.097  -1.200  0.00  0.00    -0.027 A 
ATOM     22  C   UNL     1      -1.790   3.721  -0.426  0.00  0.00    +0.005 A 
ATOM     23  C   UNL     1      -1.859   5.101  -0.390  0.00  0.00    +0.000 A 
ENDBRANCH   1  21
TORSDOF 2
