REMARK  Name = ZINC23362627
REMARK  9 active torsions:
REMARK  status: ('A' for Active; 'I' for Inactive)
REMARK    1  A    between atoms: C_1  and  N_2
REMARK    2  A    between atoms: C_3  and  C_5
REMARK    3  A    between atoms: C_8  and  N_21
REMARK    4  A    between atoms: N_11  and  C_12
REMARK    5  A    between atoms: N_21  and  C_22
REMARK    6  A    between atoms: C_22  and  C_23
REMARK    7  A    between atoms: C_27  and  O_29
REMARK    8  A    between atoms: O_29  and  C_30
REMARK    9  A    between atoms: C_30  and  C_31
REMARK                            x       y       z     vdW  Elec       q    Type
REMARK                         _______ _______ _______ _____ _____    ______ ____
ROOT
ATOM      1  C   UNL     1      -1.157  -2.196  -0.138  0.00  0.00    +0.142 C 
ATOM      2  C   UNL     1      -0.684  -2.789  -1.482  0.00  0.00    +0.014 C 
ATOM      3  C   UNL     1      -1.562  -4.060  -1.630  0.00  0.00    -0.055 C 
ATOM      4  C   UNL     1      -2.901  -3.590  -1.011  0.00  0.00    +0.070 C 
ATOM      5  N   UNL     1      -2.509  -2.722   0.124  0.00  0.00    -0.289 NA
ENDROOT
BRANCH   5   6
ATOM      6  C   UNL     1      -3.472  -1.628   0.309  0.00  0.00    +0.066 C 
ATOM      7  C   UNL     1      -3.181  -0.855   1.614  0.00  0.00    +0.054 C 
ATOM      8  C   UNL     1      -4.540  -0.459   2.151  0.00  0.00    -0.043 A 
ATOM      9  C   UNL     1      -4.889   0.493   3.093  0.00  0.00    +0.004 A 
ATOM     10  C   UNL     1      -6.215   0.683   3.431  0.00  0.00    +0.000 A 
ATOM     11  C   UNL     1      -7.197  -0.079   2.827  0.00  0.00    +0.000 A 
ATOM     12  C   UNL     1      -6.851  -1.030   1.887  0.00  0.00    +0.004 A 
ATOM     13  C   UNL     1      -5.522  -1.222   1.547  0.00  0.00    -0.043 A 
ATOM     14  C   UNL     1      -4.890  -2.183   0.562  0.00  0.00    +0.054 C 
ENDBRANCH   5   6
BRANCH   1  17
ATOM     15  C   UNL     1      -0.505   1.517   0.531  0.00  0.00    +0.128 C 
ATOM     16  N   UNL     1      -0.463   0.055   0.618  0.00  0.00    -0.317 N 
ATOM     17  C   UNL     1      -1.200  -0.692  -0.228  0.00  0.00    +0.230 C 
ATOM     18  O   UNL     1      -1.897  -0.154  -1.062  0.00  0.00    -0.274 OA
ATOM     19  H   UNL     1       0.095  -0.375   1.285  0.00  0.00    +0.148 HD
ENDBRANCH   1  17
BRANCH   3  20
ATOM     20  N   UNL     1      -1.732  -4.419  -3.045  0.00  0.00    +0.384 N 
ATOM     21  H   UNL     1      -2.252  -3.694  -3.515  0.00  0.00    -0.085 HD
ATOM     22  H   UNL     1      -0.827  -4.519  -3.478  0.00  0.00    -0.085 HD
BRANCH  20  23
ATOM     23  C   UNL     1      -2.464  -5.689  -3.143  0.00  0.00    -0.046 C 
BRANCH  23  24
ATOM     24  C   UNL     1      -2.639  -6.057  -4.593  0.00  0.00    -0.061 A 
ATOM     25  C   UNL     1      -3.754  -5.621  -5.287  0.00  0.00    +0.002 A 
ATOM     26  C   UNL     1      -3.917  -5.957  -6.618  0.00  0.00    +0.004 A 
ATOM     27  C   UNL     1      -2.968  -6.730  -7.258  0.00  0.00    +0.045 A 
ATOM     28  C   UNL     1      -1.849  -7.168  -6.565  0.00  0.00    +0.121 A 
ATOM     29  C   UNL     1      -1.684  -6.825  -5.231  0.00  0.00    +0.047 A 
BRANCH  28  30
ATOM     30  O   UNL     1      -0.914  -7.929  -7.192  0.00  0.00    -0.487 OA
BRANCH  30  31
ATOM     31  C   UNL     1      -1.146  -8.239  -8.568  0.00  0.00    +0.264 C 
BRANCH  31  32
ATOM     32  C   UNL     1      -0.012  -9.083  -9.091  0.00  0.00    -0.010 A 
ATOM     33  C   UNL     1       1.099  -8.478  -9.649  0.00  0.00    +0.007 A 
ATOM     34  C   UNL     1       2.139  -9.252 -10.129  0.00  0.00    +0.000 A 
ATOM     35  C   UNL     1       2.068 -10.631 -10.050  0.00  0.00    +0.000 A 
ATOM     36  C   UNL     1       0.957 -11.235  -9.492  0.00  0.00    +0.000 A 
ATOM     37  C   UNL     1      -0.081 -10.461  -9.008  0.00  0.00    +0.007 A 
ENDBRANCH  31  32
ENDBRANCH  30  31
ENDBRANCH  28  30
ENDBRANCH  23  24
ENDBRANCH  20  23
ENDBRANCH   3  20
TORSDOF 8
