REMARK  Name = ZINC36024788
REMARK  7 active torsions:
REMARK  status: ('A' for Active; 'I' for Inactive)
REMARK    1  A    between atoms: C_1  and  C_2
REMARK    2  A    between atoms: C_2  and  C_3
REMARK    3  A    between atoms: C_3  and  N_4
REMARK    4  A    between atoms: C_14  and  C_25
REMARK    5  A    between atoms: N_18  and  C_19
REMARK    6  A    between atoms: C_19  and  C_20
REMARK    7  A    between atoms: C_25  and  C_26
REMARK                            x       y       z     vdW  Elec       q    Type
REMARK                         _______ _______ _______ _____ _____    ______ ____
ROOT
ATOM      1  N   UNL     1       1.927  -1.951  -3.340  0.00  0.00    -0.299 N 
ATOM      2  C   UNL     1       1.364  -2.626  -2.319  0.00  0.00    +0.302 C 
ATOM      3  O   UNL     1       0.931  -2.022  -1.356  0.00  0.00    -0.253 OA
ATOM      4  N   UNL     1       1.280  -3.970  -2.365  0.00  0.00    -0.286 N 
ATOM      5  C   UNL     1       0.564  -4.712  -1.317  0.00  0.00    +0.109 C 
ATOM      6  C   UNL     1       1.502  -5.778  -0.741  0.00  0.00    +0.025 C 
ATOM      7  C   UNL     1       2.044  -6.644  -1.876  0.00  0.00    +0.007 C 
ATOM      8  C   UNL     1       2.828  -5.788  -2.869  0.00  0.00    +0.025 C 
ATOM      9  C   UNL     1       1.897  -4.721  -3.466  0.00  0.00    +0.109 C 
ATOM     10  N   UNL     1       2.921  -7.699  -1.324  0.00  0.00    +0.401 N 
ATOM     11  C   UNL     1       1.993  -8.839  -1.131  0.00  0.00    +0.023 C 
ATOM     12  C   UNL     1       0.888  -8.614  -2.140  0.00  0.00    +0.201 C 
ATOM     13  O   UNL     1       0.087  -9.446  -2.511  0.00  0.00    -0.277 OA
ATOM     14  N   UNL     1       0.945  -7.332  -2.558  0.00  0.00    -0.306 N 
ATOM     15  H   UNL     1       2.337  -2.434  -4.074  0.00  0.00    +0.150 HD
ATOM     16  H   UNL     1       3.647  -7.938  -1.982  0.00  0.00    -0.082 HD
ATOM     17  H   UNL     1       3.317  -7.408  -0.443  0.00  0.00    -0.082 HD
ENDROOT
BRANCH   1  18
ATOM     18  C   UNL     1       1.921  -0.486  -3.341  0.00  0.00    +0.105 C 
BRANCH  18  20
ATOM     19  C   UNL     1       2.611   1.556  -4.605  0.00  0.00    +0.005 C 
ATOM     20  C   UNL     1       2.618   0.026  -4.603  0.00  0.00    +0.015 C 
ENDBRANCH  18  20
ENDBRANCH   1  18
BRANCH  14  21
ATOM     21  C   UNL     1       0.045  -6.723  -3.541  0.00  0.00    +0.180 C 
BRANCH  21  22
ATOM     22  C   UNL     1       0.568  -6.985  -4.930  0.00  0.00    +0.122 A 
ATOM     23  C   UNL     1       0.334  -8.088  -5.663  0.00  0.00    +0.046 A 
ATOM     24  C   UNL     1       1.011  -7.913  -6.892  0.00  0.00    +0.041 A 
ATOM     25  C   UNL     1       1.617  -6.714  -6.837  0.00  0.00    +0.195 A 
ATOM     26  O   UNL     1       1.340  -6.153  -5.648  0.00  0.00    -0.466 OA
ENDBRANCH  21  22
ENDBRANCH  14  21
BRANCH  11  27
ATOM     27  C   UNL     1       2.710 -10.162  -1.408  0.00  0.00    +0.028 C 
BRANCH  27  28
ATOM     28  C   UNL     1       3.798 -10.368  -0.386  0.00  0.00    -0.048 A 
ATOM     29  C   UNL     1       5.072  -9.887  -0.625  0.00  0.00    +0.003 A 
ATOM     30  C   UNL     1       6.069 -10.076   0.314  0.00  0.00    +0.000 A 
ATOM     31  C   UNL     1       5.793 -10.746   1.491  0.00  0.00    +0.000 A 
ATOM     32  C   UNL     1       4.519 -11.226   1.730  0.00  0.00    +0.000 A 
ATOM     33  C   UNL     1       3.520 -11.033   0.794  0.00  0.00    +0.003 A 
ENDBRANCH  27  28
ENDBRANCH  11  27
TORSDOF 6
