REMARK  Name = ZINC36358997
REMARK  6 active torsions:
REMARK  status: ('A' for Active; 'I' for Inactive)
REMARK    1  A    between atoms: C_1  and  O_2
REMARK    2  A    between atoms: O_2  and  C_3
REMARK    3  A    between atoms: C_8  and  C_9
REMARK    4  A    between atoms: C_9  and  C_10
REMARK    5  A    between atoms: C_10  and  N_11
REMARK    6  A    between atoms: C_12  and  O_30
REMARK                            x       y       z     vdW  Elec       q    Type
REMARK                         _______ _______ _______ _____ _____    ______ ____
ROOT
ATOM      1  N   UNL     1       1.768  -3.786   1.403  0.00  0.00    -0.267 N 
ATOM      2  C   UNL     1       1.728  -5.149   1.493  0.00  0.00    +0.192 C 
ATOM      3  C   UNL     1       2.795  -5.780   2.152  0.00  0.00    +0.055 A 
ATOM      4  C   UNL     1       2.792  -7.158   2.421  0.00  0.00    +0.015 A 
ATOM      5  C   UNL     1       3.811  -7.700   3.144  0.00  0.00    +0.001 A 
ATOM      6  C   UNL     1       4.866  -6.923   3.618  0.00  0.00    +0.002 A 
ATOM      7  C   UNL     1       4.948  -5.590   3.359  0.00  0.00    +0.026 A 
ATOM      8  C   UNL     1       3.945  -4.972   2.583  0.00  0.00    +0.050 A 
ATOM      9  N   UNL     1       4.042  -3.708   2.205  0.00  0.00    -0.352 N 
ATOM     10  C   UNL     1       3.065  -3.121   1.285  0.00  0.00    +0.215 C 
ATOM     11  C   UNL     1       3.561  -3.175  -0.127  0.00  0.00    +0.026 A 
ATOM     12  C   UNL     1       3.883  -4.241  -0.939  0.00  0.00    +0.010 A 
ATOM     13  C   UNL     1       4.323  -3.944  -2.225  0.00  0.00    +0.001 A 
ATOM     14  C   UNL     1       4.429  -2.639  -2.663  0.00  0.00    +0.002 A 
ATOM     15  C   UNL     1       4.107  -1.563  -1.852  0.00  0.00    +0.024 A 
ATOM     16  C   UNL     1       3.664  -1.848  -0.559  0.00  0.00    +0.041 A 
ATOM     17  N   UNL     1       3.280  -0.983   0.450  0.00  0.00    -0.281 N 
ATOM     18  C   UNL     1       2.912  -1.641   1.568  0.00  0.00    +0.266 C 
ATOM     19  O   UNL     1       2.531  -1.141   2.606  0.00  0.00    -0.271 OA
ATOM     20  H   UNL     1       3.276  -0.016   0.363  0.00  0.00    +0.155 HD
ATOM     21  H   UNL     1       4.772  -3.164   2.540  0.00  0.00    +0.162 HD
ENDROOT
BRANCH   2  22
ATOM     22  O   UNL     1       0.709  -5.857   0.973  0.00  0.00    -0.495 OA
ATOM     23  H   UNL     1       0.789  -6.812   1.098  0.00  0.00    +0.293 HD
ENDBRANCH   2  22
BRANCH   1  24
ATOM     24  C   UNL     1       0.530  -3.003   1.419  0.00  0.00    +0.116 C 
BRANCH  24  25
ATOM     25  C   UNL     1       0.018  -2.829  -0.013  0.00  0.00    +0.058 C 
BRANCH  25  31
ATOM     26  C   UNL     1      -1.200  -0.637   0.010  0.00  0.00    +0.123 A 
ATOM     27  C   UNL     1      -2.375   0.101   0.019  0.00  0.00    +0.046 A 
ATOM     28  C   UNL     1      -3.596  -0.545   0.027  0.00  0.00    +0.004 A 
ATOM     29  C   UNL     1      -3.648  -1.927   0.026  0.00  0.00    +0.000 A 
ATOM     30  C   UNL     1      -2.479  -2.665   0.017  0.00  0.00    +0.007 A 
ATOM     31  C   UNL     1      -1.255  -2.023   0.003  0.00  0.00    -0.004 A 
BRANCH  26  33
ATOM     32  C   UNL     1      -0.017   1.425   0.010  0.00  0.00    +0.277 C 
ATOM     33  O   UNL     1       0.002  -0.004   0.002  0.00  0.00    -0.495 OA
ENDBRANCH  26  33
ENDBRANCH  25  31
ENDBRANCH  24  25
ENDBRANCH   1  24
TORSDOF 5
