REMARK  Name = ZINC38827775
REMARK  14 active torsions:
REMARK  status: ('A' for Active; 'I' for Inactive)
REMARK    1  A    between atoms: C_1  and  C_2
REMARK    2  A    between atoms: C_2  and  N_3
REMARK    3  A    between atoms: N_3  and  C_4
REMARK    4  A    between atoms: N_3  and  C_6
REMARK    5  A    between atoms: C_4  and  C_5
REMARK    6  A    between atoms: C_6  and  C_7
REMARK    7  A    between atoms: C_7  and  N_8
REMARK    8  A    between atoms: C_13  and  C_19
REMARK    9  A    between atoms: C_15  and  C_18
REMARK   10  A    between atoms: C_20  and  C_22
REMARK   11  A    between atoms: C_22  and  C_23
REMARK   12  A    between atoms: C_23  and  C_24
REMARK   13  A    between atoms: C_24  and  S_25
REMARK   14  A    between atoms: S_25  and  C_28
REMARK                            x       y       z     vdW  Elec       q    Type
REMARK                         _______ _______ _______ _____ _____    ______ ____
ROOT
ATOM      1  N   UNL     1      -1.382  -3.580  -1.830  0.00  0.00    -0.252 N 
ATOM      2  C   UNL     1      -1.542  -4.435  -0.752  0.00  0.00    +0.168 A 
ATOM      3  N   UNL     1      -1.529  -4.155   0.530  0.00  0.00    -0.224 NA
ATOM      4  C   UNL     1      -1.700  -5.098   1.482  0.00  0.00    +0.081 A 
ATOM      5  C   UNL     1      -1.707  -4.931   2.886  0.00  0.00    +0.032 A 
ATOM      6  C   UNL     1      -1.895  -6.004   3.718  0.00  0.00    -0.048 A 
ATOM      7  C   UNL     1      -2.086  -7.284   3.218  0.00  0.00    +0.008 A 
ATOM      8  C   UNL     1      -2.085  -7.484   1.850  0.00  0.00    -0.034 A 
ATOM      9  C   UNL     1      -1.897  -6.416   1.009  0.00  0.00    +0.044 A 
ATOM     10  S   UNL     1      -1.829  -6.199  -0.753  0.00  0.00    -0.052 S 
ATOM     11  C   UNL     1      -2.289  -8.867   1.286  0.00  0.00    +0.045 C 
ATOM     12  C   UNL     1      -1.896  -5.788   5.209  0.00  0.00    +0.044 C 
ATOM     13  C   UNL     1      -1.435  -4.063  -3.087  0.00  0.00    +0.221 C 
ATOM     14  O   UNL     1      -1.623  -5.247  -3.274  0.00  0.00    -0.275 OA
ENDROOT
BRANCH   1  15
ATOM     15  C   UNL     1      -1.155  -2.151  -1.603  0.00  0.00    +0.097 C 
BRANCH  15  16
ATOM     16  C   UNL     1       0.348  -1.884  -1.496  0.00  0.00    -0.059 C 
BRANCH  16  17
ATOM     17  N   UNL     1       0.576  -0.451  -1.269  0.00  0.00    +0.380 N 
ATOM     18  H   UNL     1       0.124   0.081  -1.998  0.00  0.00    -0.082 HD
BRANCH  17  20
ATOM     19  C   UNL     1       0.128   1.449   0.210  0.00  0.00    -0.017 C 
ATOM     20  C   UNL     1       0.019  -0.067   0.035  0.00  0.00    -0.082 C 
ENDBRANCH  17  20
BRANCH  17  21
ATOM     21  C   UNL     1       2.019  -0.176  -1.285  0.00  0.00    -0.082 C 
ATOM     22  C   UNL     1       2.573  -0.440  -2.687  0.00  0.00    -0.017 C 
ENDBRANCH  17  21
ENDBRANCH  16  17
ENDBRANCH  15  16
ENDBRANCH   1  15
BRANCH  13  23
ATOM     23  C   UNL     1      -1.260  -3.133  -4.260  0.00  0.00    +0.098 C 
BRANCH  23  24
ATOM     24  C   UNL     1      -1.363  -3.930  -5.562  0.00  0.00    +0.032 C 
BRANCH  24  25
ATOM     25  C   UNL     1      -1.186  -2.985  -6.753  0.00  0.00    +0.172 C 
BRANCH  25  26
ATOM     26  S   UNL     1      -1.308  -3.929  -8.297  0.00  0.00    -0.003 S 
ATOM     27  O   UNL     1      -0.196  -4.806  -8.424  0.00  0.00    -0.169 OA
ATOM     28  O   UNL     1      -2.633  -4.410  -8.473  0.00  0.00    -0.169 OA
BRANCH  26  29
ATOM     29  C   UNL     1      -1.088  -2.737  -9.575  0.00  0.00    +0.088 A 
ATOM     30  C   UNL     1      -2.183  -2.074 -10.097  0.00  0.00    +0.028 A 
ATOM     31  C   UNL     1      -2.012  -1.138 -11.100  0.00  0.00    +0.022 A 
ATOM     32  C   UNL     1      -0.744  -0.866 -11.582  0.00  0.00    +0.041 A 
ATOM     33  C   UNL     1       0.352  -1.530 -11.059  0.00  0.00    +0.022 A 
ATOM     34  C   UNL     1       0.179  -2.461 -10.053  0.00  0.00    +0.028 A 
ATOM     35 CL   UNL     1      -0.528   0.309 -12.842  0.00  0.00    -0.084 Cl
ENDBRANCH  26  29
ENDBRANCH  25  26
ENDBRANCH  24  25
ENDBRANCH  23  24
ENDBRANCH  13  23
TORSDOF 10
