REMARK  Name = ZINC39685065
REMARK  8 active torsions:
REMARK  status: ('A' for Active; 'I' for Inactive)
REMARK    1  A    between atoms: C_5  and  O_7
REMARK    2  A    between atoms: O_7  and  C_8
REMARK    3  A    between atoms: C_8  and  C_9
REMARK    4  A    between atoms: C_9  and  N_10
REMARK    5  A    between atoms: C_11  and  C_13
REMARK    6  A    between atoms: C_24  and  C_26
REMARK    7  A    between atoms: C_29  and  O_32
REMARK    8  A    between atoms: O_32  and  C_33
REMARK                            x       y       z     vdW  Elec       q    Type
REMARK                         _______ _______ _______ _____ _____    ______ ____
ROOT
ATOM      1  C   UNL     1       2.200  -6.296   2.124  0.00  0.00    +0.100 C 
ATOM      2  C   UNL     1       3.570  -5.700   2.519  0.00  0.00    +0.121 C 
ATOM      3  N   UNL     1       4.278  -6.809   3.201  0.00  0.00    -0.296 N 
ATOM      4  C   UNL     1       3.921  -8.014   2.415  0.00  0.00    +0.115 C 
ATOM      5  C   UNL     1       2.435  -7.815   2.056  0.00  0.00    -0.004 C 
ATOM      6  C   UNL     1       2.160  -8.329   0.646  0.00  0.00    -0.010 C 
ATOM      7  C   UNL     1       2.344  -9.849   0.617  0.00  0.00    -0.082 C 
ATOM      8  N   UNL     1       1.424 -10.473   1.576  0.00  0.00    +0.379 N 
ATOM      9  C   UNL     1       1.756 -10.044   2.940  0.00  0.00    -0.082 C 
ATOM     10  C   UNL     1       1.547  -8.533   3.067  0.00  0.00    -0.010 C 
ATOM     11  C   UNL     1       5.068  -6.737   4.291  0.00  0.00    +0.247 C 
ATOM     12  O   UNL     1       5.164  -5.693   4.905  0.00  0.00    -0.270 OA
ATOM     13  H   UNL     1       0.477 -10.199   1.359  0.00  0.00    -0.086 HD
ATOM     14  H   UNL     1       1.503 -11.477   1.512  0.00  0.00    -0.086 HD
ENDROOT
BRANCH  11  15
ATOM     15  C   UNL     1       5.817  -7.928   4.739  0.00  0.00    +0.037 A 
ATOM     16  C   UNL     1       6.071  -8.973   3.846  0.00  0.00    +0.016 A 
ATOM     17  C   UNL     1       6.770 -10.081   4.268  0.00  0.00    +0.047 A 
ATOM     18  C   UNL     1       7.222 -10.163   5.579  0.00  0.00    +0.130 A 
ATOM     19  C   UNL     1       6.971  -9.126   6.471  0.00  0.00    +0.047 A 
ATOM     20  C   UNL     1       6.278  -8.011   6.055  0.00  0.00    +0.016 A 
BRANCH  18  21
ATOM     21  O   UNL     1       7.910 -11.258   5.991  0.00  0.00    -0.406 OA
BRANCH  21  22
ATOM     22  C   UNL     1       8.346 -11.276   7.352  0.00  0.00    +0.575 C 
ATOM     23  F   UNL     1       7.235 -11.190   8.198  0.00  0.00    -0.133 F 
ATOM     24  F   UNL     1       9.034 -12.468   7.606  0.00  0.00    -0.133 F 
ATOM     25  F   UNL     1       9.195 -10.189   7.585  0.00  0.00    -0.133 F 
ENDBRANCH  21  22
ENDBRANCH  18  21
ENDBRANCH  11  15
BRANCH   1  27
ATOM     26  N   UNL     1       0.456  -5.637   0.498  0.00  0.00    -0.312 N 
ATOM     27  C   UNL     1       1.768  -5.771   0.779  0.00  0.00    +0.218 C 
ATOM     28  O   UNL     1       2.599  -5.470  -0.050  0.00  0.00    -0.275 OA
ATOM     29  H   UNL     1      -0.209  -5.878   1.162  0.00  0.00    +0.149 HD
BRANCH  26  30
ATOM     30  C   UNL     1       0.036  -5.127  -0.809  0.00  0.00    +0.145 C 
BRANCH  30  31
ATOM     31  C   UNL     1      -1.492  -5.073  -0.868  0.00  0.00    +0.248 C 
BRANCH  31  32
ATOM     32  O   UNL     1      -1.972  -4.120   0.083  0.00  0.00    -0.488 OA
BRANCH  32  37
ATOM     33  C   UNL     1      -5.528  -4.506  -0.585  0.00  0.00    +0.004 A 
ATOM     34  C   UNL     1      -6.060  -3.600   0.313  0.00  0.00    +0.003 A 
ATOM     35  C   UNL     1      -5.225  -2.866   1.135  0.00  0.00    +0.042 A 
ATOM     36  C   UNL     1      -3.855  -3.038   1.061  0.00  0.00    +0.165 A 
ATOM     37  C   UNL     1      -3.319  -3.948   0.159  0.00  0.00    +0.156 A 
ATOM     38  C   UNL     1      -4.160  -4.682  -0.664  0.00  0.00    +0.048 A 
ATOM     39  F   UNL     1      -3.038  -2.321   1.863  0.00  0.00    -0.202 F 
ENDBRANCH  32  37
ENDBRANCH  31  32
ENDBRANCH  30  31
ENDBRANCH  26  30
ENDBRANCH   1  27
TORSDOF 8
