REMARK  Name = ZINC13776503
REMARK  5 active torsions:
REMARK  status: ('A' for Active; 'I' for Inactive)
REMARK    1  A    between atoms: C_4  and  C_7
REMARK    2  A    between atoms: C_7  and  N_8
REMARK    3  A    between atoms: C_13  and  C_27
REMARK    4  A    between atoms: N_15  and  C_21
REMARK    5  A    between atoms: C_30  and  C_32
REMARK                            x       y       z     vdW  Elec       q    Type
REMARK                         _______ _______ _______ _____ _____    ______ ____
ROOT
ATOM      1  N   UNL     1       4.148  -0.950   1.349  0.00  0.00    -0.235 N 
ATOM      2  C   UNL     1       4.822  -0.084   2.114  0.00  0.00    +0.231 C 
ATOM      3  O   UNL     1       5.170   1.027   1.776  0.00  0.00    -0.275 OA
ATOM      4  C   UNL     1       5.083  -0.707   3.466  0.00  0.00    +0.148 C 
ATOM      5  C   UNL     1       6.597  -0.972   3.625  0.00  0.00    +0.193 C 
ATOM      6  N   UNL     1       6.635  -2.373   4.111  0.00  0.00    -0.241 N 
ATOM      7  O   UNL     1       5.600  -3.033   3.381  0.00  0.00    -0.257 OA
ATOM      8  C   UNL     1       4.461  -2.124   3.336  0.00  0.00    +0.249 C 
ATOM      9  C   UNL     1       3.880  -2.120   1.938  0.00  0.00    +0.254 C 
ATOM     10  O   UNL     1       3.269  -3.036   1.431  0.00  0.00    -0.272 OA
ENDROOT
BRANCH   6  11
ATOM     11  C   UNL     1       7.491  -2.923   5.067  0.00  0.00    +0.065 A 
ATOM     12  C   UNL     1       6.968  -3.571   6.179  0.00  0.00    +0.028 A 
ATOM     13  C   UNL     1       7.817  -4.114   7.123  0.00  0.00    +0.002 A 
ATOM     14  C   UNL     1       9.187  -4.014   6.962  0.00  0.00    +0.000 A 
ATOM     15  C   UNL     1       9.711  -3.370   5.856  0.00  0.00    +0.002 A 
ATOM     16  C   UNL     1       8.867  -2.829   4.906  0.00  0.00    +0.028 A 
ENDBRANCH   6  11
BRANCH   5  17
ATOM     17  C   UNL     1       7.200  -0.034   4.639  0.00  0.00    +0.131 A 
ATOM     18  C   UNL     1       7.975   1.032   4.361  0.00  0.00    +0.047 A 
ATOM     19  C   UNL     1       8.319   1.626   5.592  0.00  0.00    +0.050 A 
ATOM     20  C   UNL     1       7.728   0.881   6.564  0.00  0.00    +0.135 A 
ATOM     21  O   UNL     1       7.049  -0.119   5.971  0.00  0.00    -0.458 OA
BRANCH  20  22
ATOM     22  C   UNL     1       7.813   1.129   8.018  0.00  0.00    +0.019 A 
ATOM     23  C   UNL     1       8.546   2.214   8.503  0.00  0.00    +0.013 A 
ATOM     24  C   UNL     1       8.621   2.442   9.861  0.00  0.00    +0.022 A 
ATOM     25  C   UNL     1       7.972   1.596  10.745  0.00  0.00    +0.059 A 
ATOM     26  C   UNL     1       7.242   0.518  10.271  0.00  0.00    +0.060 A 
ATOM     27  C   UNL     1       7.155   0.283   8.913  0.00  0.00    +0.033 A 
ATOM     28 CL   UNL     1       6.432  -0.537  11.386  0.00  0.00    -0.082 Cl
ATOM     29 CL   UNL     1       8.072   1.889  12.453  0.00  0.00    -0.082 Cl
ENDBRANCH  20  22
ENDBRANCH   5  17
BRANCH   1  30
ATOM     30  C   UNL     1       3.731  -0.639  -0.021  0.00  0.00    +0.151 C 
BRANCH  30  34
ATOM     31  C   UNL     1      -0.143   1.159   0.040  0.00  0.00    +0.000 A 
ATOM     32  C   UNL     1       0.987   1.950   0.123  0.00  0.00    +0.000 A 
ATOM     33  C   UNL     1       2.241   1.368   0.104  0.00  0.00    +0.005 A 
ATOM     34  C   UNL     1       2.364  -0.005   0.001  0.00  0.00    -0.030 A 
ATOM     35  C   UNL     1       1.234  -0.796  -0.082  0.00  0.00    +0.005 A 
ATOM     36  C   UNL     1      -0.020  -0.214  -0.063  0.00  0.00    +0.000 A 
ENDBRANCH  30  34
ENDBRANCH   1  30
TORSDOF 5
