REMARK  Name = ZINC33437545
REMARK  8 active torsions:
REMARK  status: ('A' for Active; 'I' for Inactive)
REMARK    1  A    between atoms: C_1  and  C_2
REMARK    2  A    between atoms: C_2  and  S_3
REMARK    3  A    between atoms: S_3  and  C_4
REMARK    4  A    between atoms: C_10  and  C_12
REMARK    5  A    between atoms: C_12  and  S_13
REMARK    6  A    between atoms: S_13  and  C_14
REMARK    7  A    between atoms: N_28  and  C_29
REMARK    8  A    between atoms: C_32  and  C_35
REMARK                            x       y       z     vdW  Elec       q    Type
REMARK                         _______ _______ _______ _____ _____    ______ ____
ROOT
ATOM      1  C   UNL     1      -0.548  -7.034  -0.528  0.00  0.00    +0.177 A 
ATOM      2  N   UNL     1       0.740  -7.290  -0.563  0.00  0.00    -0.221 NA
ATOM      3  C   UNL     1       1.230  -8.449  -0.095  0.00  0.00    +0.104 A 
ATOM      4  C   UNL     1       2.584  -9.012   0.005  0.00  0.00    +0.026 A 
ATOM      5  C   UNL     1       3.849  -8.540  -0.346  0.00  0.00    +0.012 A 
ATOM      6  C   UNL     1       4.952  -9.316  -0.122  0.00  0.00    +0.001 A 
ATOM      7  C   UNL     1       4.823 -10.572   0.452  0.00  0.00    +0.002 A 
ATOM      8  C   UNL     1       3.584 -11.058   0.806  0.00  0.00    +0.026 A 
ATOM      9  C   UNL     1       2.446 -10.284   0.588  0.00  0.00    +0.049 A 
ATOM     10  N   UNL     1       1.108 -10.504   0.835  0.00  0.00    -0.349 N 
ATOM     11  H   UNL     1       0.782 -11.449   1.292  0.00  0.00    +0.166 HD
ATOM     12  C   UNL     1       0.363  -9.408   0.429  0.00  0.00    +0.132 A 
ATOM     13  C   UNL     1      -1.018  -9.123   0.456  0.00  0.00    +0.283 A 
ATOM     14  O   UNL     1      -1.812  -9.933   0.906  0.00  0.00    -0.265 OA
ATOM     15  N   UNL     1      -1.444  -7.936  -0.026  0.00  0.00    -0.254 N 
ENDROOT
BRANCH  15  16
ATOM     16  C   UNL     1      -2.810  -7.627  -0.011  0.00  0.00    +0.052 A 
ATOM     17  C   UNL     1      -3.610  -7.958  -1.097  0.00  0.00    +0.026 A 
ATOM     18  C   UNL     1      -4.957  -7.656  -1.077  0.00  0.00    +0.005 A 
ATOM     19  C   UNL     1      -5.508  -7.017   0.018  0.00  0.00    -0.050 A 
ATOM     20  C   UNL     1      -4.713  -6.681   1.099  0.00  0.00    +0.005 A 
ATOM     21  C   UNL     1      -3.366  -6.984   1.087  0.00  0.00    +0.026 A 
ATOM     22  C   UNL     1      -6.978  -6.684   0.034  0.00  0.00    +0.044 C 
ENDBRANCH  15  16
BRANCH   1  23
ATOM     23  S   UNL     1      -1.137  -5.494  -1.149  0.00  0.00    -0.078 S 
BRANCH  23  24
ATOM     24  C   UNL     1       0.429  -4.742  -1.659  0.00  0.00    +0.173 C 
BRANCH  24  31
ATOM     25  C   UNL     1       0.850   1.071  -4.300  0.00  0.00    +0.160 A 
ATOM     26  N   UNL     1      -0.242   0.439  -3.896  0.00  0.00    -0.133 NA
ATOM     27  N   UNL     1      -0.195  -0.715  -3.387  0.00  0.00    -0.125 NA
ATOM     28  C   UNL     1       0.946  -1.363  -3.225  0.00  0.00    +0.189 A 
ATOM     29  S   UNL     1       2.088  -0.156  -3.890  0.00  0.00    -0.024 S 
ATOM     30  N   UNL     1       1.190  -2.626  -2.688  0.00  0.00    -0.263 N 
ATOM     31  C   UNL     1       0.165  -3.376  -2.239  0.00  0.00    +0.229 C 
ATOM     32  O   UNL     1      -0.970  -2.953  -2.302  0.00  0.00    -0.275 OA
ATOM     33  H   UNL     1       2.219  -3.010  -2.632  0.00  0.00    +0.157 HD
BRANCH  25  34
ATOM     34  S   UNL     1       1.031   2.664  -5.031  0.00  0.00    -0.097 S 
BRANCH  34  36
ATOM     35  C   UNL     1      -0.653   4.696  -5.750  0.00  0.00    +0.016 C 
ATOM     36  C   UNL     1      -0.665   3.299  -5.125  0.00  0.00    +0.073 C 
ENDBRANCH  34  36
ENDBRANCH  25  34
ENDBRANCH  24  31
ENDBRANCH  23  24
ENDBRANCH   1  23
TORSDOF 6
