REMARK  Name = ZINC10659918
REMARK  9 active torsions:
REMARK  status: ('A' for Active; 'I' for Inactive)
REMARK    1  A    between atoms: C_1  and  C_2
REMARK    2  A    between atoms: C_7  and  N_8
REMARK    3  A    between atoms: C_9  and  C_11
REMARK    4  A    between atoms: C_11  and  N_12
REMARK    5  A    between atoms: C_13  and  C_15
REMARK    6  A    between atoms: C_15  and  O_16
REMARK    7  A    between atoms: O_16  and  C_17
REMARK    8  A    between atoms: C_17  and  C_19
REMARK    9  A    between atoms: C_28  and  O_29
REMARK                            x       y       z     vdW  Elec       q    Type
REMARK                         _______ _______ _______ _____ _____    ______ ____
ROOT
ATOM      1  N   UNL     1       2.407   1.044  -0.032  0.00  0.00    -0.304 N 
ATOM      2  C   UNL     1       3.671   1.511  -0.051  0.00  0.00    +0.251 C 
ATOM      3  O   UNL     1       3.876   2.706  -0.055  0.00  0.00    -0.272 OA
ATOM      4  H   UNL     1       2.243   0.088  -0.029  0.00  0.00    +0.149 HD
ENDROOT
BRANCH   1   5
ATOM      5  C   UNL     1       1.280   1.980  -0.015  0.00  0.00    +0.200 C 
BRANCH   5   7
ATOM      6  N   UNL     1      -1.191   1.867   0.018  0.00  0.00    -0.284 N 
ATOM      7  C   UNL     1      -0.014   1.209   0.005  0.00  0.00    +0.234 C 
ATOM      8  O   UNL     1       0.003  -0.004   0.005  0.00  0.00    -0.274 OA
ATOM      9  H   UNL     1      -1.205   2.833   0.099  0.00  0.00    +0.155 HD
BRANCH   6  16
ATOM     10  C   UNL     1      -3.546   3.040   1.100  0.00  0.00    +0.046 C 
ATOM     11  C   UNL     1      -3.564   1.691   0.428  0.00  0.00    -0.028 A 
ATOM     12  C   UNL     1      -4.749   0.989   0.320  0.00  0.00    +0.020 A 
ATOM     13  C   UNL     1      -4.765  -0.252  -0.291  0.00  0.00    +0.018 A 
ATOM     14  C   UNL     1      -3.597  -0.791  -0.800  0.00  0.00    +0.017 A 
ATOM     15  C   UNL     1      -2.411  -0.091  -0.699  0.00  0.00    +0.024 A 
ATOM     16  C   UNL     1      -2.391   1.155  -0.086  0.00  0.00    +0.036 A 
ATOM     17 BR   UNL     1      -6.387  -1.214  -0.431  0.00  0.00    -0.050 Br
ENDBRANCH   6  16
ENDBRANCH   5   7
ENDBRANCH   1   5
BRANCH   2  18
ATOM     18  C   UNL     1       4.830   0.547  -0.069  0.00  0.00    +0.328 C 
BRANCH  18  19
ATOM     19  O   UNL     1       6.077   1.291  -0.088  0.00  0.00    -0.452 OA
BRANCH  19  20
ATOM     20  C   UNL     1       7.217   0.572  -0.106  0.00  0.00    +0.343 C 
ATOM     21  O   UNL     1       7.170  -0.642  -0.105  0.00  0.00    -0.245 OA
BRANCH  20  22
ATOM     22  C   UNL     1       8.521   1.260  -0.126  0.00  0.00    +0.101 A 
ATOM     23  C   UNL     1       8.569   2.645  -0.127  0.00  0.00    +0.027 A 
ATOM     24  C   UNL     1       9.812   3.293  -0.146  0.00  0.00    -0.017 A 
ATOM     25  C   UNL     1       9.899   4.697  -0.147  0.00  0.00    +0.008 A 
ATOM     26  C   UNL     1      11.120   5.297  -0.166  0.00  0.00    +0.001 A 
ATOM     27  C   UNL     1      12.291   4.541  -0.184  0.00  0.00    +0.001 A 
ATOM     28  C   UNL     1      12.247   3.180  -0.183  0.00  0.00    +0.008 A 
ATOM     29  C   UNL     1      11.004   2.523  -0.164  0.00  0.00    -0.014 A 
ATOM     30  C   UNL     1      10.928   1.121  -0.163  0.00  0.00    +0.054 A 
ATOM     31  C   UNL     1       9.712   0.503  -0.138  0.00  0.00    +0.131 A 
BRANCH  31  32
ATOM     32  O   UNL     1       9.647  -0.852  -0.131  0.00  0.00    -0.506 OA
ATOM     33  H   UNL     1       9.616  -1.249  -1.012  0.00  0.00    +0.292 HD
ENDBRANCH  31  32
ENDBRANCH  20  22
ENDBRANCH  19  20
ENDBRANCH  18  19
ENDBRANCH   2  18
TORSDOF 8
