REMARK  Name = ZINC04477253
REMARK  7 active torsions:
REMARK  status: ('A' for Active; 'I' for Inactive)
REMARK    1  A    between atoms: C_1  and  C_2
REMARK    2  A    between atoms: C_2  and  C_3
REMARK    3  A    between atoms: C_3  and  C_26
REMARK    4  A    between atoms: N_6  and  C_10
REMARK    5  A    between atoms: C_10  and  C_11
REMARK    6  A    between atoms: C_23  and  C_24
REMARK    7  A    between atoms: C_23  and  C_25
REMARK                            x       y       z     vdW  Elec       q    Type
REMARK                         _______ _______ _______ _____ _____    ______ ____
ROOT
ATOM      1  C   UNL     1       1.253   7.263   3.002  0.00  0.00    +0.214 C 
ENDROOT
BRANCH   1   2
ATOM      2  C   UNL     1       2.202   6.356   3.741  0.00  0.00    +0.239 C 
ATOM      3  O   UNL     1       2.364   5.213   3.367  0.00  0.00    -0.273 OA
ATOM      4  N   UNL     1       2.870   6.813   4.818  0.00  0.00    -0.254 N 
ATOM      5  C   UNL     1       2.637   8.103   5.322  0.00  0.00    +0.059 A 
ATOM      6  C   UNL     1       2.231   9.131   4.490  0.00  0.00    +0.025 A 
ATOM      7  C   UNL     1       2.013  10.393   5.016  0.00  0.00    +0.002 A 
ATOM      8  C   UNL     1       2.201  10.626   6.366  0.00  0.00    +0.002 A 
ATOM      9  C   UNL     1       2.606   9.601   7.202  0.00  0.00    +0.025 A 
ATOM     10  C   UNL     1       2.824   8.334   6.685  0.00  0.00    +0.055 A 
ATOM     11  N   UNL     1       3.224   7.282   7.516  0.00  0.00    -0.282 N 
ATOM     12  C   UNL     1       3.701   6.136   6.993  0.00  0.00    +0.241 C 
ATOM     13  O   UNL     1       4.000   5.220   7.730  0.00  0.00    -0.273 OA
ATOM     14  C   UNL     1       3.863   5.976   5.507  0.00  0.00    +0.113 C 
ATOM     15  C   UNL     1       3.650   4.510   5.125  0.00  0.00    +0.042 C 
ATOM     16  C   UNL     1       5.272   6.412   5.101  0.00  0.00    +0.042 C 
ATOM     17  H   UNL     1       3.156   7.378   8.479  0.00  0.00    +0.155 HD
ENDBRANCH   1   2
BRANCH   1  21
ATOM     18  C   UNL     1      -1.353   5.206   1.336  0.00  0.00    +0.138 C 
ATOM     19  C   UNL     1      -0.810   5.957   2.536  0.00  0.00    +0.251 C 
ATOM     20  O   UNL     1      -1.335   6.078   3.622  0.00  0.00    -0.272 OA
ATOM     21  N   UNL     1       0.377   6.460   2.145  0.00  0.00    -0.215 N 
ATOM     22  C   UNL     1       0.657   6.136   0.878  0.00  0.00    +0.310 C 
ATOM     23  O   UNL     1       1.672   6.476   0.302  0.00  0.00    -0.252 OA
ATOM     24  N   UNL     1      -0.310   5.392   0.312  0.00  0.00    -0.281 N 
ATOM     25  H   UNL     1      -0.320   5.044  -0.594  0.00  0.00    +0.152 HD
BRANCH  18  26
ATOM     26  C   UNL     1      -1.525   3.744   1.659  0.00  0.00    -0.015 A 
ATOM     27  C   UNL     1      -0.482   2.862   1.449  0.00  0.00    +0.006 A 
ATOM     28  C   UNL     1      -0.640   1.521   1.744  0.00  0.00    +0.000 A 
ATOM     29  C   UNL     1      -1.841   1.062   2.251  0.00  0.00    +0.000 A 
ATOM     30  C   UNL     1      -2.887   1.944   2.456  0.00  0.00    +0.000 A 
ATOM     31  C   UNL     1      -2.727   3.285   2.165  0.00  0.00    +0.006 A 
ENDBRANCH  18  26
BRANCH  18  33
ATOM     32  C   UNL     1      -2.451   7.262   0.436  0.00  0.00    +0.007 C 
ATOM     33  C   UNL     1      -2.679   5.814   0.875  0.00  0.00    +0.037 C 
ENDBRANCH  18  33
ENDBRANCH   1  21
TORSDOF 4
