REMARK  Name = ZINC33261381
REMARK  11 active torsions:
REMARK  status: ('A' for Active; 'I' for Inactive)
REMARK    1  A    between atoms: C_1  and  C_2
REMARK    2  A    between atoms: C_4  and  C_37
REMARK    3  A    between atoms: C_5  and  N_9
REMARK    4  A    between atoms: C_6  and  C_8
REMARK    5  A    between atoms: C_10  and  C_12
REMARK    6  A    between atoms: C_12  and  C_13
REMARK    7  A    between atoms: C_13  and  C_14
REMARK    8  A    between atoms: C_14  and  N_15
REMARK    9  A    between atoms: C_20  and  C_22
REMARK   10  A    between atoms: N_24  and  C_31
REMARK   11  A    between atoms: C_25  and  N_26
REMARK                            x       y       z     vdW  Elec       q    Type
REMARK                         _______ _______ _______ _____ _____    ______ ____
ROOT
ATOM      1  N   UNL     1       0.485   6.167  -0.230  0.00  0.00    -0.229 N 
ATOM      2  C   UNL     1       1.048   4.966   0.016  0.00  0.00    +0.280 A 
ATOM      3  O   UNL     1       0.360   4.010   0.327  0.00  0.00    -0.265 OA
ATOM      4  C   UNL     1       2.499   4.832  -0.101  0.00  0.00    +0.112 A 
ATOM      5  C   UNL     1       3.269   6.032  -0.474  0.00  0.00    +0.123 A 
ATOM      6  C   UNL     1       2.526   7.274  -0.707  0.00  0.00    +0.086 A 
ATOM      7  N   UNL     1       1.234   7.287  -0.582  0.00  0.00    -0.171 NA
ATOM      8  C   UNL     1       3.260   8.533  -1.092  0.00  0.00    +0.070 C 
ATOM      9  N   UNL     1       4.532   5.679  -0.512  0.00  0.00    -0.162 NA
ATOM     10  N   UNL     1       4.641   4.322  -0.187  0.00  0.00    -0.215 N 
ATOM     11  C   UNL     1       3.416   3.812   0.061  0.00  0.00    +0.154 A 
ENDROOT
BRANCH  10  12
ATOM     12  C   UNL     1       5.840   3.601  -0.128  0.00  0.00    +0.068 A 
ATOM     13  C   UNL     1       6.006   2.601   0.821  0.00  0.00    +0.028 A 
ATOM     14  C   UNL     1       7.188   1.889   0.873  0.00  0.00    +0.002 A 
ATOM     15  C   UNL     1       8.211   2.179  -0.011  0.00  0.00    +0.000 A 
ATOM     16  C   UNL     1       8.051   3.178  -0.954  0.00  0.00    +0.002 A 
ATOM     17  C   UNL     1       6.870   3.889  -1.015  0.00  0.00    +0.028 A 
ENDBRANCH  10  12
BRANCH  11  18
ATOM     18  N   UNL     1       3.129   2.498   0.414  0.00  0.00    -0.307 N 
ATOM     19  C   UNL     1       2.280   2.107   1.412  0.00  0.00    +0.092 A 
ATOM     20  C   UNL     1       2.262   0.760   1.446  0.00  0.00    +0.019 A 
ATOM     21  C   UNL     1       3.137   0.298   0.441  0.00  0.00    +0.019 A 
ATOM     22  C   UNL     1       3.654   1.381  -0.174  0.00  0.00    +0.092 A 
ENDBRANCH  11  18
BRANCH   1  23
ATOM     23  C   UNL     1      -0.970   6.299  -0.118  0.00  0.00    +0.148 C 
BRANCH  23  24
ATOM     24  C   UNL     1      -1.337   6.690   1.315  0.00  0.00    +0.033 C 
BRANCH  24  25
ATOM     25  C   UNL     1      -2.857   6.828   1.432  0.00  0.00    +0.098 C 
BRANCH  25  27
ATOM     26  N   UNL     1      -4.511   7.392   3.182  0.00  0.00    -0.285 N 
ATOM     27  C   UNL     1      -3.219   7.213   2.843  0.00  0.00    +0.217 C 
ATOM     28  O   UNL     1      -2.347   7.362   3.674  0.00  0.00    -0.275 OA
ATOM     29  H   UNL     1      -5.296   7.315   2.416  0.00  0.00    +0.155 HD
BRANCH  26  34
ATOM     30  C   UNL     1      -5.898   8.539   8.562  0.00  0.00    +0.044 C 
ATOM     31  C   UNL     1      -5.530   8.234   7.133  0.00  0.00    -0.050 A 
ATOM     32  C   UNL     1      -5.990   9.047   6.114  0.00  0.00    +0.008 A 
ATOM     33  C   UNL     1      -5.654   8.770   4.803  0.00  0.00    -0.029 A 
ATOM     34  C   UNL     1      -4.853   7.675   4.509  0.00  0.00    +0.039 A 
ATOM     35  C   UNL     1      -4.397   6.857   5.535  0.00  0.00    -0.029 A 
ATOM     36  C   UNL     1      -4.731   7.142   6.844  0.00  0.00    +0.008 A 
ATOM     37  C   UNL     1      -3.533   5.663   5.220  0.00  0.00    +0.045 C 
ATOM     38  C   UNL     1      -6.156   9.657   3.693  0.00  0.00    +0.045 C 
ENDBRANCH  26  34
ENDBRANCH  25  27
ENDBRANCH  24  25
ENDBRANCH  23  24
ENDBRANCH   1  23
TORSDOF 7
