REMARK  Name = ZINC58491987
REMARK  8 active torsions:
REMARK  status: ('A' for Active; 'I' for Inactive)
REMARK    1  A    between atoms: C_1  and  N_2
REMARK    2  A    between atoms: N_2  and  C_3
REMARK    3  A    between atoms: N_2  and  C_4
REMARK    4  A    between atoms: C_7  and  N_10
REMARK    5  A    between atoms: N_10  and  C_11
REMARK    6  A    between atoms: C_11  and  C_12
REMARK    7  A    between atoms: C_16  and  O_19
REMARK    8  A    between atoms: C_17  and  O_18
REMARK                            x       y       z     vdW  Elec       q    Type
REMARK                         _______ _______ _______ _____ _____    ______ ____
ROOT
ATOM      1  N   UNL     1      -5.216  -1.929   0.042  0.00  0.00    -0.340 N 
ATOM      2  H   UNL     1      -5.810  -1.704   0.774  0.00  0.00    +0.146 HD
ENDROOT
BRANCH   1   6
ATOM      3  C   UNL     1      -1.310  -0.488   0.012  0.00  0.00    +0.013 A 
ATOM      4  C   UNL     1      -2.156  -0.166   1.057  0.00  0.00    +0.023 A 
ATOM      5  C   UNL     1      -3.452  -0.642   1.070  0.00  0.00    +0.025 A 
ATOM      6  C   UNL     1      -3.905  -1.446   0.032  0.00  0.00    +0.027 A 
ATOM      7  C   UNL     1      -3.053  -1.768  -1.016  0.00  0.00    +0.025 A 
ATOM      8  C   UNL     1      -1.759  -1.283  -1.026  0.00  0.00    +0.023 A 
BRANCH   3  10
ATOM      9  C   UNL     1      -0.018   1.465   0.010  0.00  0.00    +0.106 C 
ATOM     10  N   UNL     1       0.002  -0.004   0.002  0.00  0.00    -0.398 NA
ATOM     11  C   UNL     1       0.713  -0.491   1.192  0.00  0.00    +0.106 C 
ATOM     12  H   UNL     1       0.474  -0.330  -0.828  0.00  0.00    +0.126 HD
ENDBRANCH   3  10
ENDBRANCH   1   6
BRANCH   1  13
ATOM     13  C   UNL     1      -5.692  -2.777  -1.054  0.00  0.00    +0.140 C 
BRANCH  13  14
ATOM     14  C   UNL     1      -7.128  -3.162  -0.804  0.00  0.00    +0.015 A 
ATOM     15  C   UNL     1      -7.429  -4.403  -0.276  0.00  0.00    +0.009 A 
ATOM     16  C   UNL     1      -8.745  -4.759  -0.045  0.00  0.00    +0.004 A 
ATOM     17  C   UNL     1      -9.765  -3.875  -0.343  0.00  0.00    +0.049 A 
ATOM     18  C   UNL     1      -9.470  -2.629  -0.873  0.00  0.00    +0.159 A 
ATOM     19  C   UNL     1      -8.145  -2.269  -1.099  0.00  0.00    +0.163 A 
BRANCH  19  20
ATOM     20  O   UNL     1      -7.850  -1.045  -1.613  0.00  0.00    -0.503 OA
ATOM     21  H   UNL     1      -7.818  -1.022  -2.580  0.00  0.00    +0.292 HD
ENDBRANCH  19  20
BRANCH  18  22
ATOM     22  O   UNL     1     -10.473  -1.758  -1.166  0.00  0.00    -0.503 OA
ATOM     23  H   UNL     1     -10.711  -1.172  -0.435  0.00  0.00    +0.292 HD
ENDBRANCH  18  22
ENDBRANCH  13  14
ENDBRANCH   1  13
TORSDOF 6
