REMARK  Name = ZINC39686150
REMARK  7 active torsions:
REMARK  status: ('A' for Active; 'I' for Inactive)
REMARK    1  A    between atoms: C_1  and  C_2
REMARK    2  A    between atoms: C_2  and  C_3
REMARK    3  A    between atoms: C_2  and  C_4
REMARK    4  A    between atoms: C_4  and  C_5
REMARK    5  A    between atoms: C_10  and  N_13
REMARK    6  A    between atoms: C_14  and  C_16
REMARK    7  A    between atoms: C_27  and  C_29
REMARK                            x       y       z     vdW  Elec       q    Type
REMARK                         _______ _______ _______ _____ _____    ______ ____
ROOT
ATOM      1  C   UNL     1       0.298  -4.384   9.005  0.00  0.00    +0.100 C 
ATOM      2  C   UNL     1      -1.127  -4.938   8.785  0.00  0.00    +0.121 C 
ATOM      3  N   UNL     1      -1.554  -5.416  10.121  0.00  0.00    -0.296 N 
ATOM      4  C   UNL     1      -1.030  -4.397  11.062  0.00  0.00    +0.115 C 
ATOM      5  C   UNL     1       0.358  -4.029  10.501  0.00  0.00    -0.004 C 
ATOM      6  C   UNL     1       0.620  -2.537  10.680  0.00  0.00    -0.010 C 
ATOM      7  C   UNL     1       0.733  -2.219  12.174  0.00  0.00    -0.082 C 
ATOM      8  N   UNL     1       1.826  -3.003  12.761  0.00  0.00    +0.379 N 
ATOM      9  C   UNL     1       1.521  -4.436  12.668  0.00  0.00    -0.082 C 
ATOM     10  C   UNL     1       1.442  -4.848  11.195  0.00  0.00    -0.010 C 
ATOM     11  C   UNL     1      -2.258  -6.527  10.415  0.00  0.00    +0.248 C 
ATOM     12  O   UNL     1      -2.534  -7.321   9.537  0.00  0.00    -0.270 OA
ATOM     13  H   UNL     1       2.683  -2.809  12.264  0.00  0.00    -0.086 HD
ATOM     14  H   UNL     1       1.938  -2.747  13.731  0.00  0.00    -0.086 HD
ENDROOT
BRANCH  11  15
ATOM     15  C   UNL     1      -2.694  -6.779  11.803  0.00  0.00    +0.055 A 
ATOM     16  C   UNL     1      -3.066  -5.714  12.626  0.00  0.00    +0.016 A 
ATOM     17  C   UNL     1      -3.472  -5.956  13.921  0.00  0.00    +0.021 A 
ATOM     18  C   UNL     1      -3.512  -7.253  14.408  0.00  0.00    +0.042 A 
ATOM     19  C   UNL     1      -3.145  -8.314  13.598  0.00  0.00    +0.040 A 
ATOM     20  C   UNL     1      -2.742  -8.086  12.297  0.00  0.00    +0.054 A 
ATOM     21 CL   UNL     1      -2.290  -9.418  11.280  0.00  0.00    -0.083 Cl
ATOM     22 CL   UNL     1      -4.024  -7.548  16.040  0.00  0.00    -0.083 Cl
ENDBRANCH  11  15
BRANCH   1  24
ATOM     23  N   UNL     1       1.772  -2.751   7.874  0.00  0.00    -0.312 N 
ATOM     24  C   UNL     1       0.519  -3.152   8.165  0.00  0.00    +0.218 C 
ATOM     25  O   UNL     1      -0.431  -2.523   7.750  0.00  0.00    -0.275 OA
ATOM     26  H   UNL     1       2.532  -3.254   8.205  0.00  0.00    +0.149 HD
BRANCH  23  32
ATOM     27  C   UNL     1       4.301   0.287   4.206  0.00  0.00    +0.216 C 
ATOM     28  O   UNL     1       4.116   0.019   3.037  0.00  0.00    -0.276 OA
ATOM     29  N   UNL     1       3.360  -0.013   5.123  0.00  0.00    -0.301 N 
ATOM     30  C   UNL     1       3.568   0.310   6.541  0.00  0.00    +0.109 C 
ATOM     31  C   UNL     1       3.361  -0.961   7.372  0.00  0.00    +0.041 C 
ATOM     32  C   UNL     1       1.986  -1.554   7.057  0.00  0.00    +0.076 C 
ATOM     33  C   UNL     1       1.918  -1.929   5.575  0.00  0.00    +0.041 C 
ATOM     34  C   UNL     1       2.105  -0.664   4.723  0.00  0.00    +0.109 C 
BRANCH  27  35
ATOM     35  C   UNL     1       5.583   0.954   4.632  0.00  0.00    +0.099 C 
BRANCH  35  37
ATOM     36  C   UNL     1       5.792   2.175   2.462  0.00  0.00    +0.008 C 
ATOM     37  C   UNL     1       6.471   1.182   3.407  0.00  0.00    -0.008 C 
ATOM     38  C   UNL     1       7.822   1.745   3.853  0.00  0.00    +0.008 C 
ENDBRANCH  35  37
ENDBRANCH  27  35
ENDBRANCH  23  32
ENDBRANCH   1  24
TORSDOF 5
