REMARK  Name = ZINC33575129
REMARK  7 active torsions:
REMARK  status: ('A' for Active; 'I' for Inactive)
REMARK    1  A    between atoms: C_4  and  C_7
REMARK    2  A    between atoms: C_8  and  C_9
REMARK    3  A    between atoms: N_17  and  C_20
REMARK    4  A    between atoms: C_24  and  N_26
REMARK    5  A    between atoms: C_29  and  C_31
REMARK    6  A    between atoms: C_29  and  C_38
REMARK    7  A    between atoms: C_31  and  C_32
REMARK                            x       y       z     vdW  Elec       q    Type
REMARK                         _______ _______ _______ _____ _____    ______ ____
ROOT
ATOM      1  C   UNL     1       5.125  -2.298  -0.862  0.00  0.00    -0.034 C 
ATOM      2  C   UNL     1       5.015  -2.897   0.537  0.00  0.00    +0.077 C 
ATOM      3  C   UNL     1       6.182  -3.946   0.394  0.00  0.00    +0.086 C 
ATOM      4  C   UNL     1       6.452  -4.283   1.771  0.00  0.00    +0.229 C 
ATOM      5  O   UNL     1       6.809  -5.354   2.212  0.00  0.00    -0.275 OA
ATOM      6  N   UNL     1       6.216  -3.127   2.472  0.00  0.00    -0.210 N 
ATOM      7  C   UNL     1       5.550  -2.172   1.732  0.00  0.00    +0.229 C 
ATOM      8  O   UNL     1       5.425  -0.993   1.985  0.00  0.00    -0.275 OA
ATOM      9  C   UNL     1       5.900  -4.598  -0.891  0.00  0.00    +0.048 C 
ATOM     10  N   UNL     1       5.295  -3.503  -1.738  0.00  0.00    +0.395 N 
ATOM     11  H   UNL     1       4.396  -3.805  -2.083  0.00  0.00    -0.083 HD
ATOM     12  H   UNL     1       5.903  -3.280  -2.512  0.00  0.00    -0.083 HD
ENDROOT
BRANCH   6  13
ATOM     13  C   UNL     1       6.600  -2.937   3.807  0.00  0.00    +0.046 A 
ATOM     14  C   UNL     1       7.261  -3.947   4.491  0.00  0.00    +0.024 A 
ATOM     15  C   UNL     1       7.638  -3.757   5.806  0.00  0.00    +0.004 A 
ATOM     16  C   UNL     1       7.356  -2.562   6.442  0.00  0.00    +0.033 A 
ATOM     17  C   UNL     1       6.697  -1.554   5.763  0.00  0.00    +0.128 A 
ATOM     18  C   UNL     1       6.324  -1.736   4.446  0.00  0.00    +0.056 A 
BRANCH  17  19
ATOM     19  N   UNL     1       6.397  -0.275   6.447  0.00  0.00    +0.056 N 
ATOM     20  O   UNL     1       6.729  -0.114   7.598  0.00  0.00    -0.126 OA
ATOM     21  O   UNL     1       5.821   0.607   5.854  0.00  0.00    -0.126 OA
ENDBRANCH  17  19
ENDBRANCH   6  13
BRANCH   9  22
ATOM     22  C   UNL     1       4.937  -5.741  -0.699  0.00  0.00    +0.346 C 
ATOM     23  O   UNL     1       3.819  -5.685  -1.184  0.00  0.00    -0.248 OA
ATOM     24  O   UNL     1       5.275  -6.723  -0.059  0.00  0.00    -0.248 OA
ENDBRANCH   9  22
BRANCH   1  26
ATOM     25  C   UNL     1       3.939  -0.297  -1.646  0.00  0.00    +0.002 C 
ATOM     26  C   UNL     1       3.867  -1.551  -1.222  0.00  0.00    -0.041 C 
BRANCH  25  30
ATOM     27  C   UNL     1       0.393   1.808  -2.662  0.00  0.00    +0.000 A 
ATOM     28  C   UNL     1       1.621   2.434  -2.774  0.00  0.00    +0.001 A 
ATOM     29  C   UNL     1       2.777   1.756  -2.445  0.00  0.00    +0.008 A 
ATOM     30  C   UNL     1       2.705   0.436  -1.999  0.00  0.00    -0.025 A 
ATOM     31  C   UNL     1       1.462  -0.189  -1.887  0.00  0.00    +0.008 A 
ATOM     32  C   UNL     1       0.314   0.500  -2.219  0.00  0.00    +0.001 A 
ENDBRANCH  25  30
ENDBRANCH   1  26
BRANCH   9  33
ATOM     33  C   UNL     1       7.197  -5.094  -1.534  0.00  0.00    +0.003 C 
BRANCH  33  34
ATOM     34  C   UNL     1       6.903  -5.604  -2.946  0.00  0.00    -0.012 C 
ATOM     35  C   UNL     1       8.221  -5.880  -3.673  0.00  0.00    +0.003 C 
ATOM     36  C   UNL     1       7.928  -6.390  -5.085  0.00  0.00    +0.000 C 
ATOM     37  C   UNL     1       7.112  -7.681  -5.001  0.00  0.00    +0.000 C 
ATOM     38  C   UNL     1       5.794  -7.406  -4.275  0.00  0.00    +0.000 C 
ATOM     39  C   UNL     1       6.087  -6.895  -2.862  0.00  0.00    +0.003 C 
ENDBRANCH  33  34
ENDBRANCH   9  33
TORSDOF 7
