REMARK  Name = ZINC16038414
REMARK  7 active torsions:
REMARK  status: ('A' for Active; 'I' for Inactive)
REMARK    1  A    between atoms: C_1  and  C_2
REMARK    2  A    between atoms: C_2  and  C_3
REMARK    3  A    between atoms: C_2  and  C_4
REMARK    4  A    between atoms: C_2  and  C_5
REMARK    5  A    between atoms: C_5  and  C_7
REMARK    6  A    between atoms: C_9  and  C_32
REMARK    7  A    between atoms: C_32  and  C_34
REMARK                            x       y       z     vdW  Elec       q    Type
REMARK                         _______ _______ _______ _____ _____    ______ ____
ROOT
ATOM      1  C   UNL     1      -3.657   2.798   1.570  0.00  0.00    +0.153 C 
ATOM      2  C   UNL     1      -3.805   2.299   0.105  0.00  0.00    +0.109 C 
ATOM      3  C   UNL     1      -5.325   2.130  -0.099  0.00  0.00    +0.108 C 
ATOM      4  C   UNL     1      -5.668   0.752  -0.555  0.00  0.00    -0.008 A 
ATOM      5  C   UNL     1      -5.466  -0.484   0.020  0.00  0.00    +0.006 A 
ATOM      6  C   UNL     1      -5.920  -1.592  -0.688  0.00  0.00    +0.000 A 
ATOM      7  C   UNL     1      -6.542  -1.457  -1.912  0.00  0.00    +0.002 A 
ATOM      8  C   UNL     1      -6.748  -0.217  -2.497  0.00  0.00    +0.023 A 
ATOM      9  C   UNL     1      -6.298   0.903  -1.798  0.00  0.00    +0.038 A 
ATOM     10  N   UNL     1      -6.370   2.242  -2.142  0.00  0.00    -0.284 N 
ATOM     11  C   UNL     1      -5.819   3.037  -1.198  0.00  0.00    +0.231 C 
ATOM     12  O   UNL     1      -5.738   4.247  -1.228  0.00  0.00    -0.274 OA
ATOM     13  C   UNL     1      -5.944   2.478   1.246  0.00  0.00    +0.117 C 
ATOM     14  N   UNL     1      -4.960   3.417   1.852  0.00  0.00    -0.311 N 
ATOM     15  C   UNL     1      -5.309   3.662   3.158  0.00  0.00    +0.038 A 
ATOM     16  C   UNL     1      -4.406   3.682   4.202  0.00  0.00    +0.024 A 
ATOM     17  C   UNL     1      -4.847   3.929   5.490  0.00  0.00    +0.002 A 
ATOM     18  C   UNL     1      -6.189   4.157   5.742  0.00  0.00    +0.001 A 
ATOM     19  C   UNL     1      -7.107   4.143   4.710  0.00  0.00    +0.010 A 
ATOM     20  C   UNL     1      -6.679   3.898   3.412  0.00  0.00    -0.004 A 
ATOM     21  C   UNL     1      -7.626   3.876   2.272  0.00  0.00    +0.007 C 
ATOM     22  C   UNL     1      -7.272   3.169   1.183  0.00  0.00    -0.003 C 
ATOM     23  H   UNL     1      -6.769   2.570  -2.962  0.00  0.00    +0.155 HD
ENDROOT
BRANCH   1  24
ATOM     24  C   UNL     1      -3.407   1.641   2.503  0.00  0.00    +0.160 C 
ATOM     25  O   UNL     1      -4.331   0.966   2.889  0.00  0.00    -0.295 OA
BRANCH  24  27
ATOM     26  C   UNL     1      -1.998  -0.001   3.714  0.00  0.00    +0.018 C 
ATOM     27  C   UNL     1      -2.004   1.327   2.953  0.00  0.00    +0.022 C 
ATOM     28  C   UNL     1      -1.088   1.219   1.732  0.00  0.00    +0.018 C 
ATOM     29  C   UNL     1      -1.501   2.442   3.872  0.00  0.00    +0.018 C 
ENDBRANCH  24  27
ENDBRANCH   1  24
BRANCH   2  30
ATOM     30  C   UNL     1      -3.101   0.979  -0.074  0.00  0.00    +0.170 C 
ATOM     31  O   UNL     1      -3.216   0.111   0.766  0.00  0.00    -0.292 OA
BRANCH  30  32
ATOM     32  C   UNL     1      -2.276   0.742  -1.266  0.00  0.00    +0.021 A 
ATOM     33  C   UNL     1      -2.229   1.697  -2.288  0.00  0.00    +0.015 A 
ATOM     34  C   UNL     1      -1.458   1.471  -3.406  0.00  0.00    +0.050 A 
ATOM     35  C   UNL     1      -0.723   0.298  -3.523  0.00  0.00    +0.166 A 
ATOM     36  C   UNL     1      -0.762  -0.658  -2.506  0.00  0.00    +0.167 A 
ATOM     37  C   UNL     1      -1.531  -0.438  -1.382  0.00  0.00    +0.061 A 
ATOM     38  O   UNL     1       0.039  -1.705  -2.862  0.00  0.00    -0.453 OA
ATOM     39  C   UNL     1       0.886  -1.200  -3.912  0.00  0.00    +0.466 C 
ATOM     40  O   UNL     1       0.101  -0.153  -4.512  0.00  0.00    -0.453 OA
ENDBRANCH  30  32
ENDBRANCH   2  30
TORSDOF 4
