REMARK  Name = ZINC02222143
REMARK  11 active torsions:
REMARK  status: ('A' for Active; 'I' for Inactive)
REMARK    1  A    between atoms: C_1  and  C_2
REMARK    2  A    between atoms: C_2  and  O_3
REMARK    3  A    between atoms: O_3  and  C_4
REMARK    4  A    between atoms: C_4  and  C_5
REMARK    5  A    between atoms: C_4  and  O_35
REMARK    6  A    between atoms: C_5  and  S_6
REMARK    7  A    between atoms: S_6  and  C_7
REMARK    8  A    between atoms: C_16  and  C_28
REMARK    9  A    between atoms: C_19  and  C_22
REMARK   10  A    between atoms: O_35  and  C_36
REMARK   11  A    between atoms: C_36  and  C_37
REMARK                            x       y       z     vdW  Elec       q    Type
REMARK                         _______ _______ _______ _____ _____    ______ ____
ROOT
ATOM      1  C   UNL     1       0.249  -0.381  -1.082  0.00  0.00    +0.191 A 
ATOM      2  N   UNL     1       1.323  -1.161  -1.031  0.00  0.00    -0.207 NA
ATOM      3  C   UNL     1       2.517  -0.739  -1.412  0.00  0.00    +0.129 A 
ATOM      4  C   UNL     1       2.660   0.593  -1.893  0.00  0.00    +0.051 A 
ATOM      5  C   UNL     1       3.889   1.262  -2.361  0.00  0.00    -0.022 A 
ATOM      6  C   UNL     1       3.756   2.530  -2.775  0.00  0.00    +0.013 A 
ATOM      7  S   UNL     1       2.031   2.916  -2.566  0.00  0.00    -0.072 S 
ATOM      8  C   UNL     1       1.484   1.360  -1.922  0.00  0.00    +0.115 A 
ATOM      9  N   UNL     1       0.326   0.868  -1.522  0.00  0.00    -0.215 NA
ATOM     10  C   UNL     1       4.781   3.487  -3.321  0.00  0.00    +0.114 C 
ATOM     11  S   UNL     1       6.436   2.835  -2.935  0.00  0.00    -0.139 S 
ATOM     12  C   UNL     1       6.228   1.062  -3.293  0.00  0.00    +0.082 C 
ATOM     13  C   UNL     1       5.200   0.487  -2.328  0.00  0.00    +0.055 C 
ATOM     14  N   UNL     1       3.612  -1.581  -1.344  0.00  0.00    -0.343 N 
ATOM     15  H   UNL     1       3.490  -2.541  -1.407  0.00  0.00    +0.144 HD
ATOM     16  H   UNL     1       4.502  -1.211  -1.234  0.00  0.00    +0.144 HD
ENDROOT
BRANCH  12  17
ATOM     17  C   UNL     1       7.545   0.352  -3.111  0.00  0.00    -0.034 A 
ATOM     18  C   UNL     1       8.179   0.376  -1.883  0.00  0.00    +0.005 A 
ATOM     19  C   UNL     1       9.384  -0.280  -1.715  0.00  0.00    +0.000 A 
ATOM     20  C   UNL     1       9.961  -0.950  -2.778  0.00  0.00    +0.000 A 
ATOM     21  C   UNL     1       9.329  -0.970  -4.007  0.00  0.00    +0.000 A 
ATOM     22  C   UNL     1       8.121  -0.318  -4.174  0.00  0.00    +0.005 A 
ENDBRANCH  12  17
BRANCH  10  23
ATOM     23  C   UNL     1       4.606   4.840  -2.681  0.00  0.00    -0.030 A 
ATOM     24  C   UNL     1       4.717   4.975  -1.309  0.00  0.00    +0.005 A 
ATOM     25  C   UNL     1       4.561   6.216  -0.722  0.00  0.00    +0.000 A 
ATOM     26  C   UNL     1       4.282   7.321  -1.506  0.00  0.00    +0.000 A 
ATOM     27  C   UNL     1       4.165   7.185  -2.876  0.00  0.00    +0.000 A 
ATOM     28  C   UNL     1       4.327   5.944  -3.464  0.00  0.00    +0.005 A 
ENDBRANCH  10  23
BRANCH   1  29
ATOM     29  S   UNL     1      -1.307  -1.017  -0.554  0.00  0.00    -0.081 S 
BRANCH  29  30
ATOM     30  C   UNL     1      -0.817  -2.695  -0.082  0.00  0.00    +0.138 C 
BRANCH  30  31
ATOM     31  C   UNL     1      -2.041  -3.460   0.423  0.00  0.00    +0.260 C 
BRANCH  31  32
ATOM     32  O   UNL     1      -2.589  -2.787   1.558  0.00  0.00    -0.351 OA
BRANCH  32  34
ATOM     33  C   UNL     1      -3.745  -2.846   3.680  0.00  0.00    +0.034 C 
ATOM     34  C   UNL     1      -3.328  -3.637   2.438  0.00  0.00    +0.159 C 
ENDBRANCH  32  34
ENDBRANCH  31  32
BRANCH  31  35
ATOM     35  O   UNL     1      -3.023  -3.525  -0.612  0.00  0.00    -0.351 OA
BRANCH  35  36
ATOM     36  C   UNL     1      -4.032  -4.513  -0.395  0.00  0.00    +0.159 C 
ATOM     37  C   UNL     1      -4.926  -4.610  -1.633  0.00  0.00    +0.034 C 
ENDBRANCH  35  36
ENDBRANCH  31  35
ENDBRANCH  30  31
ENDBRANCH  29  30
ENDBRANCH   1  29
TORSDOF 9
