REMARK  Name = ZINC09226995
REMARK  8 active torsions:
REMARK  status: ('A' for Active; 'I' for Inactive)
REMARK    1  A    between atoms: C_1  and  C_2
REMARK    2  A    between atoms: C_5  and  C_8
REMARK    3  A    between atoms: C_9  and  C_18
REMARK    4  A    between atoms: N_28  and  C_29
REMARK    5  A    between atoms: C_29  and  C_30
REMARK    6  A    between atoms: C_30  and  C_31
REMARK    7  A    between atoms: N_33  and  C_34
REMARK    8  A    between atoms: C_34  and  C_35
REMARK                            x       y       z     vdW  Elec       q    Type
REMARK                         _______ _______ _______ _____ _____    ______ ____
ROOT
ATOM      1  C   UNL     1      -0.740   3.380   0.026  0.00  0.00    +0.140 C 
ATOM      2  C   UNL     1       0.768   3.404   0.012  0.00  0.00    -0.010 A 
ATOM      3  C   UNL     1       1.694   4.421   0.008  0.00  0.00    +0.006 A 
ATOM      4  C   UNL     1       3.047   4.125  -0.006  0.00  0.00    +0.000 A 
ATOM      5  C   UNL     1       3.470   2.808  -0.016  0.00  0.00    +0.001 A 
ATOM      6  C   UNL     1       2.550   1.780  -0.013  0.00  0.00    +0.013 A 
ATOM      7  C   UNL     1       1.185   2.071   0.002  0.00  0.00    +0.042 A 
ATOM      8  C   UNL     1      -0.014   1.211   0.009  0.00  0.00    +0.248 C 
ATOM      9  O   UNL     1       0.002  -0.004   0.002  0.00  0.00    -0.270 OA
ATOM     10  N   UNL     1      -1.128   1.964   0.018  0.00  0.00    -0.286 N 
ENDROOT
BRANCH   1  12
ATOM     11  C   UNL     1      -1.873   5.286  -1.248  0.00  0.00    +0.053 A 
ATOM     12  C   UNL     1      -1.280   4.067  -1.201  0.00  0.00    +0.010 A 
ATOM     13  C   UNL     1      -1.271   3.545  -2.567  0.00  0.00    +0.006 A 
ATOM     14  C   UNL     1      -0.810   2.359  -3.147  0.00  0.00    +0.010 A 
ATOM     15  C   UNL     1      -0.952   2.162  -4.491  0.00  0.00    +0.001 A 
ATOM     16  C   UNL     1      -1.550   3.130  -5.287  0.00  0.00    +0.002 A 
ATOM     17  C   UNL     1      -2.011   4.306  -4.737  0.00  0.00    +0.026 A 
ATOM     18  C   UNL     1      -1.878   4.529  -3.370  0.00  0.00    +0.047 A 
ATOM     19  N   UNL     1      -2.230   5.575  -2.545  0.00  0.00    -0.354 N 
ATOM     20  H   UNL     1      -2.668   6.391  -2.835  0.00  0.00    +0.166 HD
BRANCH  11  25
ATOM     21  C   UNL     1      -2.747   8.729   3.279  0.00  0.00    +0.044 C 
ATOM     22  C   UNL     1      -2.518   7.828   2.094  0.00  0.00    -0.050 A 
ATOM     23  C   UNL     1      -2.020   8.353   0.915  0.00  0.00    +0.004 A 
ATOM     24  C   UNL     1      -1.808   7.533  -0.174  0.00  0.00    +0.010 A 
ATOM     25  C   UNL     1      -2.097   6.171  -0.085  0.00  0.00    -0.001 A 
ATOM     26  C   UNL     1      -2.605   5.648   1.105  0.00  0.00    +0.010 A 
ATOM     27  C   UNL     1      -2.806   6.478   2.189  0.00  0.00    +0.004 A 
ENDBRANCH  11  25
ENDBRANCH   1  12
BRANCH  10  28
ATOM     28  C   UNL     1      -2.502   1.456   0.021  0.00  0.00    +0.118 C 
BRANCH  28  29
ATOM     29  C   UNL     1      -2.974   1.273   1.465  0.00  0.00    +0.115 C 
BRANCH  29  30
ATOM     30  C   UNL     1      -4.387   0.750   1.469  0.00  0.00    +0.215 C 
ATOM     31  O   UNL     1      -4.960   0.544   0.420  0.00  0.00    -0.276 OA
ATOM     32  N   UNL     1      -5.014   0.511   2.638  0.00  0.00    -0.308 N 
ATOM     33  H   UNL     1      -4.555   0.675   3.477  0.00  0.00    +0.149 HD
BRANCH  32  34
ATOM     34  C   UNL     1      -6.388   0.003   2.642  0.00  0.00    +0.178 C 
BRANCH  34  35
ATOM     35  C   UNL     1      -6.853  -0.178   4.064  0.00  0.00    +0.122 A 
ATOM     36  C   UNL     1      -7.469   0.753   4.814  0.00  0.00    +0.046 A 
ATOM     37  C   UNL     1      -7.727   0.160   6.072  0.00  0.00    +0.041 A 
ATOM     38  C   UNL     1      -7.245  -1.094   6.018  0.00  0.00    +0.195 A 
ATOM     39  O   UNL     1      -6.717  -1.294   4.799  0.00  0.00    -0.466 OA
ENDBRANCH  34  35
ENDBRANCH  32  34
ENDBRANCH  29  30
ENDBRANCH  28  29
ENDBRANCH  10  28
TORSDOF 7
