REMARK  Name = ZINC36206885
REMARK  6 active torsions:
REMARK  status: ('A' for Active; 'I' for Inactive)
REMARK    1  A    between atoms: C_3  and  N_8
REMARK    2  A    between atoms: C_9  and  C_11
REMARK    3  A    between atoms: C_11  and  C_23
REMARK    4  A    between atoms: C_12  and  C_13
REMARK    5  A    between atoms: C_16  and  O_22
REMARK    6  A    between atoms: C_17  and  N_19
REMARK                            x       y       z     vdW  Elec       q    Type
REMARK                         _______ _______ _______ _____ _____    ______ ____
ROOT
ATOM      1  C   UNL     1       6.026   2.229   0.092  0.00  0.00    +0.114 C 
ATOM      2  C   UNL     1       7.216   1.554   0.257  0.00  0.00    +0.032 C 
ENDROOT
BRANCH   2   3
ATOM      3  C   UNL     1       8.458   2.301   0.469  0.00  0.00    -0.021 A 
ATOM      4  C   UNL     1       8.426   3.557   1.093  0.00  0.00    +0.011 A 
ATOM      5  C   UNL     1       9.588   4.249   1.289  0.00  0.00    +0.048 A 
ATOM      6  C   UNL     1      10.800   3.711   0.870  0.00  0.00    +0.147 A 
ATOM      7  C   UNL     1      10.838   2.466   0.250  0.00  0.00    +0.168 A 
ATOM      8  C   UNL     1       9.684   1.762   0.054  0.00  0.00    +0.044 A 
BRANCH   7   9
ATOM      9  N   UNL     1      12.132   1.901  -0.193  0.00  0.00    +0.060 N 
ATOM     10  O   UNL     1      12.167   0.819  -0.732  0.00  0.00    -0.126 OA
ATOM     11  O   UNL     1      13.155   2.521  -0.016  0.00  0.00    -0.126 OA
ENDBRANCH   7   9
BRANCH   6  12
ATOM     12  O   UNL     1      11.951   4.403   1.067  0.00  0.00    -0.504 OA
ATOM     13  H   UNL     1      12.383   4.215   1.911  0.00  0.00    +0.292 HD
ENDBRANCH   6  12
ENDBRANCH   2   3
BRANCH   1  15
ATOM     14  N   UNL     1       3.595   2.142  -0.124  0.00  0.00    -0.281 N 
ATOM     15  C   UNL     1       4.760   1.482   0.037  0.00  0.00    +0.259 C 
ATOM     16  O   UNL     1       4.763   0.270   0.138  0.00  0.00    -0.269 OA
ATOM     17  H   UNL     1       3.598   3.100  -0.279  0.00  0.00    +0.155 HD
BRANCH  14  20
ATOM     18  C   UNL     1       0.066   1.355   0.540  0.00  0.00    +0.003 A 
ATOM     19  C   UNL     1       1.262   2.045   0.487  0.00  0.00    +0.023 A 
ATOM     20  C   UNL     1       2.384   1.446  -0.069  0.00  0.00    +0.035 A 
ATOM     21  C   UNL     1       2.301   0.153  -0.571  0.00  0.00    +0.038 A 
ATOM     22  C   UNL     1       1.102  -0.531  -0.515  0.00  0.00    +0.020 A 
ATOM     23  C   UNL     1      -0.015   0.069   0.040  0.00  0.00    +0.015 A 
ATOM     24 BR   UNL     1       0.986  -2.291  -1.199  0.00  0.00    -0.050 Br
ENDBRANCH  14  20
ENDBRANCH   1  15
BRANCH   1  25
ATOM     25  C   UNL     1       6.022   3.656  -0.026  0.00  0.00    +0.104 C 
ATOM     26  N   UNL     1       6.019   4.788  -0.120  0.00  0.00    -0.191 NA
ENDBRANCH   1  25
TORSDOF 6
