REMARK  Name = ZINC32593008
REMARK  8 active torsions:
REMARK  status: ('A' for Active; 'I' for Inactive)
REMARK    1  A    between atoms: C_2  and  C_8
REMARK    2  A    between atoms: N_9  and  N_10
REMARK    3  A    between atoms: C_11  and  C_13
REMARK    4  A    between atoms: C_13  and  O_14
REMARK    5  A    between atoms: O_14  and  C_15
REMARK    6  A    between atoms: C_15  and  C_16
REMARK    7  A    between atoms: N_18  and  N_19
REMARK    8  A    between atoms: C_20  and  C_21
REMARK                            x       y       z     vdW  Elec       q    Type
REMARK                         _______ _______ _______ _____ _____    ______ ____
ROOT
ATOM      1  O   UNL     1       7.096   4.218   2.047  0.00  0.00    -0.361 OA
ENDROOT
BRANCH   1   2
ATOM      2  C   UNL     1       6.080   3.297   2.449  0.00  0.00    +0.257 C 
BRANCH   2   4
ATOM      3  N   UNL     1       3.614   3.263   2.635  0.00  0.00    -0.205 N 
ATOM      4  C   UNL     1       4.729   3.949   2.311  0.00  0.00    +0.258 C 
ATOM      5  O   UNL     1       4.643   5.090   1.908  0.00  0.00    -0.272 OA
ATOM      6  H   UNL     1       3.682   2.351   2.957  0.00  0.00    +0.177 HD
BRANCH   3   8
ATOM      7  C   UNL     1       1.296   3.259   2.937  0.00  0.00    +0.138 C 
ATOM      8  N   UNL     1       2.357   3.869   2.506  0.00  0.00    -0.188 NA
BRANCH   7  10
ATOM      9  C   UNL     1       2.572   2.236   4.813  0.00  0.00    +0.010 A 
ATOM     10  C   UNL     1       1.396   2.312   4.063  0.00  0.00    -0.005 A 
ATOM     11  C   UNL     1       0.315   1.488   4.385  0.00  0.00    +0.010 A 
ATOM     12  C   UNL     1       0.414   0.606   5.440  0.00  0.00    +0.016 A 
ATOM     13  C   UNL     1       1.583   0.535   6.180  0.00  0.00    +0.018 A 
ATOM     14  C   UNL     1       2.658   1.349   5.866  0.00  0.00    +0.016 A 
ATOM     15 BR   UNL     1       1.710  -0.678   7.625  0.00  0.00    -0.050 Br
ENDBRANCH   7  10
ENDBRANCH   3   8
ENDBRANCH   2   4
ENDBRANCH   1   2
BRANCH   1  16
ATOM     16  C   UNL     1       8.424   3.697   2.140  0.00  0.00    +0.257 C 
BRANCH  16  17
ATOM     17  C   UNL     1       9.408   4.747   1.695  0.00  0.00    +0.258 C 
ATOM     18  O   UNL     1       9.012   5.835   1.333  0.00  0.00    -0.272 OA
ATOM     19  N   UNL     1      10.729   4.478   1.699  0.00  0.00    -0.205 N 
ATOM     20  H   UNL     1      11.045   3.608   1.988  0.00  0.00    +0.177 HD
BRANCH  19  21
ATOM     21  N   UNL     1      11.644   5.454   1.284  0.00  0.00    -0.188 NA
ATOM     22  C   UNL     1      12.902   5.156   1.167  0.00  0.00    +0.138 C 
BRANCH  22  23
ATOM     23  C   UNL     1      13.312   3.752   0.976  0.00  0.00    -0.005 A 
ATOM     24  C   UNL     1      14.629   3.365   1.235  0.00  0.00    +0.010 A 
ATOM     25  C   UNL     1      15.006   2.051   1.055  0.00  0.00    +0.016 A 
ATOM     26  C   UNL     1      14.083   1.116   0.619  0.00  0.00    +0.018 A 
ATOM     27  C   UNL     1      12.776   1.493   0.360  0.00  0.00    +0.016 A 
ATOM     28  C   UNL     1      12.384   2.803   0.541  0.00  0.00    +0.010 A 
ATOM     29 BR   UNL     1      14.609  -0.684   0.374  0.00  0.00    -0.050 Br
ENDBRANCH  22  23
ENDBRANCH  19  21
ENDBRANCH  16  17
ENDBRANCH   1  16
TORSDOF 8
