REMARK  Name = ZINC59120250
REMARK  6 active torsions:
REMARK  status: ('A' for Active; 'I' for Inactive)
REMARK    1  A    between atoms: C_1  and  C_2
REMARK    2  A    between atoms: C_5  and  N_8
REMARK    3  A    between atoms: C_13  and  C_15
REMARK    4  A    between atoms: C_15  and  C_17
REMARK    5  A    between atoms: N_20  and  C_23
REMARK    6  A    between atoms: C_28  and  N_29
REMARK                            x       y       z     vdW  Elec       q    Type
REMARK                         _______ _______ _______ _____ _____    ______ ____
ROOT
ATOM      1  N   UNL     1       0.059  -4.166  -0.021  0.00  0.00    -0.211 N 
ATOM      2  C   UNL     1       0.172  -5.035   1.138  0.00  0.00    +0.202 C 
ATOM      3  C   UNL     1       1.029  -6.151   0.425  0.00  0.00    +0.161 C 
ATOM      4  C   UNL     1       0.453  -6.171  -0.887  0.00  0.00    +0.116 C 
ATOM      5  N   UNL     1      -0.029  -4.939  -1.071  0.00  0.00    -0.179 NA
ATOM      6  C   UNL     1       1.533  -6.903   1.536  0.00  0.00    +0.238 C 
ATOM      7  O   UNL     1       1.764  -8.093   1.574  0.00  0.00    -0.274 OA
ATOM      8  N   UNL     1       1.699  -5.989   2.548  0.00  0.00    -0.206 N 
ATOM      9  C   UNL     1       1.133  -4.754   2.253  0.00  0.00    +0.250 C 
ATOM     10  O   UNL     1       1.354  -3.684   2.776  0.00  0.00    -0.273 OA
ENDROOT
BRANCH   1  15
ATOM     11  C   UNL     1      -0.015   1.503   0.011  0.00  0.00    +0.044 C 
ATOM     12  C   UNL     1       0.004  -0.004   0.003  0.00  0.00    -0.050 A 
ATOM     13  C   UNL     1      -0.778  -0.709   0.899  0.00  0.00    +0.005 A 
ATOM     14  C   UNL     1      -0.763  -2.090   0.894  0.00  0.00    +0.025 A 
ATOM     15  C   UNL     1       0.040  -2.771  -0.013  0.00  0.00    +0.052 A 
ATOM     16  C   UNL     1       0.825  -2.059  -0.912  0.00  0.00    +0.025 A 
ATOM     17  C   UNL     1       0.801  -0.678  -0.905  0.00  0.00    +0.005 A 
ENDBRANCH   1  15
BRANCH   8  18
ATOM     18  C   UNL     1       2.363  -6.268   3.751  0.00  0.00    +0.074 A 
ATOM     19  C   UNL     1       3.729  -6.046   3.859  0.00  0.00    +0.026 A 
ATOM     20  C   UNL     1       4.380  -6.322   5.045  0.00  0.00    +0.002 A 
ATOM     21  C   UNL     1       3.673  -6.820   6.124  0.00  0.00    +0.002 A 
ATOM     22  C   UNL     1       2.313  -7.043   6.019  0.00  0.00    +0.034 A 
ATOM     23  C   UNL     1       1.655  -6.762   4.838  0.00  0.00    +0.148 A 
BRANCH  23  24
ATOM     24  N   UNL     1       0.197  -6.995   4.728  0.00  0.00    +0.058 N 
ATOM     25  O   UNL     1      -0.419  -7.425   5.675  0.00  0.00    -0.126 OA
ATOM     26  O   UNL     1      -0.378  -6.754   3.692  0.00  0.00    -0.126 OA
ENDBRANCH  23  24
ENDBRANCH   8  18
BRANCH   4  27
ATOM     27  C   UNL     1       0.401  -7.254  -1.786  0.00  0.00    +0.176 C 
ATOM     28  O   UNL     1       0.883  -8.325  -1.474  0.00  0.00    -0.291 OA
ATOM     29  C   UNL     1      -0.252  -7.085  -3.134  0.00  0.00    +0.093 C 
ENDBRANCH   4  27
TORSDOF 4
