REMARK  Name = ZINC38651529
REMARK  9 active torsions:
REMARK  status: ('A' for Active; 'I' for Inactive)
REMARK    1  A    between atoms: C_1  and  C_2
REMARK    2  A    between atoms: C_2  and  O_3
REMARK    3  A    between atoms: O_3  and  C_4
REMARK    4  A    between atoms: C_8  and  C_10
REMARK    5  A    between atoms: C_10  and  O_12
REMARK    6  A    between atoms: O_12  and  C_13
REMARK    7  A    between atoms: C_20  and  N_33
REMARK    8  A    between atoms: C_21  and  C_31
REMARK    9  A    between atoms: C_22  and  C_24
REMARK                            x       y       z     vdW  Elec       q    Type
REMARK                         _______ _______ _______ _____ _____    ______ ____
ROOT
ATOM      1  C   UNL     1      -5.659  -6.301   0.038  0.00  0.00    +0.135 A 
ATOM      2  C   UNL     1      -6.807  -5.522   0.005  0.00  0.00    +0.047 A 
ATOM      3  C   UNL     1      -8.050  -6.124   0.043  0.00  0.00    +0.012 A 
ATOM      4  C   UNL     1      -8.155  -7.502   0.114  0.00  0.00    +0.008 A 
ATOM      5  C   UNL     1      -7.012  -8.284   0.147  0.00  0.00    +0.138 A 
ATOM      6  C   UNL     1      -5.761  -7.681   0.103  0.00  0.00    +0.093 A 
ATOM      7  O   UNL     1      -7.095  -9.635   0.216  0.00  0.00    -0.441 OA
ATOM      8  C   UNL     1      -8.232 -10.216   0.635  0.00  0.00    +0.199 C 
ATOM      9  C   UNL     1      -9.416  -9.559   0.631  0.00  0.00    +0.098 C 
ATOM     10  C   UNL     1      -9.520  -8.138   0.153  0.00  0.00    +0.098 C 
ENDROOT
BRANCH  10  11
ATOM     11  C   UNL     1     -10.120  -8.118  -1.228  0.00  0.00    -0.034 A 
ATOM     12  C   UNL     1      -9.482  -8.768  -2.269  0.00  0.00    +0.004 A 
ATOM     13  C   UNL     1     -10.032  -8.750  -3.537  0.00  0.00    +0.001 A 
ATOM     14  C   UNL     1     -11.221  -8.083  -3.765  0.00  0.00    +0.015 A 
ATOM     15  C   UNL     1     -11.861  -7.433  -2.724  0.00  0.00    +0.018 A 
ATOM     16  C   UNL     1     -11.312  -7.456  -1.454  0.00  0.00    +0.020 A 
ATOM     17 BR   UNL     1     -13.487  -6.520  -3.036  0.00  0.00    -0.050 Br
ENDBRANCH  10  11
BRANCH   8  18
ATOM     18  N   UNL     1      -8.192 -11.514   1.080  0.00  0.00    -0.328 N 
ATOM     19  H   UNL     1      -7.351 -11.998   1.089  0.00  0.00    +0.145 HD
ATOM     20  H   UNL     1      -9.004 -11.947   1.385  0.00  0.00    +0.145 HD
ENDBRANCH   8  18
BRANCH   9  21
ATOM     21  C   UNL     1     -10.593 -10.232   1.091  0.00  0.00    +0.101 C 
ATOM     22  N   UNL     1     -11.527 -10.767   1.456  0.00  0.00    -0.191 NA
ENDBRANCH   9  21
BRANCH   1  23
ATOM     23  O   UNL     1      -4.435  -5.710   0.002  0.00  0.00    -0.422 OA
BRANCH  23  24
ATOM     24  C   UNL     1      -3.974  -5.139   1.131  0.00  0.00    +0.345 C 
ATOM     25  O   UNL     1      -4.683  -5.083   2.116  0.00  0.00    -0.245 OA
BRANCH  24  30
ATOM     26  C   UNL     1      -0.844  -3.469   2.372  0.00  0.00    +0.121 A 
ATOM     27  C   UNL     1      -0.039  -3.537   1.243  0.00  0.00    +0.046 A 
ATOM     28  C   UNL     1      -0.513  -4.123   0.084  0.00  0.00    +0.004 A 
ATOM     29  C   UNL     1      -1.790  -4.645   0.042  0.00  0.00    +0.015 A 
ATOM     30  C   UNL     1      -2.607  -4.582   1.172  0.00  0.00    +0.063 A 
ATOM     31  C   UNL     1      -2.124  -3.994   2.343  0.00  0.00    +0.060 A 
BRANCH  26  32
ATOM     32  O   UNL     1      -0.372  -2.891   3.508  0.00  0.00    -0.492 OA
BRANCH  32  34
ATOM     33  C   UNL     1       1.310  -1.763   4.827  0.00  0.00    +0.048 C 
ATOM     34  C   UNL     1       0.957  -2.369   3.467  0.00  0.00    +0.225 C 
ENDBRANCH  32  34
ENDBRANCH  26  32
ENDBRANCH  24  30
ENDBRANCH  23  24
ENDBRANCH   1  23
TORSDOF 8
