REMARK  Name = ZINC38649402
REMARK  11 active torsions:
REMARK  status: ('A' for Active; 'I' for Inactive)
REMARK    1  A    between atoms: C_1  and  C_2
REMARK    2  A    between atoms: C_2  and  C_3
REMARK    3  A    between atoms: C_2  and  C_4
REMARK    4  A    between atoms: C_7  and  C_10
REMARK    5  A    between atoms: C_15  and  O_24
REMARK    6  A    between atoms: C_19  and  N_23
REMARK    7  A    between atoms: C_20  and  C_21
REMARK    8  A    between atoms: O_24  and  C_25
REMARK    9  A    between atoms: C_25  and  C_27
REMARK   10  A    between atoms: C_27  and  O_28
REMARK   11  A    between atoms: O_28  and  C_29
REMARK                            x       y       z     vdW  Elec       q    Type
REMARK                         _______ _______ _______ _____ _____    ______ ____
ROOT
ATOM      1  C   UNL     1      -5.391  -2.050   0.007  0.00  0.00    +0.098 C 
ATOM      2  C   UNL     1      -6.125  -1.536  -1.204  0.00  0.00    +0.008 A 
ATOM      3  C   UNL     1      -6.647  -0.255  -1.190  0.00  0.00    +0.012 A 
ATOM      4  C   UNL     1      -7.323   0.233  -2.291  0.00  0.00    +0.047 A 
ATOM      5  C   UNL     1      -7.480  -0.563  -3.417  0.00  0.00    +0.135 A 
ATOM      6  C   UNL     1      -6.958  -1.846  -3.434  0.00  0.00    +0.093 A 
ATOM      7  C   UNL     1      -6.278  -2.335  -2.326  0.00  0.00    +0.138 A 
ATOM      8  O   UNL     1      -5.774  -3.593  -2.359  0.00  0.00    -0.441 OA
ATOM      9  C   UNL     1      -5.467  -4.222  -1.212  0.00  0.00    +0.199 C 
ATOM     10  C   UNL     1      -5.273  -3.547  -0.058  0.00  0.00    +0.098 C 
ENDROOT
BRANCH   1  14
ATOM     11  C   UNL     1      -1.484  -0.328   0.134  0.00  0.00    -0.045 A 
ATOM     12  C   UNL     1      -2.370  -0.110   1.173  0.00  0.00    +0.004 A 
ATOM     13  C   UNL     1      -3.634  -0.667   1.131  0.00  0.00    +0.005 A 
ATOM     14  C   UNL     1      -4.013  -1.442   0.051  0.00  0.00    -0.035 A 
ATOM     15  C   UNL     1      -3.128  -1.659  -0.988  0.00  0.00    +0.005 A 
ATOM     16  C   UNL     1      -1.865  -1.099  -0.949  0.00  0.00    +0.004 A 
BRANCH  11  18
ATOM     17  C   UNL     1      -0.222   1.803   0.259  0.00  0.00    +0.012 C 
ATOM     18  C   UNL     1      -0.106   0.280   0.179  0.00  0.00    +0.013 C 
ATOM     19  C   UNL     1       0.641  -0.240   1.409  0.00  0.00    +0.012 C 
ENDBRANCH  11  18
ENDBRANCH   1  14
BRANCH   9  20
ATOM     20  N   UNL     1      -5.348  -5.590  -1.214  0.00  0.00    -0.328 N 
ATOM     21  H   UNL     1      -5.484  -6.087  -2.035  0.00  0.00    +0.145 HD
ATOM     22  H   UNL     1      -5.128  -6.058  -0.394  0.00  0.00    +0.145 HD
ENDBRANCH   9  20
BRANCH  10  23
ATOM     23  C   UNL     1      -4.947  -4.277   1.130  0.00  0.00    +0.101 C 
ATOM     24  N   UNL     1      -4.688  -4.857   2.072  0.00  0.00    -0.191 NA
ENDBRANCH  10  23
BRANCH   5  25
ATOM     25  O   UNL     1      -8.145  -0.084  -4.501  0.00  0.00    -0.423 OA
BRANCH  25  26
ATOM     26  C   UNL     1      -9.341  -0.619  -4.794  0.00  0.00    +0.350 C 
ATOM     27  O   UNL     1      -9.842  -1.423  -4.045  0.00  0.00    -0.247 OA
BRANCH  26  28
ATOM     28  C   UNL     1     -10.058  -0.215  -6.056  0.00  0.00    +0.349 C 
BRANCH  28  29
ATOM     29  O   UNL     1     -11.301  -0.915  -6.143  0.00  0.00    -0.481 OA
BRANCH  29  30
ATOM     30  C   UNL     1     -12.076  -0.664  -7.230  0.00  0.00    +0.121 A 
ATOM     31  C   UNL     1     -11.648   0.234  -8.197  0.00  0.00    +0.047 A 
ATOM     32  C   UNL     1     -12.438   0.488  -9.301  0.00  0.00    +0.019 A 
ATOM     33  C   UNL     1     -13.655  -0.152  -9.444  0.00  0.00    +0.018 A 
ATOM     34  C   UNL     1     -14.085  -1.048  -8.481  0.00  0.00    +0.019 A 
ATOM     35  C   UNL     1     -13.296  -1.310  -7.378  0.00  0.00    +0.047 A 
ATOM     36 BR   UNL     1     -14.735   0.198 -10.957  0.00  0.00    -0.050 Br
ENDBRANCH  29  30
ENDBRANCH  28  29
ENDBRANCH  26  28
ENDBRANCH  25  26
ENDBRANCH   5  25
TORSDOF 9
