REMARK  Name = ZINC09310895
REMARK  8 active torsions:
REMARK  status: ('A' for Active; 'I' for Inactive)
REMARK    1  A    between atoms: C_1  and  C_2
REMARK    2  A    between atoms: C_4  and  C_29
REMARK    3  A    between atoms: C_6  and  N_8
REMARK    4  A    between atoms: C_12  and  C_13
REMARK    5  A    between atoms: C_15  and  O_22
REMARK    6  A    between atoms: C_16  and  O_20
REMARK    7  A    between atoms: O_20  and  C_21
REMARK    8  A    between atoms: O_22  and  C_23
REMARK                            x       y       z     vdW  Elec       q    Type
REMARK                         _______ _______ _______ _____ _____    ______ ____
ROOT
ATOM      1  N   UNL     1      -6.128   4.122  -0.237  0.00  0.00    -0.190 N 
ATOM      2  C   UNL     1      -5.047   4.705  -0.795  0.00  0.00    +0.263 C 
ATOM      3  O   UNL     1      -5.141   5.769  -1.376  0.00  0.00    -0.269 OA
ATOM      4  C   UNL     1      -3.747   4.015  -0.682  0.00  0.00    +0.100 C 
ATOM      5  C   UNL     1      -2.596   4.551  -1.229  0.00  0.00    +0.026 C 
ATOM      6  C   UNL     1      -3.731   2.725   0.035  0.00  0.00    +0.257 C 
ATOM      7  O   UNL     1      -2.699   2.094   0.166  0.00  0.00    -0.270 OA
ATOM      8  N   UNL     1      -4.893   2.267   0.546  0.00  0.00    -0.235 N 
ATOM      9  C   UNL     1      -6.038   2.949   0.405  0.00  0.00    +0.320 C 
ATOM     10  O   UNL     1      -7.050   2.478   0.885  0.00  0.00    -0.251 OA
ATOM     11  H   UNL     1      -4.900   1.423   1.024  0.00  0.00    +0.159 HD
ENDROOT
BRANCH   1  17
ATOM     12  C   UNL     1      -9.402   7.309   1.581  0.00  0.00    +0.044 C 
ATOM     13  C   UNL     1      -8.985   6.306   0.536  0.00  0.00    -0.048 A 
ATOM     14  C   UNL     1      -9.832   6.012  -0.517  0.00  0.00    +0.006 A 
ATOM     15  C   UNL     1      -9.452   5.092  -1.477  0.00  0.00    -0.048 A 
ATOM     16  C   UNL     1      -8.226   4.464  -1.387  0.00  0.00    +0.027 A 
ATOM     17  C   UNL     1      -7.373   4.757  -0.331  0.00  0.00    +0.046 A 
ATOM     18  C   UNL     1      -7.759   5.677   0.635  0.00  0.00    +0.027 A 
ATOM     19  C   UNL     1     -10.379   4.775  -2.623  0.00  0.00    +0.044 C 
ENDBRANCH   1  17
BRANCH   5  20
ATOM     20  C   UNL     1      -1.293   3.969  -0.905  0.00  0.00    -0.019 A 
ATOM     21  C   UNL     1      -0.962   3.683   0.429  0.00  0.00    +0.057 A 
ATOM     22  C   UNL     1       0.268   3.136   0.727  0.00  0.00    +0.163 A 
ATOM     23  C   UNL     1       1.181   2.867  -0.295  0.00  0.00    +0.175 A 
ATOM     24  C   UNL     1       0.854   3.149  -1.617  0.00  0.00    +0.059 A 
ATOM     25  C   UNL     1      -0.369   3.701  -1.925  0.00  0.00    +0.026 A 
ATOM     26  I   UNL     1       2.232   2.743  -3.142  0.00  0.00    -0.040 I 
BRANCH  23  27
ATOM     27  O   UNL     1       2.390   2.328   0.003  0.00  0.00    -0.490 OA
ATOM     28  C   UNL     1       3.457   3.239   0.274  0.00  0.00    +0.277 C 
ENDBRANCH  23  27
BRANCH  22  29
ATOM     29  O   UNL     1       0.593   2.857   2.018  0.00  0.00    -0.491 OA
ATOM     30  C   UNL     1      -0.388   3.157   3.013  0.00  0.00    +0.277 C 
ENDBRANCH  22  29
ENDBRANCH   5  20
TORSDOF 4
