REMARK  Name = ZINC36663786
REMARK  10 active torsions:
REMARK  status: ('A' for Active; 'I' for Inactive)
REMARK    1  A    between atoms: C_1  and  C_2
REMARK    2  A    between atoms: C_2  and  C_3
REMARK    3  A    between atoms: C_2  and  C_4
REMARK    4  A    between atoms: C_4  and  C_6
REMARK    5  A    between atoms: C_4  and  N_22
REMARK    6  A    between atoms: N_8  and  C_9
REMARK    7  A    between atoms: N_13  and  C_15
REMARK    8  A    between atoms: C_15  and  C_16
REMARK    9  A    between atoms: N_22  and  S_23
REMARK   10  A    between atoms: S_23  and  C_26
REMARK                            x       y       z     vdW  Elec       q    Type
REMARK                         _______ _______ _______ _____ _____    ______ ____
ROOT
ATOM      1  C   UNL     1      -2.662  -0.163  -0.973  0.00  0.00    +0.232 C 
ATOM      2  O   UNL     1      -3.211  -0.960  -1.704  0.00  0.00    -0.274 OA
ATOM      3  N   UNL     1      -3.027   1.134  -0.994  0.00  0.00    -0.313 N 
ATOM      4  H   UNL     1      -2.538   1.784  -0.467  0.00  0.00    +0.149 HD
ENDROOT
BRANCH   3   5
ATOM      5  C   UNL     1      -4.163   1.561  -1.815  0.00  0.00    +0.055 C 
ATOM      6  C   UNL     1      -3.694   1.898  -3.248  0.00  0.00    +0.002 C 
ATOM      7  C   UNL     1      -4.538   3.147  -3.605  0.00  0.00    -0.077 C 
ATOM      8  N   UNL     1      -4.596   3.895  -2.323  0.00  0.00    +0.384 N 
ATOM      9  C   UNL     1      -4.757   2.871  -1.265  0.00  0.00    -0.056 C 
ATOM     10  H   UNL     1      -3.741   4.411  -2.182  0.00  0.00    -0.081 HD
BRANCH   8  11
ATOM     11  C   UNL     1      -5.747   4.808  -2.321  0.00  0.00    -0.043 C 
BRANCH  11  12
ATOM     12  C   UNL     1      -5.537   5.883  -3.357  0.00  0.00    -0.064 A 
ATOM     13  C   UNL     1      -4.893   7.057  -3.014  0.00  0.00    +0.002 A 
ATOM     14  C   UNL     1      -4.700   8.043  -3.963  0.00  0.00    +0.000 A 
ATOM     15  C   UNL     1      -5.152   7.855  -5.256  0.00  0.00    +0.000 A 
ATOM     16  C   UNL     1      -5.795   6.681  -5.599  0.00  0.00    +0.000 A 
ATOM     17  C   UNL     1      -5.984   5.693  -4.651  0.00  0.00    +0.002 A 
ENDBRANCH  11  12
ENDBRANCH   8  11
ENDBRANCH   3   5
BRANCH   1  18
ATOM     18  C   UNL     1      -1.571  -0.623  -0.040  0.00  0.00    +0.165 C 
BRANCH  18  20
ATOM     19  C   UNL     1       0.874  -0.483   0.456  0.00  0.00    +0.009 C 
ATOM     20  C   UNL     1      -0.217  -0.133  -0.558  0.00  0.00    +0.010 C 
ATOM     21  C   UNL     1       0.093  -0.809  -1.895  0.00  0.00    +0.009 C 
ENDBRANCH  18  20
BRANCH  18  22
ATOM     22  N   UNL     1      -1.568  -2.087   0.024  0.00  0.00    -0.178 NA
ATOM     23  H   UNL     1      -1.373  -2.607  -0.772  0.00  0.00    +0.149 HD
BRANCH  22  24
ATOM     24  S   UNL     1      -1.898  -2.854   1.454  0.00  0.00    +0.059 S 
ATOM     25  O   UNL     1      -1.935  -4.246   1.169  0.00  0.00    -0.153 OA
ATOM     26  O   UNL     1      -1.021  -2.299   2.424  0.00  0.00    -0.153 OA
BRANCH  24  27
ATOM     27  C   UNL     1      -3.531  -2.393   1.928  0.00  0.00    +0.105 A 
ATOM     28  C   UNL     1      -3.732  -1.272   2.712  0.00  0.00    +0.029 A 
ATOM     29  C   UNL     1      -5.013  -0.910   3.084  0.00  0.00    +0.017 A 
ATOM     30  C   UNL     1      -6.093  -1.668   2.671  0.00  0.00    +0.018 A 
ATOM     31  C   UNL     1      -5.892  -2.789   1.886  0.00  0.00    +0.017 A 
ATOM     32  C   UNL     1      -4.611  -3.147   1.510  0.00  0.00    +0.029 A 
ATOM     33 BR   UNL     1      -7.846  -1.173   3.180  0.00  0.00    -0.050 Br
ENDBRANCH  24  27
ENDBRANCH  22  24
ENDBRANCH  18  22
ENDBRANCH   1  18
TORSDOF 8
