REMARK  Name = ZINC58422086
REMARK  8 active torsions:
REMARK  status: ('A' for Active; 'I' for Inactive)
REMARK    1  A    between atoms: C_1  and  C_2
REMARK    2  A    between atoms: C_2  and  C_4
REMARK    3  A    between atoms: C_2  and  N_11
REMARK    4  A    between atoms: N_11  and  C_12
REMARK    5  A    between atoms: N_11  and  C_13
REMARK    6  A    between atoms: C_13  and  C_14
REMARK    7  A    between atoms: N_16  and  C_17
REMARK    8  A    between atoms: N_16  and  C_18
REMARK                            x       y       z     vdW  Elec       q    Type
REMARK                         _______ _______ _______ _____ _____    ______ ____
ROOT
ATOM      1  C   UNL     1       1.565  -2.457   2.337  0.00  0.00    +0.199 C 
ATOM      2  O   UNL     1       2.090  -1.666   3.092  0.00  0.00    -0.278 OA
ATOM      3  N   UNL     1       1.726  -3.781   2.530  0.00  0.00    -0.299 N 
ATOM      4  C   UNL     1       1.092  -4.737   1.619  0.00  0.00    +0.132 C 
ENDROOT
BRANCH   3   5
ATOM      5  C   UNL     1       2.536  -4.265   3.652  0.00  0.00    +0.106 C 
ATOM      6  C   UNL     1       3.707  -5.082   3.111  0.00  0.00    +0.027 C 
ATOM      7  C   UNL     1       4.412  -5.757   4.294  0.00  0.00    +0.007 C 
ATOM      8  C   UNL     1       3.492  -6.843   4.847  0.00  0.00    +0.035 C 
ATOM      9  C   UNL     1       2.116  -6.288   5.111  0.00  0.00    -0.042 A 
ATOM     10  C   UNL     1       1.677  -5.106   4.558  0.00  0.00    -0.024 A 
ATOM     11  C   UNL     1       0.394  -4.654   4.837  0.00  0.00    +0.006 A 
ATOM     12  C   UNL     1      -0.441  -5.377   5.664  0.00  0.00    +0.000 A 
ATOM     13  C   UNL     1       0.003  -6.562   6.221  0.00  0.00    +0.000 A 
ATOM     14  C   UNL     1       1.276  -7.013   5.945  0.00  0.00    +0.004 A 
ENDBRANCH   3   5
BRANCH   1  15
ATOM     15  C   UNL     1       0.733  -1.960   1.184  0.00  0.00    +0.019 C 
BRANCH  15  16
ATOM     16  N   UNL     1       0.713  -0.491   1.192  0.00  0.00    +0.388 N 
ATOM     17  C   UNL     1       0.025  -0.017   2.401  0.00  0.00    -0.095 C 
ATOM     18  H   UNL     1       1.659  -0.141   1.185  0.00  0.00    -0.081 HD
BRANCH  16  20
ATOM     19  C   UNL     1      -0.019   1.526   0.010  0.00  0.00    -0.008 C 
ATOM     20  C   UNL     1       0.002  -0.004   0.002  0.00  0.00    -0.041 C 
BRANCH  20  21
ATOM     21  C   UNL     1       0.707  -0.490  -1.238  0.00  0.00    -0.061 A 
ATOM     22  C   UNL     1       2.089  -0.511  -1.283  0.00  0.00    +0.005 A 
ATOM     23  C   UNL     1       2.737  -0.957  -2.420  0.00  0.00    +0.038 A 
ATOM     24  C   UNL     1       2.002  -1.383  -3.513  0.00  0.00    +0.123 A 
ATOM     25  C   UNL     1       0.618  -1.362  -3.466  0.00  0.00    +0.038 A 
ATOM     26  C   UNL     1      -0.028  -0.920  -2.327  0.00  0.00    +0.005 A 
ATOM     27  F   UNL     1       2.634  -1.819  -4.624  0.00  0.00    -0.205 F 
ENDBRANCH  20  21
ENDBRANCH  16  20
ENDBRANCH  15  16
ENDBRANCH   1  15
TORSDOF 5
