REMARK  Name = ZINC61644268
REMARK  7 active torsions:
REMARK  status: ('A' for Active; 'I' for Inactive)
REMARK    1  A    between atoms: C_1  and  N_2
REMARK    2  A    between atoms: N_2  and  C_3
REMARK    3  A    between atoms: N_2  and  C_4
REMARK    4  A    between atoms: C_4  and  C_5
REMARK    5  A    between atoms: C_5  and  N_6
REMARK    6  A    between atoms: N_9  and  C_12
REMARK    7  A    between atoms: C_19  and  C_21
REMARK                            x       y       z     vdW  Elec       q    Type
REMARK                         _______ _______ _______ _____ _____    ______ ____
ROOT
ATOM      1  N   UNL     1      -2.726  -2.574  -0.139  0.00  0.00    -0.302 NA
ATOM      2  C   UNL     1      -3.377  -2.306   1.151  0.00  0.00    +0.099 C 
ATOM      3  C   UNL     1      -4.831  -2.779   1.094  0.00  0.00    +0.100 C 
ATOM      4  N   UNL     1      -4.866  -4.213   0.777  0.00  0.00    -0.296 NA
ATOM      5  C   UNL     1      -4.215  -4.481  -0.513  0.00  0.00    +0.100 C 
ATOM      6  C   UNL     1      -2.761  -4.008  -0.456  0.00  0.00    +0.099 C 
ENDROOT
BRANCH   4   7
ATOM      7  C   UNL     1      -6.244  -4.722   0.788  0.00  0.00    +0.074 C 
ATOM      8  C   UNL     1      -6.811  -4.599   2.217  0.00  0.00    +0.020 C 
ATOM      9  C   UNL     1      -8.313  -4.622   2.139  0.00  0.00    +0.002 C 
ATOM     10  C   UNL     1      -8.892  -6.036   2.338  0.00  0.00    +0.000 C 
ATOM     11  C   UNL     1      -8.085  -7.121   1.601  0.00  0.00    +0.001 C 
ATOM     12  C   UNL     1      -7.664  -6.689   0.222  0.00  0.00    +0.020 C 
ATOM     13  C   UNL     1      -6.243  -6.096   0.309  0.00  0.00    +0.109 C 
BRANCH  13  14
ATOM     14  C   UNL     1      -5.436  -6.919   1.225  0.00  0.00    +0.067 C 
ATOM     15  N   UNL     1      -4.813  -7.554   1.932  0.00  0.00    -0.196 NA
ENDBRANCH  13  14
ENDBRANCH   4   7
BRANCH   1  16
ATOM     16  C   UNL     1      -1.348  -2.065  -0.150  0.00  0.00    +0.066 C 
BRANCH  16  17
ATOM     17  C   UNL     1      -1.367  -0.538  -0.065  0.00  0.00    -0.064 C 
BRANCH  17  19
ATOM     18  C   UNL     1      -0.009   1.439  -0.116  0.00  0.00    -0.097 C 
ATOM     19  N   UNL     1       0.011  -0.029  -0.076  0.00  0.00    +0.377 N 
ATOM     20  C   UNL     1       0.707  -0.477   1.138  0.00  0.00    -0.097 C 
ATOM     21  H   UNL     1       0.493  -0.381  -0.889  0.00  0.00    -0.083 HD
ENDBRANCH  17  19
ENDBRANCH  16  17
ENDBRANCH   1  16
TORSDOF 5
