REMARK  Name = ZINC04954423
REMARK  5 active torsions:
REMARK  status: ('A' for Active; 'I' for Inactive)
REMARK    1  A    between atoms: C_1  and  C_2
REMARK    2  A    between atoms: C_5  and  C_8
REMARK    3  A    between atoms: C_26  and  C_27
REMARK    4  A    between atoms: C_26  and  C_28
REMARK    5  A    between atoms: C_26  and  N_57
REMARK                            x       y       z     vdW  Elec       q    Type
REMARK                         _______ _______ _______ _____ _____    ______ ____
ROOT
ATOM      1  C   UNL     1      -4.435   5.248   0.148  0.00  0.00    +0.068 C 
ATOM      2  N   UNL     1      -3.366   4.774   0.700  0.00  0.00    -0.185 NA
ATOM      3  N   UNL     1      -3.624   3.889   1.731  0.00  0.00    -0.207 N 
ATOM      4  C   UNL     1      -5.069   3.562   1.731  0.00  0.00    +0.136 C 
ATOM      5  C   UNL     1      -5.656   4.633   0.801  0.00  0.00    +0.086 C 
ATOM      6  C   UNL     1      -5.542   3.726   3.151  0.00  0.00    +0.017 A 
ATOM      7  C   UNL     1      -6.899   3.811   3.405  0.00  0.00    +0.009 A 
ATOM      8  C   UNL     1      -7.360   3.938   4.700  0.00  0.00    +0.001 A 
ATOM      9  C   UNL     1      -6.459   3.980   5.748  0.00  0.00    +0.004 A 
ATOM     10  C   UNL     1      -5.106   3.903   5.500  0.00  0.00    +0.046 A 
ATOM     11  C   UNL     1      -4.630   3.782   4.194  0.00  0.00    +0.128 A 
ATOM     12  O   UNL     1      -3.283   3.729   4.024  0.00  0.00    -0.467 OA
ATOM     13  C   UNL     1      -2.735   3.345   2.761  0.00  0.00    +0.189 C 
ATOM     14  C   UNL     1      -1.331   3.923   2.600  0.00  0.00    +0.052 C 
ATOM     15  C   UNL     1      -0.745   3.467   1.261  0.00  0.00    -0.073 C 
ATOM     16  C   UNL     1      -2.056   1.428   1.315  0.00  0.00    -0.073 C 
ATOM     17  C   UNL     1      -2.683   1.822   2.655  0.00  0.00    +0.052 C 
ATOM     18  N   UNL     1      -0.690   1.990   1.242  0.00  0.00    +0.381 N 
ATOM     19  H   UNL     1      -0.153   1.666   2.056  0.00  0.00    -0.081 HD
ENDROOT
BRANCH   1  24
ATOM     20  C   UNL     1      -4.539   9.098  -4.123  0.00  0.00    +0.044 C 
ATOM     21  C   UNL     1      -4.512   8.089  -3.004  0.00  0.00    -0.050 A 
ATOM     22  C   UNL     1      -3.299   7.658  -2.495  0.00  0.00    +0.004 A 
ATOM     23  C   UNL     1      -3.267   6.735  -1.471  0.00  0.00    +0.010 A 
ATOM     24  C   UNL     1      -4.462   6.236  -0.947  0.00  0.00    -0.002 A 
ATOM     25  C   UNL     1      -5.682   6.671  -1.469  0.00  0.00    +0.010 A 
ATOM     26  C   UNL     1      -5.699   7.599  -2.490  0.00  0.00    +0.004 A 
ENDBRANCH   1  24
BRANCH  18  27
ATOM     27  C   UNL     1      -0.019   1.526   0.010  0.00  0.00    -0.075 C 
ATOM     28  C   UNL     1       0.002  -0.004   0.002  0.00  0.00    -0.014 C 
ATOM     29  C   UNL     1       1.417   2.055  -0.000  0.00  0.00    -0.014 C 
ENDBRANCH  18  27
TORSDOF 2
