REMARK  Name = ZINC19973137
REMARK  15 active torsions:
REMARK  status: ('A' for Active; 'I' for Inactive)
REMARK    1  A    between atoms: C_1  and  C_2
REMARK    2  A    between atoms: C_2  and  O_3
REMARK    3  A    between atoms: O_3  and  C_4
REMARK    4  A    between atoms: C_7  and  C_10
REMARK    5  A    between atoms: C_10  and  N_11
REMARK    6  A    between atoms: N_11  and  C_12
REMARK    7  A    between atoms: N_11  and  C_18
REMARK    8  A    between atoms: C_12  and  C_13
REMARK    9  A    between atoms: C_18  and  C_20
REMARK   10  A    between atoms: C_18  and  C_33
REMARK   11  A    between atoms: C_26  and  C_32
REMARK   12  A    between atoms: N_37  and  C_38
REMARK   13  A    between atoms: C_38  and  C_39
REMARK   14  A    between atoms: C_39  and  O_40
REMARK   15  A    between atoms: O_40  and  C_41
REMARK                            x       y       z     vdW  Elec       q    Type
REMARK                         _______ _______ _______ _____ _____    ______ ____
ROOT
ATOM      1  C   UNL     1      -0.149  -3.187   5.394  0.00  0.00    +0.163 C 
ENDROOT
BRANCH   1   2
ATOM      2  C   UNL     1       0.454  -2.779   4.074  0.00  0.00    +0.042 A 
ATOM      3  C   UNL     1       1.769  -2.459   4.003  0.00  0.00    +0.021 A 
ATOM      4  C   UNL     1       2.324  -2.067   2.706  0.00  0.00    -0.001 A 
ATOM      5  C   UNL     1       3.674  -1.726   2.570  0.00  0.00    +0.010 A 
ATOM      6  C   UNL     1       4.161  -1.364   1.346  0.00  0.00    +0.001 A 
ATOM      7  C   UNL     1       3.329  -1.337   0.234  0.00  0.00    +0.005 A 
ATOM      8  C   UNL     1       1.995  -1.664   0.346  0.00  0.00    -0.026 A 
ATOM      9  C   UNL     1       1.477  -2.036   1.583  0.00  0.00    +0.052 A 
ATOM     10  N   UNL     1       0.147  -2.372   1.722  0.00  0.00    -0.322 N 
ATOM     11  H   UNL     1      -0.521  -2.348   0.849  0.00  0.00    +0.169 HD
ATOM     12  C   UNL     1      -0.353  -2.732   2.917  0.00  0.00    +0.254 A 
ATOM     13  O   UNL     1      -1.534  -3.024   3.004  0.00  0.00    -0.268 OA
ATOM     14  C   UNL     1       1.102  -1.625  -0.867  0.00  0.00    +0.046 C 
ENDBRANCH   1   2
BRANCH   1  15
ATOM     15  C   UNL     1       0.941  -3.312   6.427  0.00  0.00    +0.173 A 
ATOM     16  N   UNL     1       1.570  -2.328   7.024  0.00  0.00    -0.111 NA
ATOM     17  N   UNL     1       2.428  -2.840   7.837  0.00  0.00    -0.023 NA
ATOM     18  N   UNL     1       2.362  -4.124   7.775  0.00  0.00    -0.044 NA
ATOM     19  N   UNL     1       1.453  -4.454   6.921  0.00  0.00    -0.225 N 
BRANCH  19  20
ATOM     20  C   UNL     1       1.057  -5.816   6.554  0.00  0.00    +0.175 C 
BRANCH  20  21
ATOM     21  C   UNL     1       1.911  -6.297   5.379  0.00  0.00    +0.183 C 
BRANCH  21  22
ATOM     22  O   UNL     1       1.524  -7.625   5.021  0.00  0.00    -0.381 OA
ATOM     23  C   UNL     1       2.264  -8.172   3.928  0.00  0.00    +0.194 C 
ENDBRANCH  21  22
ENDBRANCH  20  21
ENDBRANCH  19  20
ENDBRANCH   1  15
BRANCH   1  24
ATOM     24  N   UNL     1      -1.118  -2.170   5.825  0.00  0.00    -0.277 NA
BRANCH  24  25
ATOM     25  C   UNL     1      -2.392  -2.321   5.109  0.00  0.00    +0.121 C 
BRANCH  25  29
ATOM     26  C   UNL     1      -5.609  -1.142   7.662  0.00  0.00    +0.121 A 
ATOM     27  C   UNL     1      -5.069  -0.235   6.762  0.00  0.00    +0.046 A 
ATOM     28  C   UNL     1      -4.029  -0.619   5.938  0.00  0.00    +0.008 A 
ATOM     29  C   UNL     1      -3.527  -1.905   6.009  0.00  0.00    -0.033 A 
ATOM     30  C   UNL     1      -4.067  -2.812   6.902  0.00  0.00    +0.008 A 
ATOM     31  C   UNL     1      -5.104  -2.432   7.732  0.00  0.00    +0.046 A 
BRANCH  26  32
ATOM     32  O   UNL     1      -6.632  -0.767   8.475  0.00  0.00    -0.492 OA
BRANCH  32  34
ATOM     33  C   UNL     1      -8.278  -1.150  10.202  0.00  0.00    +0.048 C 
ATOM     34  C   UNL     1      -7.139  -1.752   9.377  0.00  0.00    +0.225 C 
ENDBRANCH  32  34
ENDBRANCH  26  32
ENDBRANCH  25  29
ENDBRANCH  24  25
BRANCH  24  35
ATOM     35  C   UNL     1      -0.574  -0.817   5.652  0.00  0.00    +0.160 C 
BRANCH  35  36
ATOM     36  C   UNL     1      -0.644  -0.429   4.197  0.00  0.00    +0.119 A 
ATOM     37  C   UNL     1      -1.722   0.073   3.569  0.00  0.00    +0.046 A 
ATOM     38  C   UNL     1      -1.347   0.291   2.223  0.00  0.00    +0.041 A 
ATOM     39  C   UNL     1      -0.062  -0.091   2.110  0.00  0.00    +0.195 A 
ATOM     40  O   UNL     1       0.360  -0.521   3.310  0.00  0.00    -0.467 OA
ENDBRANCH  35  36
ENDBRANCH  24  35
ENDBRANCH   1  24
TORSDOF 12
