REMARK  Name = ZINC16511788
REMARK  4 active torsions:
REMARK  status: ('A' for Active; 'I' for Inactive)
REMARK    1  A    between atoms: C_5  and  C_7
REMARK    2  A    between atoms: N_9  and  C_10
REMARK    3  A    between atoms: C_10  and  C_19
REMARK    4  A    between atoms: C_11  and  C_12
REMARK                            x       y       z     vdW  Elec       q    Type
REMARK                         _______ _______ _______ _____ _____    ______ ____
ROOT
ATOM      1  C   UNL     1      -3.654   1.647   0.113  0.00  0.00    +0.097 C 
ATOM      2  C   UNL     1      -2.479   1.017  -0.116  0.00  0.00    +0.036 C 
ENDROOT
BRANCH   1   3
ATOM      3  C   UNL     1      -4.883   0.863   0.305  0.00  0.00    +0.261 C 
ATOM      4  O   UNL     1      -5.621   0.648  -0.638  0.00  0.00    -0.269 OA
ATOM      5  N   UNL     1      -5.193   0.383   1.526  0.00  0.00    -0.300 N 
ATOM      6  C   UNL     1      -4.372   0.720   2.699  0.00  0.00    +0.089 C 
ATOM      7  C   UNL     1      -3.999  -0.572   3.424  0.00  0.00    -0.063 C 
ATOM      8  C   UNL     1      -5.902  -1.744   2.482  0.00  0.00    -0.063 C 
ATOM      9  C   UNL     1      -6.356  -0.495   1.719  0.00  0.00    +0.089 C 
ATOM     10  N   UNL     1      -5.223  -1.340   3.728  0.00  0.00    +0.381 N 
ATOM     11  H   UNL     1      -5.858  -0.757   4.286  0.00  0.00    -0.086 HD
ATOM     12  H   UNL     1      -4.970  -2.180   4.263  0.00  0.00    -0.086 HD
ENDBRANCH   1   3
BRANCH   2  13
ATOM     13  C   UNL     1      -1.287   1.795  -0.485  0.00  0.00    -0.023 A 
ATOM     14  C   UNL     1      -1.405   2.903  -1.331  0.00  0.00    +0.009 A 
ATOM     15  C   UNL     1      -0.284   3.631  -1.668  0.00  0.00    +0.016 A 
ATOM     16  C   UNL     1       0.958   3.265  -1.177  0.00  0.00    +0.018 A 
ATOM     17  C   UNL     1       1.083   2.166  -0.344  0.00  0.00    +0.016 A 
ATOM     18  C   UNL     1      -0.028   1.427   0.002  0.00  0.00    +0.009 A 
ATOM     19 BR   UNL     1       2.489   4.270  -1.646  0.00  0.00    -0.050 Br
ENDBRANCH   2  13
BRANCH   1  22
ATOM     20  C   UNL     1      -4.866   3.670   0.421  0.00  0.00    +0.250 C 
ATOM     21  O   UNL     1      -5.857   3.022   0.697  0.00  0.00    -0.270 OA
ATOM     22  N   UNL     1      -3.700   3.043   0.166  0.00  0.00    -0.277 N 
ATOM     23  H   UNL     1      -2.893   3.561   0.020  0.00  0.00    +0.155 HD
BRANCH  20  28
ATOM     24  C   UNL     1      -3.878   7.268  -0.000  0.00  0.00    +0.001 A 
ATOM     25  C   UNL     1      -5.076   7.909   0.262  0.00  0.00    +0.001 A 
ATOM     26  C   UNL     1      -6.206   7.177   0.576  0.00  0.00    +0.021 A 
ATOM     27  C   UNL     1      -6.146   5.798   0.630  0.00  0.00    +0.053 A 
ATOM     28  C   UNL     1      -4.939   5.144   0.366  0.00  0.00    +0.055 A 
ATOM     29  C   UNL     1      -3.801   5.892   0.055  0.00  0.00    +0.014 A 
ATOM     30 CL   UNL     1      -7.565   4.879   1.024  0.00  0.00    -0.083 Cl
ENDBRANCH  20  28
ENDBRANCH   1  22
TORSDOF 4
