REMARK  Name = ZINC21243544
REMARK  7 active torsions:
REMARK  status: ('A' for Active; 'I' for Inactive)
REMARK    1  A    between atoms: C_4  and  N_7
REMARK    2  A    between atoms: C_8  and  C_26
REMARK    3  A    between atoms: C_11  and  S_12
REMARK    4  A    between atoms: S_12  and  C_13
REMARK    5  A    between atoms: C_13  and  C_14
REMARK    6  A    between atoms: C_17  and  C_19
REMARK    7  A    between atoms: C_26  and  N_27
REMARK                            x       y       z     vdW  Elec       q    Type
REMARK                         _______ _______ _______ _____ _____    ______ ____
ROOT
ATOM      1  N   UNL     1      -1.723   0.924   1.917  0.00  0.00    -0.276 N 
ATOM      2  C   UNL     1      -0.718   1.572   1.248  0.00  0.00    +0.122 A 
ATOM      3  N   UNL     1      -0.481   2.683   1.886  0.00  0.00    -0.135 NA
ATOM      4  N   UNL     1      -1.265   2.788   2.899  0.00  0.00    -0.122 NA
ATOM      5  C   UNL     1      -2.047   1.735   2.970  0.00  0.00    +0.197 A 
ENDROOT
BRANCH   1   9
ATOM      6  C   UNL     1      -3.435  -2.752   0.949  0.00  0.00    +0.000 A 
ATOM      7  C   UNL     1      -2.723  -2.611   2.126  0.00  0.00    +0.002 A 
ATOM      8  C   UNL     1      -2.154  -1.394   2.449  0.00  0.00    +0.026 A 
ATOM      9  C   UNL     1      -2.298  -0.312   1.591  0.00  0.00    +0.050 A 
ATOM     10  C   UNL     1      -3.018  -0.455   0.413  0.00  0.00    +0.026 A 
ATOM     11  C   UNL     1      -3.580  -1.676   0.092  0.00  0.00    +0.002 A 
ENDBRANCH   1   9
BRANCH   5  12
ATOM     12  S   UNL     1      -3.280   1.426   4.190  0.00  0.00    -0.076 S 
BRANCH  12  13
ATOM     13  C   UNL     1      -3.103   2.917   5.201  0.00  0.00    +0.175 C 
BRANCH  13  14
ATOM     14  C   UNL     1      -4.088   2.872   6.340  0.00  0.00    +0.228 A 
ATOM     15  N   UNL     1      -3.879   2.353   7.518  0.00  0.00    -0.111 NA
ATOM     16  N   UNL     1      -4.934   2.493   8.242  0.00  0.00    -0.107 NA
ATOM     17  C   UNL     1      -5.862   3.102   7.543  0.00  0.00    +0.249 A 
ATOM     18  O   UNL     1      -5.343   3.353   6.324  0.00  0.00    -0.419 OA
BRANCH  17  19
ATOM     19  C   UNL     1      -7.223   3.448   8.005  0.00  0.00    +0.052 A 
ATOM     20  C   UNL     1      -8.107   4.106   7.149  0.00  0.00    +0.014 A 
ATOM     21  C   UNL     1      -9.377   4.423   7.585  0.00  0.00    +0.001 A 
ATOM     22  C   UNL     1      -9.772   4.099   8.871  0.00  0.00    +0.001 A 
ATOM     23  C   UNL     1      -8.899   3.452   9.727  0.00  0.00    +0.016 A 
ATOM     24  C   UNL     1      -7.626   3.124   9.302  0.00  0.00    +0.030 A 
ATOM     25 BR   UNL     1      -6.434   2.241  10.473  0.00  0.00    -0.050 Br
ENDBRANCH  17  19
ENDBRANCH  13  14
ENDBRANCH  12  13
ENDBRANCH   5  12
BRANCH   2  26
ATOM     26  C   UNL     1      -0.013   1.086   0.008  0.00  0.00    -0.001 C 
BRANCH  26  27
ATOM     27  N   UNL     1      -0.723   1.572  -1.182  0.00  0.00    +0.384 N 
ATOM     28  C   UNL     1      -0.919   3.043  -1.121  0.00  0.00    -0.078 C 
ATOM     29  C   UNL     1      -1.170   3.430  -2.600  0.00  0.00    -0.020 C 
ATOM     30  C   UNL     1      -0.211   2.493  -3.369  0.00  0.00    -0.020 C 
ATOM     31  C   UNL     1       0.064   1.321  -2.409  0.00  0.00    -0.078 C 
ATOM     32  H   UNL     1      -1.681   1.032  -1.200  0.00  0.00    -0.081 HD
ENDBRANCH  26  27
ENDBRANCH   2  26
TORSDOF 7
