REMARK  Name = ZINC40493440
REMARK  6 active torsions:
REMARK  status: ('A' for Active; 'I' for Inactive)
REMARK    1  A    between atoms: C_1  and  C_2
REMARK    2  A    between atoms: C_2  and  C_4
REMARK    3  A    between atoms: C_2  and  N_14
REMARK    4  A    between atoms: N_10  and  C_11
REMARK    5  A    between atoms: N_10  and  C_12
REMARK    6  A    between atoms: C_17  and  C_20
REMARK                            x       y       z     vdW  Elec       q    Type
REMARK                         _______ _______ _______ _____ _____    ______ ____
ROOT
ATOM      1  C   UNL     1      -0.019   1.526   0.010  0.00  0.00    -0.005 C 
ATOM      2  C   UNL     1       0.002  -0.004   0.002  0.00  0.00    -0.002 C 
ENDROOT
BRANCH   2   3
ATOM      3  C   UNL     1       0.731  -0.503   1.223  0.00  0.00    +0.123 A 
ATOM      4  N   UNL     1       2.049  -0.421   1.284  0.00  0.00    -0.201 NA
ATOM      5  C   UNL     1       2.696  -0.860   2.360  0.00  0.00    +0.217 A 
ATOM      6  N   UNL     1       2.015  -1.382   3.375  0.00  0.00    -0.181 NA
ATOM      7  C   UNL     1       0.691  -1.464   3.311  0.00  0.00    +0.222 A 
ATOM      8  N   UNL     1       0.051  -1.017   2.232  0.00  0.00    -0.201 NA
ATOM      9  N   UNL     1      -0.020  -2.005   4.362  0.00  0.00    -0.306 N 
ATOM     10  C   UNL     1       0.686  -2.491   5.550  0.00  0.00    +0.132 C 
ATOM     11  C   UNL     1      -1.480  -2.094   4.290  0.00  0.00    +0.132 C 
ATOM     12  N   UNL     1       4.072  -0.774   2.422  0.00  0.00    -0.327 N 
ATOM     13  H   UNL     1       4.568  -0.393   1.681  0.00  0.00    +0.145 HD
ATOM     14  H   UNL     1       4.543  -1.095   3.207  0.00  0.00    +0.145 HD
ENDBRANCH   2   3
BRANCH   2  15
ATOM     15  N   UNL     1       0.690  -0.478  -1.207  0.00  0.00    +0.386 N 
ATOM     16  C   UNL     1      -0.016   0.017  -2.395  0.00  0.00    -0.077 C 
ATOM     17  C   UNL     1       0.741  -0.406  -3.655  0.00  0.00    -0.011 C 
ATOM     18  C   UNL     1       0.823  -1.934  -3.707  0.00  0.00    +0.016 C 
ATOM     19  C   UNL     1       1.494  -2.444  -2.428  0.00  0.00    -0.011 C 
ATOM     20  C   UNL     1       0.709  -1.946  -1.213  0.00  0.00    -0.077 C 
ATOM     21  H   UNL     1       1.637  -0.130  -1.212  0.00  0.00    -0.081 HD
BRANCH  18  22
ATOM     22  C   UNL     1       1.635  -2.356  -4.905  0.00  0.00    -0.044 A 
ATOM     23  C   UNL     1       2.952  -1.952  -5.023  0.00  0.00    +0.004 A 
ATOM     24  C   UNL     1       3.697  -2.339  -6.122  0.00  0.00    +0.000 A 
ATOM     25  C   UNL     1       3.125  -3.128  -7.102  0.00  0.00    +0.000 A 
ATOM     26  C   UNL     1       1.808  -3.532  -6.983  0.00  0.00    +0.000 A 
ATOM     27  C   UNL     1       1.065  -3.150  -5.882  0.00  0.00    +0.004 A 
ENDBRANCH  18  22
ENDBRANCH   2  15
TORSDOF 3
