REMARK  Name = ZINC64408452
REMARK  9 active torsions:
REMARK  status: ('A' for Active; 'I' for Inactive)
REMARK    1  A    between atoms: C_4  and  S_7
REMARK    2  A    between atoms: S_7  and  N_10
REMARK    3  A    between atoms: N_10  and  C_11
REMARK    4  A    between atoms: C_14  and  C_17
REMARK    5  A    between atoms: C_17  and  C_18
REMARK    6  A    between atoms: C_18  and  C_19
REMARK    7  A    between atoms: N_21  and  C_22
REMARK    8  A    between atoms: C_22  and  C_23
REMARK    9  A    between atoms: C_23  and  C_24
REMARK                            x       y       z     vdW  Elec       q    Type
REMARK                         _______ _______ _______ _____ _____    ______ ____
ROOT
ATOM      1  C   UNL     1       4.809  -3.109   5.774  0.00  0.00    +0.060 C 
ENDROOT
BRANCH   1   4
ATOM      2  C   UNL     1       3.567  -1.942   2.398  0.00  0.00    +0.251 C 
ATOM      3  N   UNL     1       4.383  -2.533   3.479  0.00  0.00    -0.261 NA
ATOM      4  C   UNL     1       3.981  -2.505   4.669  0.00  0.00    +0.027 C 
ATOM      5  C   UNL     1       2.640  -1.851   4.973  0.00  0.00    +0.123 C 
ATOM      6  S   UNL     1       2.356  -0.954   3.382  0.00  0.00    -0.112 S 
BRANCH   2   7
ATOM      7  N   UNL     1       4.378  -1.079   1.536  0.00  0.00    -0.157 NA
ATOM      8  H   UNL     1       5.174  -0.651   1.888  0.00  0.00    +0.151 HD
BRANCH   7   9
ATOM      9  S   UNL     1       3.934  -0.832  -0.041  0.00  0.00    +0.061 S 
ATOM     10  O   UNL     1       3.674  -2.114  -0.595  0.00  0.00    -0.153 OA
ATOM     11  O   UNL     1       4.890   0.060  -0.597  0.00  0.00    -0.153 OA
BRANCH   9  15
ATOM     12  C   UNL     1      -0.017   1.378   0.010  0.00  0.00    +0.000 A 
ATOM     13  C   UNL     1       1.171   2.086   0.002  0.00  0.00    +0.002 A 
ATOM     14  C   UNL     1       2.377   1.411  -0.013  0.00  0.00    +0.028 A 
ATOM     15  C   UNL     1       2.396   0.029  -0.020  0.00  0.00    +0.105 A 
ATOM     16  C   UNL     1       1.208  -0.679  -0.012  0.00  0.00    +0.028 A 
ATOM     17  C   UNL     1       0.002  -0.004   0.002  0.00  0.00    +0.002 A 
ENDBRANCH   9  15
ENDBRANCH   7   9
ENDBRANCH   2   7
ENDBRANCH   1   4
BRANCH   1  18
ATOM     18  C   UNL     1       6.096  -3.691   5.186  0.00  0.00    +0.101 C 
BRANCH  18  19
ATOM     19  C   UNL     1       6.925  -4.295   6.291  0.00  0.00    +0.213 C 
ATOM     20  O   UNL     1       6.525  -4.262   7.436  0.00  0.00    -0.276 OA
ATOM     21  N   UNL     1       8.109  -4.871   6.007  0.00  0.00    -0.315 N 
ATOM     22  H   UNL     1       8.429  -4.897   5.092  0.00  0.00    +0.149 HD
BRANCH  21  23
ATOM     23  C   UNL     1       8.915  -5.457   7.081  0.00  0.00    +0.108 C 
BRANCH  23  24
ATOM     24  C   UNL     1      10.202  -6.040   6.494  0.00  0.00    +0.052 C 
BRANCH  24  25
ATOM     25  C   UNL     1      11.030  -6.643   7.598  0.00  0.00    -0.040 C 
ATOM     26  C   UNL     1      11.053  -7.940   7.982  0.00  0.00    -0.001 A 
ATOM     27  C   UNL     1      10.339  -9.131   7.506  0.00  0.00    +0.010 A 
ATOM     28  C   UNL     1      10.575 -10.320   8.104  0.00  0.00    +0.001 A 
ATOM     29  C   UNL     1      11.483 -10.444   9.165  0.00  0.00    +0.002 A 
ATOM     30  C   UNL     1      12.176  -9.396   9.658  0.00  0.00    +0.026 A 
ATOM     31  C   UNL     1      12.006  -8.098   9.104  0.00  0.00    +0.043 A 
ATOM     32  N   UNL     1      12.551  -6.943   9.402  0.00  0.00    -0.380 N 
ATOM     33  C   UNL     1      12.010  -5.923   8.498  0.00  0.00    +0.144 C 
ATOM     34  H   UNL     1      13.207  -6.790  10.101  0.00  0.00    +0.160 HD
ENDBRANCH  24  25
ENDBRANCH  23  24
ENDBRANCH  21  23
ENDBRANCH  18  19
ENDBRANCH   1  18
TORSDOF 9
