REMARK  Name = ZINC01322474
REMARK  7 active torsions:
REMARK  status: ('A' for Active; 'I' for Inactive)
REMARK    1  A    between atoms: C_1  and  C_2
REMARK    2  A    between atoms: C_2  and  N_3
REMARK    3  A    between atoms: C_4  and  O_27
REMARK    4  A    between atoms: C_5  and  C_11
REMARK    5  A    between atoms: C_18  and  O_19
REMARK    6  A    between atoms: O_19  and  C_20
REMARK    7  A    between atoms: C_26  and  N_47
REMARK                            x       y       z     vdW  Elec       q    Type
REMARK                         _______ _______ _______ _____ _____    ______ ____
ROOT
ATOM      1  C   UNL     1      -2.834   5.882   0.139  0.00  0.00    +0.007 C 
ATOM      2  C   UNL     1      -2.388   6.542  -1.140  0.00  0.00    -0.008 A 
ATOM      3  C   UNL     1      -2.739   7.838  -1.451  0.00  0.00    -0.040 A 
ATOM      4  C   UNL     1      -2.311   8.405  -2.642  0.00  0.00    +0.053 A 
ATOM      5  C   UNL     1      -1.529   7.679  -3.525  0.00  0.00    +0.170 A 
ATOM      6  C   UNL     1      -1.170   6.372  -3.214  0.00  0.00    +0.208 A 
ATOM      7  C   UNL     1      -1.601   5.807  -2.022  0.00  0.00    +0.167 A 
ATOM      8  O   UNL     1      -0.406   5.875  -4.232  0.00  0.00    -0.449 OA
ATOM      9  C   UNL     1      -0.643   6.749  -5.352  0.00  0.00    +0.467 C 
ATOM     10  O   UNL     1      -0.992   8.003  -4.738  0.00  0.00    -0.452 OA
ATOM     11  C   UNL     1      -3.586   8.671  -0.524  0.00  0.00    +0.017 C 
ATOM     12  C   UNL     1      -4.288   7.771   0.493  0.00  0.00    -0.073 C 
ATOM     13  C   UNL     1      -3.813   6.251   2.320  0.00  0.00    -0.095 C 
ATOM     14  N   UNL     1      -3.265   6.902   1.109  0.00  0.00    +0.386 N 
ATOM     15  H   UNL     1      -2.455   7.475   1.375  0.00  0.00    -0.081 HD
ENDROOT
BRANCH   1  18
ATOM     16  N   UNL     1      -0.633   3.070   1.267  0.00  0.00    -0.291 N 
ATOM     17  C   UNL     1      -1.694   3.745   0.726  0.00  0.00    +0.202 A 
ATOM     18  C   UNL     1      -1.683   5.106   0.727  0.00  0.00    +0.069 A 
ATOM     19  C   UNL     1      -0.577   5.779   1.286  0.00  0.00    +0.279 A 
ATOM     20  O   UNL     1      -0.543   7.001   1.300  0.00  0.00    -0.265 OA
ATOM     21  N   UNL     1       0.439   5.072   1.805  0.00  0.00    -0.184 NA
ATOM     22  C   UNL     1       0.415   3.755   1.803  0.00  0.00    +0.186 A 
ATOM     23  S   UNL     1       1.766   2.864   2.500  0.00  0.00    -0.011 SA
BRANCH  16  25
ATOM     24  C   UNL     1       0.028   1.091  -0.009  0.00  0.00    +0.027 C 
ATOM     25  C   UNL     1      -0.628   1.605   1.274  0.00  0.00    +0.124 C 
ENDBRANCH  16  25
BRANCH  17  26
ATOM     26  O   UNL     1      -2.738   3.068   0.198  0.00  0.00    -0.493 OA
ATOM     27  H   UNL     1      -3.442   2.874   0.832  0.00  0.00    +0.294 HD
ENDBRANCH  17  26
ENDBRANCH   1  18
BRANCH   7  28
ATOM     28  O   UNL     1      -1.251   4.529  -1.714  0.00  0.00    -0.491 OA
ATOM     29  C   UNL     1      -2.040   3.485  -2.288  0.00  0.00    +0.277 C 
ENDBRANCH   7  28
TORSDOF 4
