REMARK  Name = ZINC44962886
REMARK  13 active torsions:
REMARK  status: ('A' for Active; 'I' for Inactive)
REMARK    1  A    between atoms: C_1  and  C_2
REMARK    2  A    between atoms: N_4  and  C_5
REMARK    3  A    between atoms: C_7  and  O_35
REMARK    4  A    between atoms: C_9  and  O_34
REMARK    5  A    between atoms: C_11  and  C_24
REMARK    6  A    between atoms: C_14  and  O_16
REMARK    7  A    between atoms: O_16  and  C_17
REMARK    8  A    between atoms: C_17  and  C_18
REMARK    9  A    between atoms: C_24  and  O_25
REMARK   10  A    between atoms: O_25  and  C_26
REMARK   11  A    between atoms: C_26  and  C_28
REMARK   12  A    between atoms: O_35  and  C_36
REMARK   13  A    between atoms: C_36  and  C_38
REMARK                            x       y       z     vdW  Elec       q    Type
REMARK                         _______ _______ _______ _____ _____    ______ ____
ROOT
ATOM      1  C   UNL     1      -1.136  -2.159   0.001  0.00  0.00    +0.172 C 
ATOM      2  C   UNL     1      -2.444  -2.685  -0.596  0.00  0.00    +0.233 C 
ATOM      3  C   UNL     1      -2.445  -4.215  -0.528  0.00  0.00    +0.189 C 
ATOM      4  C   UNL     1      -2.253  -4.653   0.926  0.00  0.00    +0.191 C 
ATOM      5  O   UNL     1      -1.033  -4.105   1.430  0.00  0.00    -0.340 OA
ATOM      6  C   UNL     1      -0.993  -2.676   1.435  0.00  0.00    +0.275 C 
ENDROOT
BRANCH   1  10
ATOM      7  C   UNL     1      -0.018   1.503   0.010  0.00  0.00    +0.109 C 
ATOM      8  C   UNL     1       0.002  -0.004   0.002  0.00  0.00    +0.210 C 
ATOM      9  O   UNL     1       1.060  -0.596  -0.011  0.00  0.00    -0.276 OA
ATOM     10  N   UNL     1      -1.156  -0.694   0.009  0.00  0.00    -0.304 N 
ATOM     11  H   UNL     1      -2.002  -0.220   0.020  0.00  0.00    +0.149 HD
ENDBRANCH   1  10
BRANCH   3  12
ATOM     12  O   UNL     1      -1.378  -4.729  -1.328  0.00  0.00    -0.385 OA
ATOM     13  H   UNL     1      -1.319  -5.694  -1.331  0.00  0.00    +0.210 HD
ENDBRANCH   3  12
BRANCH   6  14
ATOM     14  O   UNL     1      -2.066  -2.173   2.233  0.00  0.00    -0.345 OA
BRANCH  14  15
ATOM     15  C   UNL     1      -1.909  -2.408   3.634  0.00  0.00    +0.198 C 
BRANCH  15  16
ATOM     16  C   UNL     1      -3.091  -1.838   4.374  0.00  0.00    -0.022 A 
ATOM     17  C   UNL     1      -3.063  -0.530   4.820  0.00  0.00    +0.006 A 
ATOM     18  C   UNL     1      -4.147  -0.008   5.500  0.00  0.00    +0.000 A 
ATOM     19  C   UNL     1      -5.260  -0.793   5.733  0.00  0.00    +0.000 A 
ATOM     20  C   UNL     1      -5.289  -2.101   5.287  0.00  0.00    +0.000 A 
ATOM     21  C   UNL     1      -4.206  -2.622   4.603  0.00  0.00    +0.006 A 
ENDBRANCH  15  16
ENDBRANCH  14  15
ENDBRANCH   6  14
BRANCH   4  22
ATOM     22  C   UNL     1      -2.192  -6.181   0.995  0.00  0.00    +0.266 C 
BRANCH  22  23
ATOM     23  O   UNL     1      -2.130  -6.594   2.362  0.00  0.00    -0.458 OA
BRANCH  23  24
ATOM     24  C   UNL     1      -2.071  -7.919   2.598  0.00  0.00    +0.339 C 
ATOM     25  O   UNL     1      -2.073  -8.702   1.670  0.00  0.00    -0.245 OA
BRANCH  24  26
ATOM     26  C   UNL     1      -2.005  -8.419   3.987  0.00  0.00    +0.059 A 
ATOM     27  C   UNL     1      -2.008  -7.522   5.056  0.00  0.00    +0.015 A 
ATOM     28  C   UNL     1      -1.946  -7.996   6.350  0.00  0.00    +0.001 A 
ATOM     29  C   UNL     1      -1.880  -9.357   6.589  0.00  0.00    +0.000 A 
ATOM     30  C   UNL     1      -1.876 -10.252   5.534  0.00  0.00    +0.001 A 
ATOM     31  C   UNL     1      -1.944  -9.792   4.235  0.00  0.00    +0.015 A 
ENDBRANCH  24  26
ENDBRANCH  23  24
ENDBRANCH  22  23
ENDBRANCH   4  22
BRANCH   2  32
ATOM     32  O   UNL     1      -2.551  -2.265  -1.958  0.00  0.00    -0.453 OA
BRANCH  32  33
ATOM     33  C   UNL     1      -3.792  -2.073  -2.444  0.00  0.00    +0.340 C 
ATOM     34  O   UNL     1      -4.759  -2.257  -1.731  0.00  0.00    -0.245 OA
BRANCH  33  35
ATOM     35  C   UNL     1      -3.979  -1.640  -3.844  0.00  0.00    +0.059 A 
ATOM     36  C   UNL     1      -2.871  -1.433  -4.668  0.00  0.00    +0.015 A 
ATOM     37  C   UNL     1      -3.053  -1.028  -5.974  0.00  0.00    +0.001 A 
ATOM     38  C   UNL     1      -4.330  -0.826  -6.468  0.00  0.00    +0.000 A 
ATOM     39  C   UNL     1      -5.432  -1.028  -5.656  0.00  0.00    +0.001 A 
ATOM     40  C   UNL     1      -5.265  -1.440  -4.350  0.00  0.00    +0.015 A 
ENDBRANCH  33  35
ENDBRANCH  32  33
ENDBRANCH   2  32
TORSDOF 12
