REMARK  Name = ZINC08088494
REMARK  8 active torsions:
REMARK  status: ('A' for Active; 'I' for Inactive)
REMARK    1  A    between atoms: C_1  and  C_2
REMARK    2  A    between atoms: C_5  and  C_9
REMARK    3  A    between atoms: C_7  and  C_8
REMARK    4  A    between atoms: N_11  and  C_12
REMARK    5  A    between atoms: C_12  and  C_13
REMARK    6  A    between atoms: N_15  and  C_16
REMARK    7  A    between atoms: C_16  and  C_18
REMARK    8  A    between atoms: C_16  and  C_19
REMARK                            x       y       z     vdW  Elec       q    Type
REMARK                         _______ _______ _______ _____ _____    ______ ____
ROOT
ATOM      1  C   UNL     1       5.659   2.853  -1.789  0.00  0.00    +0.200 C 
ENDROOT
BRANCH   1   4
ATOM      2  C   UNL     1       7.778   3.181  -2.946  0.00  0.00    +0.244 C 
ATOM      3  O   UNL     1       7.884   1.973  -3.032  0.00  0.00    -0.270 OA
ATOM      4  N   UNL     1       6.702   3.722  -2.342  0.00  0.00    -0.303 N 
ATOM      5  H   UNL     1       6.617   4.685  -2.273  0.00  0.00    +0.150 HD
BRANCH   2  10
ATOM      6  C   UNL     1      11.873   6.591  -5.118  0.00  0.00    +0.044 C 
ATOM      7  C   UNL     1      10.801   5.698  -4.550  0.00  0.00    -0.047 A 
ATOM      8  C   UNL     1       9.696   6.256  -3.930  0.00  0.00    +0.004 A 
ATOM      9  C   UNL     1       8.709   5.445  -3.412  0.00  0.00    +0.013 A 
ATOM     10  C   UNL     1       8.830   4.057  -3.504  0.00  0.00    +0.037 A 
ATOM     11  C   UNL     1       9.947   3.501  -4.130  0.00  0.00    +0.016 A 
ATOM     12  C   UNL     1      10.925   4.324  -4.649  0.00  0.00    -0.047 A 
ATOM     13  C   UNL     1      12.130   3.724  -5.326  0.00  0.00    +0.044 C 
ENDBRANCH   2  10
ENDBRANCH   1   4
BRANCH   1  14
ATOM     14  C   UNL     1       4.575   3.700  -1.173  0.00  0.00    +0.231 C 
ATOM     15  O   UNL     1       4.664   4.909  -1.195  0.00  0.00    -0.274 OA
ATOM     16  N   UNL     1       3.506   3.113  -0.599  0.00  0.00    -0.307 N 
ATOM     17  H   UNL     1       3.434   2.146  -0.582  0.00  0.00    +0.149 HD
BRANCH  16  18
ATOM     18  C   UNL     1       2.452   3.936  -0.001  0.00  0.00    +0.101 C 
ATOM     19  C   UNL     1       2.840   4.298   1.434  0.00  0.00    +0.033 C 
BRANCH  18  20
ATOM     20  C   UNL     1       1.157   3.165   0.008  0.00  0.00    -0.014 A 
ATOM     21  C   UNL     1       1.175   1.783   0.000  0.00  0.00    +0.006 A 
ATOM     22  C   UNL     1      -0.013   1.076   0.008  0.00  0.00    +0.000 A 
ATOM     23  C   UNL     1      -1.219   1.751   0.017  0.00  0.00    +0.001 A 
ATOM     24  C   UNL     1      -1.238   3.132   0.030  0.00  0.00    +0.015 A 
ATOM     25  C   UNL     1      -0.050   3.841   0.022  0.00  0.00    +0.023 A 
ATOM     26 BR   UNL     1      -0.076   5.731   0.033  0.00  0.00    -0.050 Br
ENDBRANCH  18  20
ENDBRANCH  16  18
ENDBRANCH   1  14
TORSDOF 5
