REMARK  Name = ZINC10107627
REMARK  11 active torsions:
REMARK  status: ('A' for Active; 'I' for Inactive)
REMARK    1  A    between atoms: C_1  and  C_2
REMARK    2  A    between atoms: C_2  and  O_3
REMARK    3  A    between atoms: O_3  and  C_4
REMARK    4  A    between atoms: C_7  and  N_10
REMARK    5  A    between atoms: C_11  and  C_35
REMARK    6  A    between atoms: N_20  and  C_25
REMARK    7  A    between atoms: N_23  and  C_24
REMARK    8  A    between atoms: C_25  and  C_26
REMARK    9  A    between atoms: C_26  and  C_27
REMARK   10  A    between atoms: C_27  and  N_69
REMARK   11  A    between atoms: C_31  and  C_34
REMARK                            x       y       z     vdW  Elec       q    Type
REMARK                         _______ _______ _______ _____ _____    ______ ____
ROOT
ATOM      1  N   UNL     1      -4.665  -0.118  12.689  0.00  0.00    -0.283 N 
ATOM      2  C   UNL     1      -4.746  -1.375  12.119  0.00  0.00    +0.040 A 
ATOM      3  C   UNL     1      -3.932  -1.408  11.069  0.00  0.00    +0.116 A 
ATOM      4  N   UNL     1      -3.320  -0.173  10.952  0.00  0.00    -0.277 N 
ATOM      5  C   UNL     1      -3.774   0.619  11.952  0.00  0.00    +0.223 A 
ATOM      6  N   UNL     1      -3.200   1.810  11.861  0.00  0.00    -0.193 NA
ATOM      7  C   UNL     1      -2.370   1.836  10.822  0.00  0.00    +0.170 A 
ATOM      8  C   UNL     1      -2.420   0.582  10.214  0.00  0.00    +0.157 A 
ATOM      9  C   UNL     1      -1.628   0.339   9.080  0.00  0.00    +0.283 A 
ATOM     10  O   UNL     1      -1.655  -0.750   8.533  0.00  0.00    -0.265 OA
ATOM     11  N   UNL     1      -0.837   1.322   8.603  0.00  0.00    -0.259 N 
ATOM     12  C   UNL     1      -0.791   2.526   9.198  0.00  0.00    +0.333 A 
ATOM     13  O   UNL     1      -0.062   3.386   8.742  0.00  0.00    -0.246 OA
ATOM     14  N   UNL     1      -1.538   2.806  10.283  0.00  0.00    -0.279 N 
ATOM     15  C   UNL     1      -1.464   4.133  10.900  0.00  0.00    +0.155 C 
ATOM     16  C   UNL     1      -5.609  -2.512  12.605  0.00  0.00    +0.065 C 
ENDROOT
BRANCH   1  20
ATOM     17  C   UNL     1      -6.757   1.198  16.049  0.00  0.00    +0.121 A 
ATOM     18  C   UNL     1      -5.819   0.182  16.169  0.00  0.00    +0.047 A 
ATOM     19  C   UNL     1      -5.127  -0.254  15.057  0.00  0.00    +0.030 A 
ATOM     20  C   UNL     1      -5.368   0.325  13.818  0.00  0.00    +0.050 A 
ATOM     21  C   UNL     1      -6.302   1.345  13.699  0.00  0.00    +0.030 A 
ATOM     22  C   UNL     1      -6.999   1.776  14.811  0.00  0.00    +0.047 A 
BRANCH  17  23
ATOM     23  O   UNL     1      -7.439   1.627  17.144  0.00  0.00    -0.492 OA
BRANCH  23  25
ATOM     24  C   UNL     1      -9.051   3.022  18.282  0.00  0.00    +0.048 C 
ATOM     25  C   UNL     1      -8.389   2.676  16.947  0.00  0.00    +0.225 C 
ENDBRANCH  23  25
ENDBRANCH  17  23
ENDBRANCH   1  20
BRANCH  11  26
ATOM     26  C   UNL     1      -0.010   1.071   7.420  0.00  0.00    +0.128 C 
BRANCH  26  27
ATOM     27  C   UNL     1      -0.797   1.437   6.160  0.00  0.00    +0.003 C 
BRANCH  27  28
ATOM     28  C   UNL     1       0.067   1.175   4.925  0.00  0.00    -0.077 C 
BRANCH  28  35
ATOM     29  C   UNL     1      -2.055   0.990   3.774  0.00  0.00    -0.079 C 
ATOM     30  C   UNL     1      -2.855   1.495   2.571  0.00  0.00    -0.018 C 
ATOM     31  C   UNL     1      -2.165   1.048   1.279  0.00  0.00    -0.001 C 
ATOM     32  C   UNL     1      -0.729   1.579   1.267  0.00  0.00    -0.031 C 
ATOM     33  C   UNL     1       0.010   1.071   2.507  0.00  0.00    -0.076 C 
ATOM     34  C   UNL     1      -0.013   1.086   0.008  0.00  0.00    +0.005 C 
ATOM     35  N   UNL     1      -0.691   1.557   3.715  0.00  0.00    +0.380 N 
ATOM     36  H   UNL     1      -0.757   2.580   3.673  0.00  0.00    -0.082 HD
ENDBRANCH  28  35
ENDBRANCH  27  28
ENDBRANCH  26  27
ENDBRANCH  11  26
TORSDOF 7
