REMARK  Name = ZINC06173103
REMARK  12 active torsions:
REMARK  status: ('A' for Active; 'I' for Inactive)
REMARK    1  A    between atoms: C_1  and  C_2
REMARK    2  A    between atoms: C_5  and  S_8
REMARK    3  A    between atoms: S_8  and  C_11
REMARK    4  A    between atoms: C_11  and  N_12
REMARK    5  A    between atoms: C_13  and  C_17
REMARK    6  A    between atoms: C_17  and  C_19
REMARK    7  A    between atoms: C_17  and  N_68
REMARK    8  A    between atoms: C_19  and  C_20
REMARK    9  A    between atoms: C_19  and  C_21
REMARK   10  A    between atoms: N_24  and  C_27
REMARK   11  A    between atoms: C_29  and  C_34
REMARK   12  A    between atoms: C_32  and  C_33
REMARK                            x       y       z     vdW  Elec       q    Type
REMARK                         _______ _______ _______ _____ _____    ______ ____
ROOT
ATOM      1  C   UNL     1       5.157   6.750   0.314  0.00  0.00    +0.005 C 
ENDROOT
BRANCH   1   7
ATOM      2  C   UNL     1       4.399   6.017  -1.866  0.00  0.00    -0.059 C 
ATOM      3  C   UNL     1       3.176   5.536  -2.651  0.00  0.00    +0.086 C 
ATOM      4  N   UNL     1       2.677   4.287  -2.059  0.00  0.00    -0.333 N 
ATOM      5  C   UNL     1       2.305   4.487  -0.651  0.00  0.00    +0.086 C 
ATOM      6  C   UNL     1       3.528   4.967   0.133  0.00  0.00    -0.059 C 
ATOM      7  N   UNL     1       4.006   6.234  -0.458  0.00  0.00    +0.389 N 
ATOM      8  H   UNL     1       3.247   6.925  -0.426  0.00  0.00    -0.081 HD
BRANCH   4   9
ATOM      9  C   UNL     1       1.603   3.780  -2.793  0.00  0.00    +0.033 A 
ATOM     10  C   UNL     1       0.447   4.534  -2.948  0.00  0.00    +0.026 A 
ATOM     11  C   UNL     1      -0.614   4.029  -3.675  0.00  0.00    -0.049 A 
ATOM     12  C   UNL     1      -0.523   2.776  -4.252  0.00  0.00    +0.004 A 
ATOM     13  C   UNL     1       0.624   2.020  -4.095  0.00  0.00    +0.005 A 
ATOM     14  C   UNL     1       1.688   2.519  -3.370  0.00  0.00    -0.029 A 
ATOM     15  C   UNL     1       2.940   1.697  -3.205  0.00  0.00    +0.045 C 
ATOM     16  C   UNL     1      -1.868   4.847  -3.843  0.00  0.00    +0.044 C 
ENDBRANCH   4   9
ENDBRANCH   1   7
BRANCH   1  18
ATOM     17  N   UNL     1       7.467   5.825  -0.248  0.00  0.00    -0.209 N 
ATOM     18  C   UNL     1       6.266   5.730   0.352  0.00  0.00    +0.140 A 
ATOM     19  N   UNL     1       6.250   4.581   0.982  0.00  0.00    -0.115 NA
ATOM     20  N   UNL     1       7.380   3.997   0.772  0.00  0.00    -0.023 NA
ATOM     21  N   UNL     1       8.118   4.747   0.032  0.00  0.00    -0.042 NA
BRANCH  17  22
ATOM     22  C   UNL     1       7.944   6.943  -1.067  0.00  0.00    +0.318 C 
BRANCH  22  23
ATOM     23  S   UNL     1       8.928   8.068  -0.039  0.00  0.00    +0.017 S 
ATOM     24  O   UNL     1       8.098   8.703   0.924  0.00  0.00    -0.168 OA
ATOM     25  O   UNL     1      10.141   7.439   0.351  0.00  0.00    -0.168 OA
BRANCH  23  30
ATOM     26  C   UNL     1      10.622  12.496  -3.771  0.00  0.00    +0.044 C 
ATOM     27  C   UNL     1      10.199  11.390  -2.839  0.00  0.00    -0.050 A 
ATOM     28  C   UNL     1       9.014  11.495  -2.135  0.00  0.00    +0.005 A 
ATOM     29  C   UNL     1       8.626  10.481  -1.279  0.00  0.00    +0.027 A 
ATOM     30  C   UNL     1       9.422   9.361  -1.129  0.00  0.00    +0.090 A 
ATOM     31  C   UNL     1      10.610   9.258  -1.830  0.00  0.00    +0.027 A 
ATOM     32  C   UNL     1      10.995  10.271  -2.688  0.00  0.00    +0.005 A 
ENDBRANCH  23  30
ENDBRANCH  22  23
ENDBRANCH  17  22
ENDBRANCH   1  18
BRANCH   1  33
ATOM     33  C   UNL     1       4.699   7.059   1.740  0.00  0.00    -0.024 C 
ATOM     34  C   UNL     1       5.835   7.742   2.504  0.00  0.00    +0.006 C 
ATOM     35  C   UNL     1       3.484   7.988   1.696  0.00  0.00    +0.006 C 
ENDBRANCH   1  33
TORSDOF 7
