REMARK  Name = ZINC64066287
REMARK  8 active torsions:
REMARK  status: ('A' for Active; 'I' for Inactive)
REMARK    1  A    between atoms: C_7  and  C_10
REMARK    2  A    between atoms: C_10  and  C_12
REMARK    3  A    between atoms: C_10  and  C_30
REMARK    4  A    between atoms: C_12  and  N_13
REMARK    5  A    between atoms: C_14  and  C_16
REMARK    6  A    between atoms: C_16  and  C_17
REMARK    7  A    between atoms: C_17  and  C_19
REMARK    8  A    between atoms: C_17  and  N_26
REMARK                            x       y       z     vdW  Elec       q    Type
REMARK                         _______ _______ _______ _____ _____    ______ ____
ROOT
ATOM      1  N   UNL     1      -0.323  -4.861   1.558  0.00  0.00    -0.314 N 
ATOM      2  C   UNL     1      -0.191  -5.840   2.475  0.00  0.00    +0.215 C 
ATOM      3  O   UNL     1       0.710  -5.793   3.287  0.00  0.00    -0.276 OA
ATOM      4  H   UNL     1      -1.043  -4.898   0.909  0.00  0.00    +0.149 HD
ENDROOT
BRANCH   1   5
ATOM      5  C   UNL     1       0.622  -3.741   1.541  0.00  0.00    +0.116 C 
BRANCH   5   6
ATOM      6  C   UNL     1       0.251  -2.779   0.411  0.00  0.00    +0.066 C 
BRANCH   6  13
ATOM      7  C   UNL     1      -0.621   1.694   0.948  0.00  0.00    +0.001 A 
ATOM      8  C   UNL     1       0.529   2.496   0.942  0.00  0.00    +0.002 A 
ATOM      9  C   UNL     1       1.771   1.988   0.794  0.00  0.00    +0.026 A 
ATOM     10  C   UNL     1       1.960   0.588   0.632  0.00  0.00    +0.043 A 
ATOM     11  N   UNL     1       3.043  -0.134   0.473  0.00  0.00    -0.380 N 
ATOM     12  C   UNL     1       2.653  -1.543   0.355  0.00  0.00    +0.145 C 
ATOM     13  C   UNL     1       1.145  -1.567   0.469  0.00  0.00    -0.033 C 
ATOM     14  C   UNL     1       0.761  -0.281   0.634  0.00  0.00    -0.000 A 
ATOM     15  C   UNL     1      -0.553   0.352   0.802  0.00  0.00    +0.010 A 
ATOM     16  H   UNL     1       3.951   0.207   0.438  0.00  0.00    +0.160 HD
ENDBRANCH   6  13
BRANCH   6  17
ATOM     17  C   UNL     1       0.428  -3.470  -0.916  0.00  0.00    -0.020 A 
ATOM     18  C   UNL     1       1.668  -3.958  -1.282  0.00  0.00    +0.006 A 
ATOM     19  C   UNL     1       1.831  -4.593  -2.499  0.00  0.00    +0.000 A 
ATOM     20  C   UNL     1       0.752  -4.738  -3.352  0.00  0.00    +0.001 A 
ATOM     21  C   UNL     1      -0.488  -4.250  -2.988  0.00  0.00    +0.020 A 
ATOM     22  C   UNL     1      -0.653  -3.621  -1.767  0.00  0.00    +0.045 A 
ATOM     23 CL   UNL     1      -2.212  -3.013  -1.306  0.00  0.00    -0.083 Cl
ENDBRANCH   6  17
ENDBRANCH   5   6
ENDBRANCH   1   5
BRANCH   2  24
ATOM     24  C   UNL     1      -1.163  -6.992   2.493  0.00  0.00    +0.123 C 
BRANCH  24  25
ATOM     25  C   UNL     1      -0.792  -7.954   3.623  0.00  0.00    +0.116 C 
BRANCH  25  26
ATOM     26  C   UNL     1      -1.686  -9.166   3.564  0.00  0.00    +0.008 A 
ATOM     27  C   UNL     1      -2.829  -9.144   2.788  0.00  0.00    +0.008 A 
ATOM     28  C   UNL     1      -3.650 -10.255   2.735  0.00  0.00    +0.000 A 
ATOM     29  C   UNL     1      -3.328 -11.390   3.457  0.00  0.00    +0.003 A 
ATOM     30  C   UNL     1      -2.185 -11.414   4.233  0.00  0.00    +0.039 A 
ATOM     31  C   UNL     1      -1.359 -10.303   4.283  0.00  0.00    +0.128 A 
ATOM     32  F   UNL     1      -0.239 -10.327   5.038  0.00  0.00    -0.205 F 
ENDBRANCH  25  26
BRANCH  25  33
ATOM     33  N   UNL     1      -0.964  -7.282   4.913  0.00  0.00    -0.292 N 
ATOM     34  C   UNL     1      -2.186  -6.864   5.298  0.00  0.00    +0.298 C 
ATOM     35  O   UNL     1      -3.159  -7.126   4.618  0.00  0.00    -0.253 OA
ATOM     36  N   UNL     1      -2.329  -6.157   6.436  0.00  0.00    -0.313 N 
ATOM     37  H   UNL     1      -0.198  -7.138   5.491  0.00  0.00    +0.151 HD
ATOM     38  H   UNL     1      -1.552  -5.948   6.978  0.00  0.00    +0.146 HD
ATOM     39  H   UNL     1      -3.208  -5.856   6.713  0.00  0.00    +0.146 HD
ENDBRANCH  25  33
ENDBRANCH  24  25
ENDBRANCH   2  24
TORSDOF 8
