REMARK  Name = ZINC24804774
REMARK  13 active torsions:
REMARK  status: ('A' for Active; 'I' for Inactive)
REMARK    1  A    between atoms: C_1  and  C_2
REMARK    2  A    between atoms: C_2  and  C_4
REMARK    3  A    between atoms: C_2  and  N_11
REMARK    4  A    between atoms: C_12  and  C_14
REMARK    5  A    between atoms: C_14  and  O_15
REMARK    6  A    between atoms: O_15  and  C_16
REMARK    7  A    between atoms: C_16  and  C_18
REMARK    8  A    between atoms: C_21  and  S_24
REMARK    9  A    between atoms: S_24  and  N_27
REMARK   10  A    between atoms: N_27  and  C_28
REMARK   11  A    between atoms: C_28  and  C_29
REMARK   12  A    between atoms: C_28  and  C_30
REMARK   13  A    between atoms: C_28  and  C_31
REMARK                            x       y       z     vdW  Elec       q    Type
REMARK                         _______ _______ _______ _____ _____    ______ ____
ROOT
ATOM      1  C   UNL     1       0.763   3.330   0.584  0.00  0.00    +0.340 C 
ATOM      2  O   UNL     1       1.287   2.328   1.028  0.00  0.00    -0.245 OA
ENDROOT
BRANCH   1   3
ATOM      3  C   UNL     1      -0.710   3.429   0.523  0.00  0.00    +0.059 A 
ATOM      4  C   UNL     1      -1.315   4.582   0.019  0.00  0.00    +0.017 A 
ATOM      5  C   UNL     1      -2.691   4.664  -0.040  0.00  0.00    +0.029 A 
ATOM      6  C   UNL     1      -3.471   3.613   0.409  0.00  0.00    +0.105 A 
ATOM      7  C   UNL     1      -2.877   2.470   0.915  0.00  0.00    +0.029 A 
ATOM      8  C   UNL     1      -1.503   2.372   0.975  0.00  0.00    +0.017 A 
BRANCH   6   9
ATOM      9  S   UNL     1      -5.227   3.730   0.335  0.00  0.00    +0.059 S 
ATOM     10  O   UNL     1      -5.526   4.833  -0.509  0.00  0.00    -0.153 OA
ATOM     11  O   UNL     1      -5.711   2.419   0.076  0.00  0.00    -0.153 OA
BRANCH   9  12
ATOM     12  N   UNL     1      -5.755   4.138   1.851  0.00  0.00    -0.185 NA
ATOM     13  H   UNL     1      -6.197   3.361   2.493  0.00  0.00    +0.149 HD
BRANCH  12  14
ATOM     14  C   UNL     1      -5.438   5.455   2.407  0.00  0.00    +0.032 C 
ATOM     15  C   UNL     1      -6.154   6.537   1.597  0.00  0.00    +0.029 C 
ATOM     16  C   UNL     1      -5.901   5.519   3.864  0.00  0.00    +0.029 C 
ATOM     17  C   UNL     1      -3.926   5.686   2.342  0.00  0.00    +0.029 C 
ENDBRANCH  12  14
ENDBRANCH   9  12
ENDBRANCH   6   9
ENDBRANCH   1   3
BRANCH   1  18
ATOM     18  O   UNL     1       1.525   4.350   0.143  0.00  0.00    -0.452 OA
BRANCH  18  19
ATOM     19  C   UNL     1       2.965   4.182   0.228  0.00  0.00    +0.328 C 
BRANCH  19  21
ATOM     20  N   UNL     1       4.992   5.484  -0.328  0.00  0.00    -0.306 N 
ATOM     21  C   UNL     1       3.647   5.414  -0.307  0.00  0.00    +0.251 C 
ATOM     22  O   UNL     1       2.985   6.343  -0.720  0.00  0.00    -0.272 OA
ATOM     23  H   UNL     1       5.593   4.642   0.046  0.00  0.00    +0.149 HD
BRANCH  20  25
ATOM     24  C   UNL     1       5.764   7.729   0.263  0.00  0.00    +0.033 C 
ATOM     25  C   UNL     1       5.656   6.683  -0.849  0.00  0.00    +0.100 C 
BRANCH  25  26
ATOM     26  C   UNL     1       7.035   6.322  -1.335  0.00  0.00    -0.027 A 
ATOM     27  C   UNL     1       7.812   5.433  -0.615  0.00  0.00    +0.006 A 
ATOM     28  C   UNL     1       9.076   5.098  -1.063  0.00  0.00    +0.015 A 
ATOM     29  C   UNL     1       9.567   5.660  -2.228  0.00  0.00    +0.018 A 
ATOM     30  C   UNL     1       8.792   6.553  -2.946  0.00  0.00    +0.015 A 
ATOM     31  C   UNL     1       7.526   6.883  -2.499  0.00  0.00    +0.006 A 
ATOM     32 BR   UNL     1      11.299   5.208  -2.838  0.00  0.00    -0.050 Br
ENDBRANCH  25  26
ENDBRANCH  20  25
ENDBRANCH  19  21
ENDBRANCH  18  19
ENDBRANCH   1  18
TORSDOF 9
