REMARK  Name = ZINC35121390
REMARK  5 active torsions:
REMARK  status: ('A' for Active; 'I' for Inactive)
REMARK    1  A    between atoms: C_1  and  C_2
REMARK    2  A    between atoms: C_4  and  N_11
REMARK    3  A    between atoms: N_11  and  C_12
REMARK    4  A    between atoms: C_12  and  C_14
REMARK    5  A    between atoms: C_12  and  C_15
REMARK                            x       y       z     vdW  Elec       q    Type
REMARK                         _______ _______ _______ _____ _____    ______ ____
ROOT
ATOM      1  N   UNL     1      -2.299  -2.720   0.265  0.00  0.00    -0.322 N 
ATOM      2  H   UNL     1      -2.193  -3.682   0.330  0.00  0.00    +0.148 HD
ENDROOT
BRANCH   1   6
ATOM      3  C   UNL     1      -0.340   1.776   0.388  0.00  0.00    +0.066 C 
ATOM      4  C   UNL     1      -0.212   0.278   0.482  0.00  0.00    +0.045 A 
ATOM      5  C   UNL     1      -1.341  -0.524   0.325  0.00  0.00    +0.066 A 
ATOM      6  C   UNL     1      -1.206  -1.896   0.414  0.00  0.00    +0.126 A 
ATOM      7  N   UNL     1       0.032  -2.419   0.654  0.00  0.00    -0.183 N 
ATOM      8  C   UNL     1       1.111  -1.592   0.801  0.00  0.00    +0.255 A 
ATOM      9  N   UNL     1       0.966  -0.266   0.707  0.00  0.00    -0.216 NA
ATOM     10  N   UNL     1       2.169  -2.365   1.022  0.00  0.00    -0.197 NA
ATOM     11  C   UNL     1       1.802  -3.640   1.020  0.00  0.00    +0.247 A 
ATOM     12  N   UNL     1       0.512  -3.726   0.801  0.00  0.00    -0.151 NA
ENDBRANCH   1   6
BRANCH   1  13
ATOM     13  C   UNL     1      -3.621  -2.143   0.009  0.00  0.00    +0.100 C 
ATOM     14  C   UNL     1      -3.793  -1.910  -1.494  0.00  0.00    +0.033 C 
BRANCH  13  15
ATOM     15  C   UNL     1      -4.686  -3.092   0.495  0.00  0.00    -0.009 A 
ATOM     16  C   UNL     1      -4.429  -4.450   0.550  0.00  0.00    +0.008 A 
ATOM     17  C   UNL     1      -5.405  -5.321   0.996  0.00  0.00    +0.020 A 
ATOM     18  C   UNL     1      -6.639  -4.835   1.388  0.00  0.00    +0.042 A 
ATOM     19  C   UNL     1      -6.897  -3.477   1.334  0.00  0.00    +0.040 A 
ATOM     20  C   UNL     1      -5.918  -2.605   0.892  0.00  0.00    +0.047 A 
ATOM     21 CL   UNL     1      -6.238  -0.900   0.829  0.00  0.00    -0.083 Cl
ATOM     22 CL   UNL     1      -7.865  -5.929   1.948  0.00  0.00    -0.083 Cl
ENDBRANCH  13  15
ENDBRANCH   1  13
TORSDOF 3
