REMARK  Name = ZINC36704307
REMARK  7 active torsions:
REMARK  status: ('A' for Active; 'I' for Inactive)
REMARK    1  A    between atoms: C_1  and  C_2
REMARK    2  A    between atoms: C_2  and  N_3
REMARK    3  A    between atoms: C_9  and  N_14
REMARK    4  A    between atoms: C_10  and  C_11
REMARK    5  A    between atoms: C_15  and  C_17
REMARK    6  A    between atoms: N_20  and  S_23
REMARK    7  A    between atoms: S_23  and  C_26
REMARK                            x       y       z     vdW  Elec       q    Type
REMARK                         _______ _______ _______ _____ _____    ______ ____
ROOT
ATOM      1  N   UNL     1       5.522  -1.827  -5.042  0.00  0.00    -0.279 N 
ATOM      2  C   UNL     1       6.624  -1.052  -5.032  0.00  0.00    +0.221 C 
ATOM      3  O   UNL     1       6.718  -0.142  -4.236  0.00  0.00    -0.275 OA
ATOM      4  H   UNL     1       5.447  -2.555  -5.679  0.00  0.00    +0.155 HD
ENDROOT
BRANCH   1  11
ATOM      5  N   UNL     1       0.690  -0.478  -1.207  0.00  0.00    +0.383 N 
ATOM      6  C   UNL     1       0.601  -1.942  -1.277  0.00  0.00    -0.074 C 
ATOM      7  C   UNL     1       1.029  -2.431  -2.665  0.00  0.00    +0.018 C 
ATOM      8  C   UNL     1       2.386  -1.818  -2.979  0.00  0.00    -0.027 A 
ATOM      9  C   UNL     1       2.832  -0.755  -2.272  0.00  0.00    -0.021 A 
ATOM     10  S   UNL     1       4.416  -0.390  -2.964  0.00  0.00    -0.079 S 
ATOM     11  C   UNL     1       4.496  -1.585  -4.142  0.00  0.00    +0.084 A 
ATOM     12  C   UNL     1       3.299  -2.275  -4.008  0.00  0.00    +0.068 A 
ATOM     13  C   UNL     1       2.106  -0.068  -1.158  0.00  0.00    -0.035 C 
ATOM     14  H   UNL     1       0.251  -0.076  -2.022  0.00  0.00    -0.081 HD
BRANCH  12  15
ATOM     15  C   UNL     1       2.973  -3.415  -4.869  0.00  0.00    +0.244 C 
ATOM     16  O   UNL     1       2.384  -3.236  -5.919  0.00  0.00    -0.270 OA
ATOM     17  N   UNL     1       3.325  -4.662  -4.499  0.00  0.00    -0.325 N 
ATOM     18  H   UNL     1       3.794  -4.805  -3.662  0.00  0.00    +0.145 HD
ATOM     19  H   UNL     1       3.109  -5.417  -5.069  0.00  0.00    +0.145 HD
ENDBRANCH  12  15
BRANCH   5  21
ATOM     20  C   UNL     1      -0.019   1.526   0.010  0.00  0.00    -0.017 C 
ATOM     21  C   UNL     1       0.002  -0.004   0.002  0.00  0.00    -0.082 C 
ENDBRANCH   5  21
ENDBRANCH   1  11
BRANCH   2  22
ATOM     22  C   UNL     1       7.740  -1.315  -6.011  0.00  0.00    +0.078 C 
ATOM     23  C   UNL     1       8.281  -2.730  -5.799  0.00  0.00    +0.030 C 
ATOM     24  C   UNL     1       9.391  -3.006  -6.818  0.00  0.00    +0.110 C 
ATOM     25  N   UNL     1      10.406  -1.950  -6.709  0.00  0.00    -0.176 NA
ATOM     26  C   UNL     1       9.979  -0.547  -6.808  0.00  0.00    +0.110 C 
ATOM     27  C   UNL     1       8.863  -0.299  -5.789  0.00  0.00    +0.030 C 
BRANCH  25  28
ATOM     28  S   UNL     1      12.001  -2.332  -6.479  0.00  0.00    +0.067 S 
ATOM     29  O   UNL     1      12.607  -1.199  -5.872  0.00  0.00    -0.152 OA
ATOM     30  O   UNL     1      12.027  -3.622  -5.882  0.00  0.00    -0.152 OA
BRANCH  28  31
ATOM     31  C   UNL     1      12.731  -2.501  -8.073  0.00  0.00    +0.144 A 
ATOM     32  C   UNL     1      13.335  -1.560  -8.839  0.00  0.00    +0.038 A 
ATOM     33  C   UNL     1      13.843  -1.923 -10.073  0.00  0.00    +0.030 A 
ATOM     34  C   UNL     1      13.721  -3.212 -10.479  0.00  0.00    +0.080 A 
ATOM     35  S   UNL     1      12.875  -3.958  -9.095  0.00  0.00    -0.057 S 
ATOM     36 CL   UNL     1      14.255  -3.946 -11.959  0.00  0.00    -0.076 Cl
ENDBRANCH  28  31
ENDBRANCH  25  28
ENDBRANCH   2  22
TORSDOF 6
