REMARK  Name = ZINC09272604
REMARK  10 active torsions:
REMARK  status: ('A' for Active; 'I' for Inactive)
REMARK    1  A    between atoms: C_1  and  N_2
REMARK    2  A    between atoms: N_2  and  C_3
REMARK    3  A    between atoms: N_2  and  S_4
REMARK    4  A    between atoms: S_4  and  C_7
REMARK    5  A    between atoms: C_10  and  C_13
REMARK    6  A    between atoms: N_18  and  N_19
REMARK    7  A    between atoms: C_20  and  C_21
REMARK    8  A    between atoms: C_24  and  O_29
REMARK    9  A    between atoms: C_25  and  O_27
REMARK   10  A    between atoms: O_27  and  C_28
REMARK                            x       y       z     vdW  Elec       q    Type
REMARK                         _______ _______ _______ _____ _____    ______ ____
ROOT
ATOM      1  C   UNL     1       5.737  -1.627  -3.036  0.00  0.00    +0.055 A 
ATOM      2  C   UNL     1       6.369  -0.699  -3.786  0.00  0.00    +0.075 A 
ATOM      3  S   UNL     1       7.997  -1.410  -3.967  0.00  0.00    -0.056 S 
ATOM      4  C   UNL     1       7.720  -2.903  -3.025  0.00  0.00    +0.192 A 
ATOM      5  N   UNL     1       6.411  -2.747  -2.638  0.00  0.00    -0.332 N 
ATOM      6  N   UNL     1       8.558  -3.895  -2.765  0.00  0.00    -0.124 NA
ATOM      7  H   UNL     1       5.972  -3.422  -2.096  0.00  0.00    +0.168 HD
ENDROOT
BRANCH   1  11
ATOM      8  C   UNL     1       1.682  -1.059  -1.905  0.00  0.00    +0.105 A 
ATOM      9  C   UNL     1       2.321  -0.106  -2.678  0.00  0.00    +0.029 A 
ATOM     10  C   UNL     1       3.638  -0.284  -3.048  0.00  0.00    +0.012 A 
ATOM     11  C   UNL     1       4.325  -1.429  -2.642  0.00  0.00    -0.001 A 
ATOM     12  C   UNL     1       3.675  -2.386  -1.862  0.00  0.00    +0.012 A 
ATOM     13  C   UNL     1       2.359  -2.194  -1.494  0.00  0.00    +0.029 A 
BRANCH   8  14
ATOM     14  S   UNL     1      -0.000  -0.824  -1.437  0.00  0.00    +0.060 S 
ATOM     15  O   UNL     1      -0.531  -2.115  -1.167  0.00  0.00    -0.153 OA
ATOM     16  O   UNL     1      -0.572   0.049  -2.401  0.00  0.00    -0.153 OA
BRANCH  14  18
ATOM     17  C   UNL     1      -0.018   1.461   0.010  0.00  0.00    +0.131 C 
ATOM     18  N   UNL     1       0.002  -0.004   0.002  0.00  0.00    -0.183 NA
ATOM     19  C   UNL     1       0.024  -0.743   1.267  0.00  0.00    +0.131 C 
ENDBRANCH  14  18
ENDBRANCH   8  14
ENDBRANCH   1  11
BRANCH   6  20
ATOM     20  N   UNL     1       9.765  -3.856  -3.218  0.00  0.00    -0.155 NA
ATOM     21  C   UNL     1      10.591  -4.835  -2.961  0.00  0.00    +0.143 C 
BRANCH  21  22
ATOM     22  C   UNL     1      11.968  -4.790  -3.478  0.00  0.00    -0.002 A 
ATOM     23  C   UNL     1      12.396  -3.698  -4.240  0.00  0.00    +0.013 A 
ATOM     24  C   UNL     1      13.687  -3.659  -4.723  0.00  0.00    +0.050 A 
ATOM     25  C   UNL     1      14.563  -4.701  -4.455  0.00  0.00    +0.158 A 
ATOM     26  C   UNL     1      14.145  -5.792  -3.698  0.00  0.00    +0.162 A 
ATOM     27  C   UNL     1      12.854  -5.838  -3.204  0.00  0.00    +0.059 A 
BRANCH  26  28
ATOM     28  O   UNL     1      15.007  -6.811  -3.439  0.00  0.00    -0.491 OA
ATOM     29  C   UNL     1      14.511  -7.898  -2.655  0.00  0.00    +0.277 C 
ENDBRANCH  26  28
BRANCH  25  30
ATOM     30  O   UNL     1      15.835  -4.656  -4.934  0.00  0.00    -0.503 OA
ATOM     31  H   UNL     1      16.466  -4.232  -4.336  0.00  0.00    +0.292 HD
ENDBRANCH  25  30
ENDBRANCH  21  22
ENDBRANCH   6  20
TORSDOF 7
