REMARK  Name = ZINC12788677
REMARK  8 active torsions:
REMARK  status: ('A' for Active; 'I' for Inactive)
REMARK    1  A    between atoms: C_4  and  C_7
REMARK    2  A    between atoms: C_7  and  N_8
REMARK    3  A    between atoms: C_9  and  C_11
REMARK    4  A    between atoms: C_16  and  S_17
REMARK    5  A    between atoms: S_17  and  C_18
REMARK    6  A    between atoms: C_19  and  C_33
REMARK    7  A    between atoms: C_21  and  C_24
REMARK    8  A    between atoms: C_24  and  C_26
REMARK                            x       y       z     vdW  Elec       q    Type
REMARK                         _______ _______ _______ _____ _____    ______ ____
ROOT
ATOM      1  S   UNL     1      -1.696   4.701   0.107  0.00  0.00    -0.070 S 
ENDROOT
BRANCH   1   7
ATOM      2  C   UNL     1      -0.383   7.103   0.367  0.00  0.00    +0.050 A 
ATOM      3  C   UNL     1       0.766   7.894   0.449  0.00  0.00    +0.014 A 
ATOM      4  C   UNL     1       2.011   7.309   0.362  0.00  0.00    +0.001 A 
ATOM      5  C   UNL     1       2.131   5.938   0.198  0.00  0.00    +0.001 A 
ATOM      6  C   UNL     1       1.006   5.143   0.120  0.00  0.00    +0.016 A 
ATOM      7  C   UNL     1      -0.258   5.714   0.206  0.00  0.00    +0.026 A 
BRANCH   2   9
ATOM      8  N   UNL     1      -1.833   9.057   0.607  0.00  0.00    -0.307 N 
ATOM      9  C   UNL     1      -1.718   7.723   0.453  0.00  0.00    +0.245 C 
ATOM     10  O   UNL     1      -2.715   7.030   0.385  0.00  0.00    -0.270 OA
ATOM     11  H   UNL     1      -1.037   9.609   0.661  0.00  0.00    +0.149 HD
BRANCH   8  12
ATOM     12  C   UNL     1      -3.159   9.673   0.693  0.00  0.00    +0.139 C 
BRANCH  12  16
ATOM     13  C   UNL     1      -2.740  13.896   1.173  0.00  0.00    +0.000 A 
ATOM     14  C   UNL     1      -2.822  13.349  -0.094  0.00  0.00    +0.000 A 
ATOM     15  C   UNL     1      -2.957  11.982  -0.249  0.00  0.00    +0.005 A 
ATOM     16  C   UNL     1      -3.011  11.163   0.862  0.00  0.00    -0.030 A 
ATOM     17  C   UNL     1      -2.935  11.710   2.129  0.00  0.00    +0.005 A 
ATOM     18  C   UNL     1      -2.794  13.077   2.284  0.00  0.00    +0.000 A 
ENDBRANCH  12  16
ENDBRANCH   8  12
ENDBRANCH   2   9
ENDBRANCH   1   7
BRANCH   1  19
ATOM     19  C   UNL     1      -2.135   4.626   1.812  0.00  0.00    +0.096 A 
ATOM     20  C   UNL     1      -3.174   3.866   2.358  0.00  0.00    +0.084 A 
ATOM     21  C   UNL     1      -3.176   4.099   3.746  0.00  0.00    +0.051 A 
ATOM     22  C   UNL     1      -2.149   4.978   4.015  0.00  0.00    +0.089 A 
ATOM     23  N   UNL     1      -1.520   5.291   2.822  0.00  0.00    -0.346 N 
ATOM     24  H   UNL     1      -0.763   5.890   2.724  0.00  0.00    +0.167 HD
BRANCH  22  25
ATOM     25  C   UNL     1      -1.796   5.476   5.295  0.00  0.00    +0.209 C 
ATOM     26  O   UNL     1      -2.644   5.580   6.163  0.00  0.00    -0.285 OA
BRANCH  25  27
ATOM     27  C   UNL     1      -0.398   5.868   5.577  0.00  0.00    +0.024 A 
ATOM     28  C   UNL     1       0.605   5.607   4.641  0.00  0.00    +0.013 A 
ATOM     29  C   UNL     1       1.905   5.980   4.907  0.00  0.00    +0.016 A 
ATOM     30  C   UNL     1       2.220   6.602   6.104  0.00  0.00    +0.018 A 
ATOM     31  C   UNL     1       1.230   6.859   7.038  0.00  0.00    +0.016 A 
ATOM     32  C   UNL     1      -0.075   6.495   6.781  0.00  0.00    +0.013 A 
ATOM     33 BR   UNL     1       4.007   7.104   6.463  0.00  0.00    -0.050 Br
ENDBRANCH  25  27
ENDBRANCH  22  25
BRANCH  20  34
ATOM     34  C   UNL     1      -4.070   3.011   1.638  0.00  0.00    +0.102 C 
ATOM     35  N   UNL     1      -4.781   2.333   1.068  0.00  0.00    -0.191 NA
ENDBRANCH  20  34
ENDBRANCH   1  19
TORSDOF 8
