REMARK  Name = ZINC36584036
REMARK  11 active torsions:
REMARK  status: ('A' for Active; 'I' for Inactive)
REMARK    1  A    between atoms: C_1  and  C_2
REMARK    2  A    between atoms: C_2  and  C_3
REMARK    3  A    between atoms: C_2  and  C_4
REMARK    4  A    between atoms: C_2  and  N_5
REMARK    5  A    between atoms: N_5  and  C_6
REMARK    6  A    between atoms: C_6  and  C_8
REMARK    7  A    between atoms: C_6  and  C_15
REMARK    8  A    between atoms: C_12  and  O_14
REMARK    9  A    between atoms: N_17  and  C_18
REMARK   10  A    between atoms: C_24  and  C_26
REMARK   11  A    between atoms: C_31  and  O_32
REMARK                            x       y       z     vdW  Elec       q    Type
REMARK                         _______ _______ _______ _____ _____    ______ ____
ROOT
ATOM      1  C   UNL     1       1.343  -1.524   0.260  0.00  0.00    +0.193 C 
ENDROOT
BRANCH   1   2
ATOM      2  C   UNL     1       1.672  -2.821   0.954  0.00  0.00    -0.015 A 
ATOM      3  C   UNL     1       0.668  -3.557   1.557  0.00  0.00    +0.006 A 
ATOM      4  C   UNL     1       0.967  -4.747   2.194  0.00  0.00    +0.004 A 
ATOM      5  C   UNL     1       2.271  -5.204   2.230  0.00  0.00    +0.045 A 
ATOM      6  C   UNL     1       3.280  -4.468   1.626  0.00  0.00    +0.117 A 
ATOM      7  C   UNL     1       2.976  -3.277   0.982  0.00  0.00    +0.051 A 
BRANCH   6   8
ATOM      8  O   UNL     1       4.562  -4.915   1.660  0.00  0.00    -0.507 OA
ATOM      9  H   UNL     1       4.801  -5.483   0.914  0.00  0.00    +0.292 HD
ENDBRANCH   6   8
ENDBRANCH   1   2
BRANCH   1  10
ATOM     10  C   UNL     1       1.460  -0.386   1.241  0.00  0.00    +0.238 C 
ATOM     11  O   UNL     1       0.503   0.325   1.462  0.00  0.00    -0.273 OA
ATOM     12  N   UNL     1       2.629  -0.159   1.873  0.00  0.00    -0.311 N 
ATOM     13  H   UNL     1       3.394  -0.728   1.696  0.00  0.00    +0.149 HD
BRANCH  12  14
ATOM     14  C   UNL     1       2.743   0.947   2.826  0.00  0.00    +0.073 C 
ATOM     15  C   UNL     1       3.068   2.239   2.072  0.00  0.00    +0.022 C 
ATOM     16  C   UNL     1       3.187   3.394   3.068  0.00  0.00    +0.002 C 
ATOM     17  C   UNL     1       4.305   3.092   4.068  0.00  0.00    +0.000 C 
ATOM     18  C   UNL     1       3.980   1.801   4.822  0.00  0.00    +0.002 C 
ATOM     19  C   UNL     1       3.861   0.646   3.826  0.00  0.00    +0.022 C 
ENDBRANCH  12  14
ENDBRANCH   1  10
BRANCH   1  20
ATOM     20  N   UNL     1      -0.026  -1.582  -0.259  0.00  0.00    -0.277 N 
ATOM     21  C   UNL     1      -1.043  -1.924   0.558  0.00  0.00    +0.251 C 
ATOM     22  O   UNL     1      -0.976  -1.679   1.747  0.00  0.00    -0.270 OA
BRANCH  21  23
ATOM     23  C   UNL     1      -2.236  -2.596   0.009  0.00  0.00    +0.078 A 
ATOM     24  C   UNL     1      -2.423  -2.677  -1.373  0.00  0.00    +0.017 A 
ATOM     25  C   UNL     1      -3.539  -3.306  -1.880  0.00  0.00    +0.001 A 
ATOM     26  C   UNL     1      -4.479  -3.859  -1.024  0.00  0.00    +0.004 A 
ATOM     27  C   UNL     1      -4.306  -3.786   0.344  0.00  0.00    +0.046 A 
ATOM     28  C   UNL     1      -3.186  -3.161   0.871  0.00  0.00    +0.129 A 
BRANCH  28  29
ATOM     29  O   UNL     1      -3.012  -3.093   2.214  0.00  0.00    -0.506 OA
ATOM     30  H   UNL     1      -3.402  -2.307   2.622  0.00  0.00    +0.292 HD
ENDBRANCH  28  29
ENDBRANCH  21  23
BRANCH  20  32
ATOM     31  C   UNL     1       0.755  -0.273  -2.171  0.00  0.00    +0.031 C 
ATOM     32  C   UNL     1      -0.290  -1.269  -1.665  0.00  0.00    +0.030 C 
ATOM     33  C   UNL     1      -1.685  -0.656  -1.798  0.00  0.00    +0.031 C 
ATOM     34  C   UNL     1      -0.215  -2.552  -2.496  0.00  0.00    +0.031 C 
ENDBRANCH  20  32
ENDBRANCH   1  20
TORSDOF 8
