REMARK  Name = ZINC09597442
REMARK  11 active torsions:
REMARK  status: ('A' for Active; 'I' for Inactive)
REMARK    1  A    between atoms: C_1  and  C_2
REMARK    2  A    between atoms: C_5  and  N_9
REMARK    3  A    between atoms: C_6  and  C_8
REMARK    4  A    between atoms: C_10  and  C_12
REMARK    5  A    between atoms: C_13  and  C_38
REMARK    6  A    between atoms: C_17  and  S_30
REMARK    7  A    between atoms: C_20  and  C_22
REMARK    8  A    between atoms: C_25  and  S_28
REMARK    9  A    between atoms: S_28  and  C_29
REMARK   10  A    between atoms: S_30  and  C_31
REMARK   11  A    between atoms: C_31  and  C_32
REMARK                            x       y       z     vdW  Elec       q    Type
REMARK                         _______ _______ _______ _____ _____    ______ ____
ROOT
ATOM      1  C   UNL     1      -2.669   3.400   7.018  0.00  0.00    +0.060 C 
ATOM      2  C   UNL     1      -1.948   3.621   8.127  0.00  0.00    +0.018 C 
ATOM      3  N   UNL     1      -2.529   3.990   9.316  0.00  0.00    -0.287 N 
ATOM      4  C   UNL     1      -3.863   4.374   9.284  0.00  0.00    +0.219 A 
ATOM      5  N   UNL     1      -4.588   4.966  10.194  0.00  0.00    -0.187 NA
ATOM      6  C   UNL     1      -5.830   5.153   9.724  0.00  0.00    +0.211 A 
ATOM      7  N   UNL     1      -5.903   4.674   8.501  0.00  0.00    -0.141 NA
ATOM      8  N   UNL     1      -4.643   4.162   8.196  0.00  0.00    -0.220 N 
ATOM      9  C   UNL     1      -4.170   3.509   6.978  0.00  0.00    +0.177 C 
ATOM     10  C   UNL     1      -0.450   3.466   8.066  0.00  0.00    +0.061 C 
ATOM     11  H   UNL     1      -2.028   3.978  10.146  0.00  0.00    +0.155 HD
ENDROOT
BRANCH   9  12
ATOM     12  C   UNL     1      -4.771   2.131   6.879  0.00  0.00    -0.018 A 
ATOM     13  C   UNL     1      -4.526   1.199   7.870  0.00  0.00    +0.007 A 
ATOM     14  C   UNL     1      -5.080  -0.063   7.786  0.00  0.00    +0.015 A 
ATOM     15  C   UNL     1      -5.876  -0.399   6.698  0.00  0.00    +0.008 A 
ATOM     16  C   UNL     1      -6.117   0.539   5.701  0.00  0.00    +0.015 A 
ATOM     17  C   UNL     1      -5.564   1.801   5.795  0.00  0.00    +0.007 A 
BRANCH  15  18
ATOM     18  S   UNL     1      -6.579  -2.011   6.582  0.00  0.00    -0.129 S 
ATOM     19  C   UNL     1      -5.995  -2.853   8.079  0.00  0.00    +0.090 C 
ENDBRANCH  15  18
ENDBRANCH   9  12
BRANCH   1  21
ATOM     20  N   UNL     1      -2.667   2.912   4.676  0.00  0.00    -0.281 N 
ATOM     21  C   UNL     1      -1.987   3.041   5.832  0.00  0.00    +0.248 C 
ATOM     22  O   UNL     1      -0.784   2.847   5.855  0.00  0.00    -0.270 OA
ATOM     23  H   UNL     1      -3.608   3.145   4.638  0.00  0.00    +0.155 HD
BRANCH  20  28
ATOM     24  C   UNL     1      -0.030   1.009   0.028  0.00  0.00    +0.044 C 
ATOM     25  C   UNL     1      -0.731   1.514   1.263  0.00  0.00    -0.050 A 
ATOM     26  C   UNL     1      -0.247   1.182   2.515  0.00  0.00    +0.005 A 
ATOM     27  C   UNL     1      -0.887   1.644   3.649  0.00  0.00    +0.024 A 
ATOM     28  C   UNL     1      -2.017   2.442   3.530  0.00  0.00    +0.037 A 
ATOM     29  C   UNL     1      -2.500   2.774   2.271  0.00  0.00    -0.029 A 
ATOM     30  C   UNL     1      -1.853   2.313   1.141  0.00  0.00    +0.008 A 
ATOM     31  C   UNL     1      -3.726   3.640   2.137  0.00  0.00    +0.045 C 
ENDBRANCH  20  28
ENDBRANCH   1  21
BRANCH   6  32
ATOM     32  S   UNL     1      -7.152   5.917  10.603  0.00  0.00    -0.080 S 
BRANCH  32  33
ATOM     33  C   UNL     1      -6.421   6.351  12.206  0.00  0.00    +0.112 C 
BRANCH  33  34
ATOM     34  C   UNL     1      -7.460   7.021  13.067  0.00  0.00    -0.037 A 
ATOM     35  C   UNL     1      -7.607   8.395  13.029  0.00  0.00    +0.004 A 
ATOM     36  C   UNL     1      -8.564   9.010  13.816  0.00  0.00    +0.000 A 
ATOM     37  C   UNL     1      -9.366   8.251  14.648  0.00  0.00    +0.000 A 
ATOM     38  C   UNL     1      -9.215   6.878  14.690  0.00  0.00    +0.000 A 
ATOM     39  C   UNL     1      -8.262   6.263  13.899  0.00  0.00    +0.004 A 
ENDBRANCH  33  34
ENDBRANCH  32  33
ENDBRANCH   6  32
TORSDOF 7
