REMARK  Name = ZINC08613626
REMARK  11 active torsions:
REMARK  status: ('A' for Active; 'I' for Inactive)
REMARK    1  A    between atoms: C_1  and  C_2
REMARK    2  A    between atoms: C_2  and  O_3
REMARK    3  A    between atoms: O_3  and  C_4
REMARK    4  A    between atoms: C_7  and  N_10
REMARK    5  A    between atoms: N_10  and  S_21
REMARK    6  A    between atoms: C_11  and  C_13
REMARK    7  A    between atoms: C_16  and  O_19
REMARK    8  A    between atoms: O_19  and  C_20
REMARK    9  A    between atoms: S_21  and  C_24
REMARK   10  A    between atoms: N_30  and  C_35
REMARK   11  A    between atoms: N_33  and  C_34
REMARK                            x       y       z     vdW  Elec       q    Type
REMARK                         _______ _______ _______ _____ _____    ______ ____
ROOT
ATOM      1  N   UNL     1       1.341  -6.080  -1.413  0.00  0.00    -0.135 N 
ATOM      2  C   UNL     1       0.187  -6.775  -1.389  0.00  0.00    +0.270 C 
ATOM      3  O   UNL     1       0.087  -7.810  -2.020  0.00  0.00    -0.268 OA
ENDROOT
BRANCH   1   7
ATOM      4  C   UNL     1       1.731  -2.607   0.861  0.00  0.00    +0.121 A 
ATOM      5  C   UNL     1       1.250  -3.769   1.447  0.00  0.00    +0.047 A 
ATOM      6  C   UNL     1       1.121  -4.920   0.695  0.00  0.00    +0.029 A 
ATOM      7  C   UNL     1       1.472  -4.913  -0.649  0.00  0.00    +0.060 A 
ATOM      8  C   UNL     1       1.953  -3.750  -1.235  0.00  0.00    +0.029 A 
ATOM      9  C   UNL     1       2.077  -2.599  -0.482  0.00  0.00    +0.047 A 
BRANCH   4  10
ATOM     10  O   UNL     1       1.857  -1.474   1.603  0.00  0.00    -0.492 OA
BRANCH  10  12
ATOM     11  C   UNL     1       1.693  -0.194   3.646  0.00  0.00    +0.048 C 
ATOM     12  C   UNL     1       1.483  -1.555   2.979  0.00  0.00    +0.225 C 
ENDBRANCH  10  12
ENDBRANCH   4  10
ENDBRANCH   1   7
BRANCH   2  13
ATOM     13  C   UNL     1      -0.956  -6.281  -0.597  0.00  0.00    +0.039 A 
ATOM     14  C   UNL     1      -1.037  -4.930  -0.251  0.00  0.00    +0.017 A 
ATOM     15  C   UNL     1      -2.105  -4.473   0.488  0.00  0.00    +0.046 A 
ATOM     16  C   UNL     1      -3.101  -5.354   0.891  0.00  0.00    +0.120 A 
ATOM     17  C   UNL     1      -3.025  -6.699   0.550  0.00  0.00    +0.046 A 
ATOM     18  C   UNL     1      -1.963  -7.163  -0.195  0.00  0.00    +0.017 A 
BRANCH  16  19
ATOM     19  O   UNL     1      -4.152  -4.899   1.620  0.00  0.00    -0.495 OA
ATOM     20  C   UNL     1      -5.141  -5.859   2.001  0.00  0.00    +0.277 C 
ENDBRANCH  16  19
ENDBRANCH   2  13
BRANCH   1  21
ATOM     21  S   UNL     1       2.605  -6.605  -2.345  0.00  0.00    +0.081 S 
ATOM     22  O   UNL     1       3.775  -5.981  -1.832  0.00  0.00    -0.149 OA
ATOM     23  O   UNL     1       2.477  -8.017  -2.445  0.00  0.00    -0.149 OA
BRANCH  21  24
ATOM     24  C   UNL     1       2.360  -5.960  -3.966  0.00  0.00    +0.111 A 
ATOM     25  C   UNL     1       1.492  -6.597  -4.837  0.00  0.00    +0.031 A 
ATOM     26  C   UNL     1       1.293  -6.099  -6.109  0.00  0.00    +0.030 A 
ATOM     27  C   UNL     1       1.966  -4.957  -6.517  0.00  0.00    +0.070 A 
ATOM     28  C   UNL     1       2.841  -4.315  -5.639  0.00  0.00    +0.071 A 
ATOM     29  C   UNL     1       3.030  -4.819  -4.361  0.00  0.00    +0.056 A 
ATOM     30  N   UNL     1       3.359  -3.215  -6.319  0.00  0.00    -0.295 N 
ATOM     31  C   UNL     1       2.823  -3.189  -7.554  0.00  0.00    +0.330 A 
ATOM     32  O   UNL     1       3.065  -2.355  -8.405  0.00  0.00    -0.246 OA
ATOM     33  N   UNL     1       1.978  -4.227  -7.703  0.00  0.00    -0.295 N 
ATOM     34  C   UNL     1       1.205  -4.536  -8.908  0.00  0.00    +0.154 C 
ATOM     35  C   UNL     1       4.322  -2.251  -5.782  0.00  0.00    +0.154 C 
ENDBRANCH  21  24
ENDBRANCH   1  21
TORSDOF 7
