REMARK  Name = ZINC24851253
REMARK  7 active torsions:
REMARK  status: ('A' for Active; 'I' for Inactive)
REMARK    1  A    between atoms: C_1  and  C_2
REMARK    2  A    between atoms: C_9  and  C_16
REMARK    3  A    between atoms: C_11  and  O_12
REMARK    4  A    between atoms: C_16  and  O_17
REMARK    5  A    between atoms: O_17  and  C_18
REMARK    6  A    between atoms: C_18  and  C_20
REMARK    7  A    between atoms: C_26  and  C_28
REMARK                            x       y       z     vdW  Elec       q    Type
REMARK                         _______ _______ _______ _____ _____    ______ ____
ROOT
ATOM      1  O   UNL     1       0.260   0.027   3.017  0.00  0.00    -0.459 OA
ENDROOT
BRANCH   1   2
ATOM      2  C   UNL     1      -0.878   0.460   2.452  0.00  0.00    +0.328 C 
ATOM      3  O   UNL     1      -1.945   0.147   2.926  0.00  0.00    -0.249 OA
BRANCH   2   4
ATOM      4  C   UNL     1      -0.826   1.336   1.227  0.00  0.00    +0.185 C 
ATOM      5  C   UNL     1      -0.140   0.579   0.069  0.00  0.00    +0.035 C 
ATOM      6  C   UNL     1      -0.962   1.016  -1.172  0.00  0.00    +0.021 C 
ATOM      7  C   UNL     1      -2.389   1.124  -0.579  0.00  0.00    +0.109 C 
ATOM      8  N   UNL     1      -2.193   1.662   0.780  0.00  0.00    -0.288 N 
ATOM      9  C   UNL     1      -3.111   2.340   1.496  0.00  0.00    +0.222 C 
ATOM     10  O   UNL     1      -2.869   2.665   2.639  0.00  0.00    -0.275 OA
BRANCH   9  11
ATOM     11  C   UNL     1      -4.439   2.693   0.877  0.00  0.00    +0.048 C 
ATOM     12  C   UNL     1      -4.216   3.650  -0.296  0.00  0.00    +0.019 C 
ATOM     13  C   UNL     1      -5.564   4.009  -0.924  0.00  0.00    -0.009 C 
ATOM     14  C   UNL     1      -6.452   4.684   0.123  0.00  0.00    +0.007 C 
ATOM     15  C   UNL     1      -6.674   3.728   1.296  0.00  0.00    -0.009 C 
ATOM     16  C   UNL     1      -5.327   3.369   1.925  0.00  0.00    +0.019 C 
ATOM     17  C   UNL     1      -7.358   2.454   0.792  0.00  0.00    +0.007 C 
ATOM     18  C   UNL     1      -6.470   1.779  -0.255  0.00  0.00    -0.009 C 
ATOM     19  C   UNL     1      -6.247   2.736  -1.428  0.00  0.00    +0.007 C 
ATOM     20  C   UNL     1      -5.122   1.420   0.374  0.00  0.00    +0.019 C 
ENDBRANCH   9  11
ENDBRANCH   2   4
ENDBRANCH   1   2
BRANCH   1  21
ATOM     21  C   UNL     1       0.134  -0.813   4.194  0.00  0.00    +0.268 C 
BRANCH  21  30
ATOM     22  C   UNL     1       3.355  -5.061  11.315  0.00  0.00    +0.109 C 
ATOM     23  C   UNL     1       3.229  -4.253  10.049  0.00  0.00    +0.214 C 
ATOM     24  O   UNL     1       4.063  -3.414   9.779  0.00  0.00    -0.276 OA
ATOM     25  N   UNL     1       2.191  -4.463   9.216  0.00  0.00    -0.286 N 
ATOM     26  C   UNL     1       2.023  -3.653   8.093  0.00  0.00    +0.037 A 
ATOM     27  C   UNL     1       0.737  -3.317   7.668  0.00  0.00    +0.024 A 
ATOM     28  C   UNL     1       0.557  -2.526   6.571  0.00  0.00    +0.014 A 
ATOM     29  C   UNL     1       1.669  -2.044   5.870  0.00  0.00    +0.024 A 
ATOM     30  C   UNL     1       1.505  -1.199   4.685  0.00  0.00    +0.007 A 
ATOM     31  C   UNL     1       2.623  -0.768   4.045  0.00  0.00    +0.095 A 
ATOM     32  C   UNL     1       3.895  -1.143   4.524  0.00  0.00    +0.285 A 
ATOM     33  O   UNL     1       4.038  -1.923   5.607  0.00  0.00    -0.425 OA
ATOM     34  C   UNL     1       2.969  -2.385   6.290  0.00  0.00    +0.141 A 
ATOM     35  C   UNL     1       3.135  -3.189   7.407  0.00  0.00    +0.070 A 
ATOM     36  H   UNL     1       1.475  -5.273   9.422  0.00  0.00    +0.155 HD
BRANCH  32  37
ATOM     37  O   UNL     1       4.888  -0.750   3.940  0.00  0.00    -0.480 OA
ATOM     38  H   UNL     1       5.888  -1.034   4.302  0.00  0.00    +0.295 HD
ENDBRANCH  32  37
ENDBRANCH  21  30
ENDBRANCH   1  21
TORSDOF 6
