REMARK  Name = ZINC53926497
REMARK  4 active torsions:
REMARK  status: ('A' for Active; 'I' for Inactive)
REMARK    1  A    between atoms: C_1  and  N_2
REMARK    2  A    between atoms: N_2  and  C_3
REMARK    3  A    between atoms: N_2  and  C_11
REMARK    4  A    between atoms: C_3  and  C_4
REMARK                            x       y       z     vdW  Elec       q    Type
REMARK                         _______ _______ _______ _____ _____    ______ ____
ROOT
ATOM      1  C   UNL     1      -0.146   1.522   0.238  0.00  0.00    -0.096 C 
ATOM      2  N   UNL     1      -0.020   0.070   0.054  0.00  0.00    +0.380 N 
ATOM      3  H   UNL     1       0.408  -0.120  -0.839  0.00  0.00    -0.082 HD
ENDROOT
BRANCH   2   4
ATOM      4  C   UNL     1      -1.353  -0.546   0.099  0.00  0.00    -0.069 C 
ATOM      5  C   UNL     1      -1.243  -2.063  -0.164  0.00  0.00    -0.015 C 
ATOM      6  C   UNL     1      -2.501  -2.395  -1.004  0.00  0.00    -0.002 C 
ATOM      7  C   UNL     1      -2.635  -1.156  -1.923  0.00  0.00    -0.002 C 
ATOM      8  C   UNL     1      -2.238   0.030  -1.020  0.00  0.00    -0.015 C 
ENDBRANCH   2   4
BRANCH   2   9
ATOM      9  C   UNL     1       0.814  -0.489   1.126  0.00  0.00    -0.068 C 
BRANCH   9  10
ATOM     10  C   UNL     1       2.243   0.041   0.990  0.00  0.00    +0.039 C 
ATOM     11  C   UNL     1       2.885  -0.503  -0.303  0.00  0.00    +0.009 C 
ATOM     12  C   UNL     1       4.358  -0.766   0.101  0.00  0.00    +0.008 C 
ATOM     13  C   UNL     1       4.215  -1.285   1.553  0.00  0.00    +0.074 C 
ATOM     14  C   UNL     1       3.090  -0.452   2.144  0.00  0.00    +0.135 C 
ATOM     15  O   UNL     1       2.906  -0.225   3.315  0.00  0.00    -0.297 OA
ENDBRANCH   9  10
ENDBRANCH   2   9
TORSDOF 3
