REMARK  Name = ZINC20232221
REMARK  8 active torsions:
REMARK  status: ('A' for Active; 'I' for Inactive)
REMARK    1  A    between atoms: C_4  and  C_7
REMARK    2  A    between atoms: C_7  and  O_8
REMARK    3  A    between atoms: O_8  and  C_9
REMARK    4  A    between atoms: C_12  and  C_15
REMARK    5  A    between atoms: C_15  and  N_16
REMARK    6  A    between atoms: C_18  and  N_33
REMARK    7  A    between atoms: C_21  and  C_23
REMARK    8  A    between atoms: N_25  and  C_26
REMARK                            x       y       z     vdW  Elec       q    Type
REMARK                         _______ _______ _______ _____ _____    ______ ____
ROOT
ATOM      1  N   UNL     1       0.934  -1.237   6.572  0.00  0.00    +0.391 N 
ATOM      2  C   UNL     1      -0.456  -1.040   7.058  0.00  0.00    -0.050 C 
ATOM      3  C   UNL     1      -0.736  -2.272   7.945  0.00  0.00    +0.093 C 
ATOM      4  C   UNL     1       0.654  -2.765   8.398  0.00  0.00    +0.019 C 
ATOM      5  C   UNL     1       1.657  -1.789   7.747  0.00  0.00    +0.022 C 
ATOM      6  H   UNL     1       0.988  -1.895   5.692  0.00  0.00    -0.080 HD
ENDROOT
BRANCH   3   7
ATOM      7  N   UNL     1      -1.545  -1.893   9.106  0.00  0.00    -0.231 N 
ATOM      8  C   UNL     1      -1.536  -0.701   9.731  0.00  0.00    +0.245 A 
ATOM      9  N   UNL     1      -2.402  -0.784  10.712  0.00  0.00    -0.117 NA
ATOM     10  N   UNL     1      -2.915  -1.966  10.691  0.00  0.00    -0.023 NA
ATOM     11  N   UNL     1      -2.404  -2.636   9.718  0.00  0.00    -0.044 NA
ENDBRANCH   3   7
BRANCH   5  12
ATOM     12  C   UNL     1       2.897  -2.523   7.305  0.00  0.00    +0.200 C 
ATOM     13  O   UNL     1       3.172  -2.592   6.126  0.00  0.00    -0.278 OA
ATOM     14  N   UNL     1       3.700  -3.102   8.220  0.00  0.00    -0.314 N 
ATOM     15  H   UNL     1       3.450  -3.038   9.289  0.00  0.00    +0.149 HD
BRANCH  14  16
ATOM     16  C   UNL     1       4.904  -3.815   7.790  0.00  0.00    +0.073 C 
ATOM     17  C   UNL     1       4.510  -5.239   7.347  0.00  0.00    +0.022 C 
ATOM     18  C   UNL     1       5.595  -5.780   6.455  0.00  0.00    +0.002 C 
ATOM     19  C   UNL     1       6.632  -6.616   7.228  0.00  0.00    +0.000 C 
ATOM     20  C   UNL     1       7.017  -5.988   8.581  0.00  0.00    +0.000 C 
ATOM     21  C   UNL     1       7.195  -4.497   8.494  0.00  0.00    +0.002 C 
ATOM     22  C   UNL     1       5.865  -3.821   8.883  0.00  0.00    +0.022 C 
ENDBRANCH  14  16
ENDBRANCH   5  12
BRANCH   1  23
ATOM     23  C   UNL     1       1.527   0.036   6.140  0.00  0.00    -0.042 C 
BRANCH  23  27
ATOM     24  C   UNL     1      -0.149   1.182   2.380  0.00  0.00    +0.121 A 
ATOM     25  C   UNL     1       0.991   0.392   2.421  0.00  0.00    +0.046 A 
ATOM     26  C   UNL     1       1.534   0.028   3.638  0.00  0.00    +0.005 A 
ATOM     27  C   UNL     1       0.936   0.440   4.814  0.00  0.00    -0.064 A 
ATOM     28  C   UNL     1      -0.203   1.223   4.776  0.00  0.00    +0.005 A 
ATOM     29  C   UNL     1      -0.747   1.595   3.561  0.00  0.00    +0.046 A 
BRANCH  24  30
ATOM     30  O   UNL     1      -0.682   1.547   1.184  0.00  0.00    -0.487 OA
BRANCH  30  31
ATOM     31  C   UNL     1      -0.013   1.086   0.008  0.00  0.00    +0.264 C 
BRANCH  31  35
ATOM     32  C   UNL     1      -2.078   2.501  -3.453  0.00  0.00    +0.000 A 
ATOM     33  C   UNL     1      -1.066   3.259  -2.894  0.00  0.00    +0.000 A 
ATOM     34  C   UNL     1      -0.398   2.801  -1.774  0.00  0.00    +0.007 A 
ATOM     35  C   UNL     1      -0.742   1.585  -1.213  0.00  0.00    -0.010 A 
ATOM     36  C   UNL     1      -1.750   0.825  -1.775  0.00  0.00    +0.007 A 
ATOM     37  C   UNL     1      -2.422   1.285  -2.892  0.00  0.00    +0.000 A 
ENDBRANCH  31  35
ENDBRANCH  30  31
ENDBRANCH  24  30
ENDBRANCH  23  27
ENDBRANCH   1  23
TORSDOF 8
