REMARK  Name = ZINC03220350
REMARK  7 active torsions:
REMARK  status: ('A' for Active; 'I' for Inactive)
REMARK    1  A    between atoms: C_4  and  S_22
REMARK    2  A    between atoms: C_6  and  C_7
REMARK    3  A    between atoms: C_7  and  O_9
REMARK    4  A    between atoms: O_9  and  C_10
REMARK    5  A    between atoms: C_10  and  C_11
REMARK    6  A    between atoms: N_13  and  C_14
REMARK    7  A    between atoms: S_22  and  N_25
REMARK                            x       y       z     vdW  Elec       q    Type
REMARK                         _______ _______ _______ _____ _____    ______ ____
ROOT
ATOM      1  C   UNL     1      -0.014   1.212   0.043  0.00  0.00    +0.340 C 
ATOM      2  O   UNL     1       0.002  -0.002   0.041  0.00  0.00    -0.245 OA
ENDROOT
BRANCH   1   8
ATOM      3  C   UNL     1      -1.324   3.330   0.066  0.00  0.00    +0.016 A 
ATOM      4  C   UNL     1      -2.531   3.998   0.075  0.00  0.00    +0.023 A 
ATOM      5  C   UNL     1      -3.719   3.287   0.088  0.00  0.00    +0.067 A 
ATOM      6  C   UNL     1      -3.704   1.901   0.086  0.00  0.00    +0.124 A 
ATOM      7  C   UNL     1      -2.504   1.222   0.071  0.00  0.00    +0.045 A 
ATOM      8  C   UNL     1      -1.302   1.934   0.058  0.00  0.00    +0.061 A 
ATOM      9 CL   UNL     1      -5.234   4.135   0.105  0.00  0.00    -0.082 Cl
BRANCH   6  10
ATOM     10  S   UNL     1      -5.221   1.006   0.101  0.00  0.00    +0.057 S 
ATOM     11  O   UNL     1      -6.038   1.572  -0.914  0.00  0.00    -0.153 OA
ATOM     12  O   UNL     1      -4.879  -0.373   0.122  0.00  0.00    -0.153 OA
BRANCH  10  13
ATOM     13  N   UNL     1      -5.967   1.330   1.544  0.00  0.00    -0.203 NA
ATOM     14  H   UNL     1      -5.545   1.923   2.185  0.00  0.00    +0.144 HD
ATOM     15  H   UNL     1      -6.825   0.927   1.748  0.00  0.00    +0.144 HD
ENDBRANCH  10  13
ENDBRANCH   6  10
ENDBRANCH   1   8
BRANCH   1  16
ATOM     16  O   UNL     1       1.143   1.901   0.025  0.00  0.00    -0.452 OA
BRANCH  16  17
ATOM     17  C   UNL     1       2.371   1.127   0.004  0.00  0.00    +0.328 C 
BRANCH  17  18
ATOM     18  C   UNL     1       3.554   2.061  -0.014  0.00  0.00    +0.255 C 
ATOM     19  O   UNL     1       3.379   3.261  -0.010  0.00  0.00    -0.272 OA
ATOM     20  N   UNL     1       4.806   1.562  -0.035  0.00  0.00    -0.281 N 
ATOM     21  H   UNL     1       4.948   0.604   0.027  0.00  0.00    +0.155 HD
BRANCH  20  22
ATOM     22  C   UNL     1       5.902   2.426  -0.147  0.00  0.00    +0.053 A 
ATOM     23  C   UNL     1       5.864   3.678   0.451  0.00  0.00    +0.044 A 
ATOM     24  C   UNL     1       6.949   4.527   0.344  0.00  0.00    +0.043 A 
ATOM     25  C   UNL     1       8.069   4.134  -0.368  0.00  0.00    +0.021 A 
ATOM     26  C   UNL     1       8.108   2.890  -0.970  0.00  0.00    +0.023 A 
ATOM     27  C   UNL     1       7.027   2.034  -0.861  0.00  0.00    +0.062 A 
ATOM     28 CL   UNL     1       7.077   0.472  -1.617  0.00  0.00    -0.082 Cl
ATOM     29 CL   UNL     1       6.906   6.090   1.098  0.00  0.00    -0.083 Cl
ENDBRANCH  20  22
ENDBRANCH  17  18
ENDBRANCH  16  17
ENDBRANCH   1  16
TORSDOF 7
