REMARK  Name = ZINC24527980
REMARK  9 active torsions:
REMARK  status: ('A' for Active; 'I' for Inactive)
REMARK    1  A    between atoms: C_1  and  C_2
REMARK    2  A    between atoms: C_2  and  O_3
REMARK    3  A    between atoms: O_3  and  C_4
REMARK    4  A    between atoms: C_7  and  S_10
REMARK    5  A    between atoms: S_10  and  N_13
REMARK    6  A    between atoms: N_16  and  C_19
REMARK    7  A    between atoms: C_19  and  C_20
REMARK    8  A    between atoms: N_24  and  C_29
REMARK    9  A    between atoms: N_27  and  C_28
REMARK                            x       y       z     vdW  Elec       q    Type
REMARK                         _______ _______ _______ _____ _____    ______ ____
ROOT
ATOM      1  N   UNL     1      -3.707   5.722   3.705  0.00  0.00    -0.174 NA
ATOM      2  C   UNL     1      -3.747   6.595   2.522  0.00  0.00    +0.125 C 
ATOM      3  C   UNL     1      -3.773   5.713   1.269  0.00  0.00    +0.102 C 
ATOM      4  N   UNL     1      -2.645   4.773   1.310  0.00  0.00    -0.294 NA
ATOM      5  C   UNL     1      -2.756   3.859   2.455  0.00  0.00    +0.102 C 
ATOM      6  C   UNL     1      -2.687   4.664   3.757  0.00  0.00    +0.125 C 
ENDROOT
BRANCH   1   7
ATOM      7  S   UNL     1      -4.783   5.926   4.948  0.00  0.00    +0.061 S 
ATOM      8  O   UNL     1      -4.176   5.373   6.107  0.00  0.00    -0.153 OA
ATOM      9  O   UNL     1      -5.221   7.277   4.888  0.00  0.00    -0.153 OA
BRANCH   7  13
ATOM     10  C   UNL     1      -8.395   3.354   4.026  0.00  0.00    +0.121 A 
ATOM     11  C   UNL     1      -7.337   2.831   4.755  0.00  0.00    +0.047 A 
ATOM     12  C   UNL     1      -6.236   3.617   5.035  0.00  0.00    +0.032 A 
ATOM     13  C   UNL     1      -6.189   4.925   4.589  0.00  0.00    +0.106 A 
ATOM     14  C   UNL     1      -7.244   5.451   3.868  0.00  0.00    +0.032 A 
ATOM     15  C   UNL     1      -8.345   4.667   3.580  0.00  0.00    +0.047 A 
BRANCH  10  16
ATOM     16  O   UNL     1      -9.478   2.582   3.749  0.00  0.00    -0.492 OA
BRANCH  16  18
ATOM     17  C   UNL     1     -11.655   2.172   2.784  0.00  0.00    +0.048 C 
ATOM     18  C   UNL     1     -10.530   3.187   2.995  0.00  0.00    +0.225 C 
ENDBRANCH  16  18
ENDBRANCH  10  16
ENDBRANCH   7  13
ENDBRANCH   1   7
BRANCH   4  19
ATOM     19  C   UNL     1      -2.534   4.028   0.050  0.00  0.00    +0.138 C 
BRANCH  19  20
ATOM     20  C   UNL     1      -1.236   3.261   0.032  0.00  0.00    +0.042 A 
ATOM     21  C   UNL     1      -1.246   1.911   0.018  0.00  0.00    +0.093 A 
ATOM     22  C   UNL     1      -0.014   1.214   0.009  0.00  0.00    +0.257 A 
ATOM     23  O   UNL     1       0.002  -0.004   0.002  0.00  0.00    -0.268 OA
ATOM     24  N   UNL     1       1.140   1.910   0.001  0.00  0.00    -0.264 N 
ATOM     25  C   UNL     1       1.121   3.256   0.009  0.00  0.00    +0.332 A 
ATOM     26  O   UNL     1       2.170   3.870   0.002  0.00  0.00    -0.246 OA
ATOM     27  N   UNL     1      -0.043   3.930   0.024  0.00  0.00    -0.299 N 
ATOM     28  C   UNL     1      -0.032   5.396   0.032  0.00  0.00    +0.154 C 
ATOM     29  C   UNL     1       2.421   1.199  -0.015  0.00  0.00    +0.157 C 
ENDBRANCH  19  20
ENDBRANCH   4  19
TORSDOF 6
