REMARK  Name = ZINC63153137
REMARK  6 active torsions:
REMARK  status: ('A' for Active; 'I' for Inactive)
REMARK    1  A    between atoms: C_1  and  C_2
REMARK    2  A    between atoms: C_4  and  C_12
REMARK    3  A    between atoms: N_14  and  C_15
REMARK    4  A    between atoms: C_15  and  C_16
REMARK    5  A    between atoms: C_19  and  C_21
REMARK    6  A    between atoms: C_24  and  C_27
REMARK                            x       y       z     vdW  Elec       q    Type
REMARK                         _______ _______ _______ _____ _____    ______ ____
ROOT
ATOM      1  C   UNL     1       0.364  -0.277  -2.628  0.00  0.00    +0.243 C 
ATOM      2  O   UNL     1      -0.666   0.310  -2.900  0.00  0.00    -0.270 OA
ATOM      3  N   UNL     1       1.173  -0.712  -3.614  0.00  0.00    -0.307 N 
ATOM      4  H   UNL     1       1.957  -1.240  -3.401  0.00  0.00    +0.149 HD
ENDROOT
BRANCH   1   7
ATOM      5  C   UNL     1       1.788  -2.767  -1.170  0.00  0.00    +0.035 C 
ATOM      6  C   UNL     1       1.899  -1.313  -0.707  0.00  0.00    +0.112 C 
ATOM      7  C   UNL     1       0.727  -0.510  -1.226  0.00  0.00    +0.045 C 
ATOM      8  C   UNL     1       0.071  -0.043  -0.108  0.00  0.00    +0.008 A 
ATOM      9  C   UNL     1      -1.085   0.758   0.067  0.00  0.00    +0.010 A 
ATOM     10  C   UNL     1      -1.515   1.071   1.308  0.00  0.00    +0.001 A 
ATOM     11  C   UNL     1      -0.856   0.631   2.467  0.00  0.00    +0.002 A 
ATOM     12  C   UNL     1       0.254  -0.137   2.412  0.00  0.00    +0.026 A 
ATOM     13  C   UNL     1       0.790  -0.524   1.097  0.00  0.00    +0.043 A 
ATOM     14  N   UNL     1       1.825  -1.243   0.756  0.00  0.00    -0.377 N 
ATOM     15  H   UNL     1       2.446  -1.663   1.371  0.00  0.00    +0.160 HD
ENDBRANCH   1   7
BRANCH   3  16
ATOM     16  C   UNL     1       0.867  -0.386  -5.009  0.00  0.00    +0.147 C 
BRANCH  16  17
ATOM     17  C   UNL     1       1.917  -0.986  -5.908  0.00  0.00    +0.007 A 
ATOM     18  C   UNL     1       1.914  -2.209  -6.490  0.00  0.00    +0.013 A 
ATOM     19  C   UNL     1       2.977  -2.575  -7.283  0.00  0.00    +0.017 A 
ATOM     20  C   UNL     1       3.982  -1.628  -7.417  0.00  0.00    +0.034 A 
ATOM     21  S   UNL     1       3.356  -0.288  -6.422  0.00  0.00    -0.090 S 
BRANCH  20  22
ATOM     22  C   UNL     1       5.229  -1.707  -8.181  0.00  0.00    +0.061 C 
ATOM     23  C   UNL     1       6.209  -0.543  -8.196  0.00  0.00    +0.127 C 
ATOM     24  S   UNL     1       7.695  -1.381  -8.902  0.00  0.00    -0.128 S 
ATOM     25  C   UNL     1       6.781  -2.818  -9.616  0.00  0.00    +0.160 C 
ATOM     26  N   UNL     1       5.522  -2.756  -8.845  0.00  0.00    -0.273 NA
ATOM     27  C   UNL     1       7.522  -4.130  -9.351  0.00  0.00    +0.044 C 
ENDBRANCH  20  22
ENDBRANCH  16  17
ENDBRANCH   3  16
TORSDOF 4
