REMARK  Name = ZINC36637826
REMARK  10 active torsions:
REMARK  status: ('A' for Active; 'I' for Inactive)
REMARK    1  A    between atoms: C_1  and  C_2
REMARK    2  A    between atoms: C_2  and  N_3
REMARK    3  A    between atoms: N_3  and  C_4
REMARK    4  A    between atoms: N_3  and  C_6
REMARK    5  A    between atoms: C_4  and  C_5
REMARK    6  A    between atoms: C_6  and  C_7
REMARK    7  A    between atoms: C_7  and  N_8
REMARK    8  A    between atoms: C_19  and  C_21
REMARK    9  A    between atoms: C_24  and  S_27
REMARK   10  A    between atoms: S_27  and  N_30
REMARK                            x       y       z     vdW  Elec       q    Type
REMARK                         _______ _______ _______ _____ _____    ______ ____
ROOT
ATOM      1  N   UNL     1       1.143  -4.226  -3.058  0.00  0.00    -0.248 N 
ATOM      2  C   UNL     1       0.349  -4.824  -4.023  0.00  0.00    +0.168 A 
ATOM      3  N   UNL     1      -0.103  -4.318  -5.146  0.00  0.00    -0.224 NA
ATOM      4  C   UNL     1      -0.875  -5.024  -6.001  0.00  0.00    +0.080 A 
ATOM      5  C   UNL     1      -1.424  -4.600  -7.234  0.00  0.00    +0.030 A 
ATOM      6  C   UNL     1      -2.193  -5.449  -7.986  0.00  0.00    +0.022 A 
ATOM      7  C   UNL     1      -2.461  -6.746  -7.570  0.00  0.00    +0.042 A 
ATOM      8  C   UNL     1      -1.940  -7.193  -6.369  0.00  0.00    +0.037 A 
ATOM      9  C   UNL     1      -1.169  -6.349  -5.609  0.00  0.00    +0.042 A 
ATOM     10  S   UNL     1      -0.313  -6.484  -4.058  0.00  0.00    -0.052 S 
ATOM     11 CL   UNL     1      -3.440  -7.796  -8.547  0.00  0.00    -0.084 Cl
ATOM     12  C   UNL     1       1.512  -4.921  -1.964  0.00  0.00    +0.252 C 
ATOM     13  O   UNL     1       1.194  -6.088  -1.849  0.00  0.00    -0.270 OA
ENDROOT
BRANCH  12  14
ATOM     14  C   UNL     1       2.304  -4.263  -0.903  0.00  0.00    +0.037 A 
ATOM     15  C   UNL     1       2.163  -2.893  -0.671  0.00  0.00    +0.015 A 
ATOM     16  C   UNL     1       2.905  -2.285   0.320  0.00  0.00    +0.029 A 
ATOM     17  C   UNL     1       3.787  -3.030   1.083  0.00  0.00    +0.106 A 
ATOM     18  C   UNL     1       3.931  -4.388   0.859  0.00  0.00    +0.029 A 
ATOM     19  C   UNL     1       3.191  -5.009  -0.125  0.00  0.00    +0.015 A 
BRANCH  17  20
ATOM     20  S   UNL     1       4.732  -2.245   2.347  0.00  0.00    +0.061 S 
ATOM     21  O   UNL     1       5.883  -3.053   2.554  0.00  0.00    -0.153 OA
ATOM     22  O   UNL     1       4.819  -0.871   1.995  0.00  0.00    -0.153 OA
BRANCH  20  23
ATOM     23  N   UNL     1       3.842  -2.321   3.742  0.00  0.00    -0.177 NA
ATOM     24  C   UNL     1       2.867  -1.317   4.192  0.00  0.00    +0.109 C 
ATOM     25  C   UNL     1       2.310  -1.797   5.549  0.00  0.00    +0.018 C 
ATOM     26  C   UNL     1       3.415  -2.759   6.059  0.00  0.00    +0.018 C 
ATOM     27  C   UNL     1       3.893  -3.410   4.735  0.00  0.00    +0.109 C 
ENDBRANCH  20  23
ENDBRANCH  17  20
ENDBRANCH  12  14
BRANCH   1  28
ATOM     28  C   UNL     1       1.581  -2.838  -3.227  0.00  0.00    +0.097 C 
BRANCH  28  29
ATOM     29  C   UNL     1       0.427  -1.894  -2.883  0.00  0.00    -0.059 C 
BRANCH  29  30
ATOM     30  N   UNL     1       0.900  -0.504  -2.932  0.00  0.00    +0.380 N 
ATOM     31  H   UNL     1       1.692  -0.397  -2.316  0.00  0.00    -0.082 HD
BRANCH  30  33
ATOM     32  C   UNL     1       1.909   1.232  -4.335  0.00  0.00    -0.017 C 
ATOM     33  C   UNL     1       1.300  -0.172  -4.306  0.00  0.00    -0.082 C 
ENDBRANCH  30  33
BRANCH  30  34
ATOM     34  C   UNL     1      -0.178   0.396  -2.504  0.00  0.00    -0.082 C 
ATOM     35  C   UNL     1      -0.477   0.166  -1.021  0.00  0.00    -0.017 C 
ENDBRANCH  30  34
ENDBRANCH  29  30
ENDBRANCH  28  29
ENDBRANCH   1  28
TORSDOF 8
