REMARK  Name = ZINC28822492
REMARK  12 active torsions:
REMARK  status: ('A' for Active; 'I' for Inactive)
REMARK    1  A    between atoms: C_1  and  C_2
REMARK    2  A    between atoms: C_3  and  C_24
REMARK    3  A    between atoms: N_7  and  C_23
REMARK    4  A    between atoms: C_9  and  C_12
REMARK    5  A    between atoms: N_14  and  C_15
REMARK    6  A    between atoms: C_15  and  C_16
REMARK    7  A    between atoms: C_24  and  N_25
REMARK    8  A    between atoms: N_25  and  C_26
REMARK    9  A    between atoms: N_25  and  C_27
REMARK   10  A    between atoms: C_27  and  C_28
REMARK   11  A    between atoms: C_28  and  C_30
REMARK   12  A    between atoms: C_28  and  O_36
REMARK                            x       y       z     vdW  Elec       q    Type
REMARK                         _______ _______ _______ _____ _____    ______ ____
ROOT
ATOM      1  C   UNL     1       1.292  -5.059   0.596  0.00  0.00    +0.047 C 
ATOM      2  C   UNL     1       0.017  -4.255   0.578  0.00  0.00    -0.015 A 
ATOM      3  C   UNL     1      -1.177  -4.888   0.606  0.00  0.00    +0.009 A 
ATOM      4  S   UNL     1      -2.336  -3.530   0.570  0.00  0.00    -0.086 S 
ATOM      5  C   UNL     1      -1.159  -2.203   0.519  0.00  0.00    +0.084 A 
ATOM      6  C   UNL     1       0.076  -2.858   0.532  0.00  0.00    +0.063 A 
ATOM      7  N   UNL     1       1.221  -2.061   0.498  0.00  0.00    -0.348 N 
ATOM      8  C   UNL     1       1.182  -0.727   0.455  0.00  0.00    +0.102 A 
ATOM      9  C   UNL     1      -0.007  -0.028   0.440  0.00  0.00    +0.100 A 
ATOM     10  C   UNL     1      -1.260  -0.806   0.479  0.00  0.00    +0.208 A 
ATOM     11  O   UNL     1      -2.348  -0.252   0.473  0.00  0.00    -0.286 OA
ATOM     12  C   UNL     1       2.529  -2.720   0.511  0.00  0.00    +0.149 C 
ENDROOT
BRANCH   9  13
ATOM     13  C   UNL     1      -0.026   1.442   0.392  0.00  0.00    +0.249 C 
ATOM     14  O   UNL     1      -1.087   2.037   0.374  0.00  0.00    -0.270 OA
ATOM     15  N   UNL     1       1.133   2.130   0.362  0.00  0.00    -0.307 N 
ATOM     16  H   UNL     1       2.092   1.592   0.374  0.00  0.00    +0.149 HD
BRANCH  15  17
ATOM     17  C   UNL     1       1.114   3.594   0.315  0.00  0.00    +0.139 C 
BRANCH  17  18
ATOM     18  C   UNL     1       2.529   4.114   0.289  0.00  0.00    -0.030 A 
ATOM     19  C   UNL     1       3.183   4.396   1.474  0.00  0.00    +0.006 A 
ATOM     20  C   UNL     1       4.482   4.867   1.451  0.00  0.00    +0.020 A 
ATOM     21  C   UNL     1       5.124   5.067   0.242  0.00  0.00    +0.041 A 
ATOM     22  C   UNL     1       4.467   4.789  -0.944  0.00  0.00    +0.020 A 
ATOM     23  C   UNL     1       3.170   4.313  -0.919  0.00  0.00    +0.006 A 
ATOM     24 CL   UNL     1       6.753   5.665   0.212  0.00  0.00    -0.084 Cl
ENDBRANCH  17  18
ENDBRANCH  15  17
ENDBRANCH   9  13
BRANCH   3  25
ATOM     25  C   UNL     1      -1.459  -6.367   0.656  0.00  0.00    +0.127 C 
BRANCH  25  26
ATOM     26  N   UNL     1      -1.542  -6.803   2.057  0.00  0.00    -0.298 NA
ATOM     27  C   UNL     1      -2.704  -6.203   2.727  0.00  0.00    +0.105 C 
BRANCH  26  28
ATOM     28  C   UNL     1      -1.579  -8.268   2.151  0.00  0.00    +0.120 C 
BRANCH  28  29
ATOM     29  C   UNL     1      -1.414  -8.690   3.612  0.00  0.00    +0.158 C 
BRANCH  29  30
ATOM     30  C   UNL     1      -1.452 -10.194   3.709  0.00  0.00    -0.018 A 
ATOM     31  C   UNL     1      -0.301 -10.929   3.499  0.00  0.00    +0.006 A 
ATOM     32  C   UNL     1      -0.335 -12.308   3.592  0.00  0.00    +0.000 A 
ATOM     33  C   UNL     1      -1.522 -12.952   3.885  0.00  0.00    +0.000 A 
ATOM     34  C   UNL     1      -2.675 -12.217   4.090  0.00  0.00    +0.000 A 
ATOM     35  C   UNL     1      -2.640 -10.838   4.001  0.00  0.00    +0.006 A 
ENDBRANCH  29  30
BRANCH  29  36
ATOM     36  O   UNL     1      -0.162  -8.213   4.107  0.00  0.00    -0.386 OA
ATOM     37  H   UNL     1       0.134  -8.420   5.146  0.00  0.00    +0.210 HD
ENDBRANCH  29  36
ENDBRANCH  28  29
ENDBRANCH  26  28
ENDBRANCH  25  26
ENDBRANCH   3  25
TORSDOF 9
