REMARK  Name = ZINC37605484
REMARK  11 active torsions:
REMARK  status: ('A' for Active; 'I' for Inactive)
REMARK    1  A    between atoms: C_1  and  C_2
REMARK    2  A    between atoms: C_2  and  C_3
REMARK    3  A    between atoms: C_2  and  C_4
REMARK    4  A    between atoms: C_12  and  O_24
REMARK    5  A    between atoms: C_15  and  C_17
REMARK    6  A    between atoms: O_24  and  C_25
REMARK    7  A    between atoms: C_25  and  C_26
REMARK    8  A    between atoms: C_29  and  C_31
REMARK    9  A    between atoms: N_33  and  C_34
REMARK   10  A    between atoms: C_34  and  C_35
REMARK   11  A    between atoms: C_35  and  N_36
REMARK                            x       y       z     vdW  Elec       q    Type
REMARK                         _______ _______ _______ _____ _____    ______ ____
ROOT
ATOM      1  C   UNL     1       1.375   0.073   1.222  0.00  0.00    +0.219 C 
ATOM      2  O   UNL     1       2.394  -0.569   1.082  0.00  0.00    -0.275 OA
ATOM      3  N   UNL     1       0.731   0.066   2.405  0.00  0.00    -0.290 N 
ATOM      4  C   UNL     1      -0.550   0.769   2.585  0.00  0.00    +0.113 C 
ATOM      5  C   UNL     1      -1.622  -0.277   2.887  0.00  0.00    +0.054 C 
ATOM      6  C   UNL     1      -1.150  -1.236   3.949  0.00  0.00    -0.040 A 
ATOM      7  C   UNL     1      -2.117  -1.961   4.636  0.00  0.00    +0.007 A 
ATOM      8  C   UNL     1      -1.756  -2.864   5.613  0.00  0.00    +0.046 A 
ATOM      9  C   UNL     1      -0.414  -3.053   5.914  0.00  0.00    +0.121 A 
ATOM     10  C   UNL     1       0.548  -2.329   5.232  0.00  0.00    +0.051 A 
ATOM     11  C   UNL     1       0.181  -1.417   4.253  0.00  0.00    -0.016 A 
ATOM     12  C   UNL     1       1.275  -0.648   3.566  0.00  0.00    +0.137 C 
ENDROOT
BRANCH  12  13
ATOM     13  C   UNL     1       2.348  -1.603   3.109  0.00  0.00    -0.020 A 
ATOM     14  C   UNL     1       2.026  -2.651   2.267  0.00  0.00    +0.006 A 
ATOM     15  C   UNL     1       3.009  -3.528   1.847  0.00  0.00    +0.003 A 
ATOM     16  C   UNL     1       4.314  -3.358   2.269  0.00  0.00    +0.038 A 
ATOM     17  C   UNL     1       4.637  -2.308   3.112  0.00  0.00    +0.124 A 
ATOM     18  C   UNL     1       3.653  -1.427   3.527  0.00  0.00    +0.044 A 
ATOM     19  F   UNL     1       5.912  -2.141   3.525  0.00  0.00    -0.205 F 
ENDBRANCH  12  13
BRANCH   1  21
ATOM     20  C   UNL     1       1.358   2.312   0.155  0.00  0.00    +0.017 C 
ATOM     21  C   UNL     1       0.828   0.879   0.071  0.00  0.00    +0.069 C 
ATOM     22  C   UNL     1       1.272   0.248  -1.250  0.00  0.00    +0.017 C 
ENDBRANCH   1  21
BRANCH   9  23
ATOM     23  O   UNL     1      -0.048  -3.945   6.873  0.00  0.00    -0.484 OA
BRANCH  23  24
ATOM     24  C   UNL     1      -1.098  -4.654   7.534  0.00  0.00    +0.303 C 
BRANCH  24  25
ATOM     25  C   UNL     1      -0.506  -5.590   8.556  0.00  0.00    +0.143 A 
ATOM     26  C   UNL     1      -0.260  -5.287   9.850  0.00  0.00    +0.049 A 
ATOM     27  C   UNL     1       0.288  -6.434  10.445  0.00  0.00    +0.055 A 
ATOM     28  C   UNL     1       0.350  -7.391   9.472  0.00  0.00    +0.190 A 
ATOM     29  O   UNL     1      -0.142  -6.859   8.333  0.00  0.00    -0.452 OA
BRANCH  28  30
ATOM     30  C   UNL     1       0.857  -8.757   9.637  0.00  0.00    +0.279 C 
ATOM     31  O   UNL     1       1.273  -9.125  10.719  0.00  0.00    -0.267 OA
ATOM     32  N   UNL     1       0.861  -9.605   8.589  0.00  0.00    -0.311 N 
ATOM     33  H   UNL     1       0.529  -9.311   7.726  0.00  0.00    +0.149 HD
BRANCH  32  34
ATOM     34  C   UNL     1       1.368 -10.970   8.754  0.00  0.00    +0.086 C 
BRANCH  34  35
ATOM     35  C   UNL     1       1.262 -11.717   7.423  0.00  0.00    -0.060 C 
BRANCH  35  36
ATOM     36  N   UNL     1       1.769 -13.085   7.588  0.00  0.00    +0.381 N 
ATOM     37  C   UNL     1       0.855 -13.870   8.456  0.00  0.00    -0.079 C 
ATOM     38  C   UNL     1       1.181 -15.337   8.080  0.00  0.00    -0.020 C 
ATOM     39  C   UNL     1       1.429 -15.257   6.556  0.00  0.00    -0.020 C 
ATOM     40  C   UNL     1       1.786 -13.784   6.284  0.00  0.00    -0.079 C 
ATOM     41  H   UNL     1       2.697 -13.067   7.985  0.00  0.00    -0.082 HD
ENDBRANCH  35  36
ENDBRANCH  34  35
ENDBRANCH  32  34
ENDBRANCH  28  30
ENDBRANCH  24  25
ENDBRANCH  23  24
ENDBRANCH   9  23
TORSDOF 9
