REMARK  Name = ZINC32650433
REMARK  5 active torsions:
REMARK  status: ('A' for Active; 'I' for Inactive)
REMARK    1  A    between atoms: C_1  and  C_2
REMARK    2  A    between atoms: C_5  and  N_10
REMARK    3  A    between atoms: C_7  and  C_9
REMARK    4  A    between atoms: N_10  and  C_11
REMARK    5  A    between atoms: N_22  and  C_24
REMARK                            x       y       z     vdW  Elec       q    Type
REMARK                         _______ _______ _______ _____ _____    ______ ____
ROOT
ATOM      1  C   UNL     1      -1.254  -0.968  -0.194  0.00  0.00    +0.070 C 
ATOM      2  C   UNL     1      -0.029  -0.096  -0.299  0.00  0.00    +0.086 A 
ATOM      3  C   UNL     1      -0.022   1.315  -0.317  0.00  0.00    +0.117 A 
ATOM      4  C   UNL     1       1.322   1.715  -0.425  0.00  0.00    +0.127 A 
ATOM      5  C   UNL     1       1.607   3.087  -0.464  0.00  0.00    +0.149 A 
ATOM      6  N   UNL     1       0.597   3.947  -0.397  0.00  0.00    -0.216 NA
ATOM      7  C   UNL     1      -0.653   3.530  -0.296  0.00  0.00    +0.129 A 
ATOM      8  N   UNL     1      -0.972   2.257  -0.251  0.00  0.00    -0.229 NA
ATOM      9  C   UNL     1      -1.756   4.555  -0.224  0.00  0.00    +0.088 C 
ATOM     10  N   UNL     1       2.072   0.572  -0.468  0.00  0.00    -0.262 N 
ATOM     11  N   UNL     1       1.200  -0.522  -0.388  0.00  0.00    -0.174 NA
ATOM     12  C   UNL     1       3.532   0.503  -0.580  0.00  0.00    +0.173 C 
ENDROOT
BRANCH   5  13
ATOM     13  N   UNL     1       2.912   3.536  -0.569  0.00  0.00    -0.320 N 
ATOM     14  H   UNL     1       3.745   2.818  -0.532  0.00  0.00    +0.148 HD
BRANCH  13  15
ATOM     15  C   UNL     1       3.184   4.966  -0.730  0.00  0.00    +0.102 C 
ATOM     16  C   UNL     1       4.577   5.278  -0.186  0.00  0.00    +0.027 C 
ATOM     17  C   UNL     1       4.929   6.724  -0.557  0.00  0.00    +0.007 C 
ATOM     18  C   UNL     1       5.150   6.794  -2.067  0.00  0.00    +0.035 C 
ATOM     19  C   UNL     1       3.990   6.174  -2.801  0.00  0.00    -0.042 A 
ATOM     20  C   UNL     1       3.092   5.329  -2.189  0.00  0.00    -0.024 A 
ATOM     21  C   UNL     1       2.052   4.779  -2.927  0.00  0.00    +0.006 A 
ATOM     22  C   UNL     1       1.909   5.077  -4.267  0.00  0.00    +0.000 A 
ATOM     23  C   UNL     1       2.808   5.929  -4.880  0.00  0.00    +0.000 A 
ATOM     24  C   UNL     1       3.844   6.474  -4.149  0.00  0.00    +0.004 A 
ENDBRANCH  13  15
ENDBRANCH   5  13
TORSDOF 2
