REMARK  Name = ZINC30979426
REMARK  5 active torsions:
REMARK  status: ('A' for Active; 'I' for Inactive)
REMARK    1  A    between atoms: C_6  and  C_7
REMARK    2  A    between atoms: C_9  and  C_12
REMARK    3  A    between atoms: C_12  and  N_13
REMARK    4  A    between atoms: C_16  and  C_19
REMARK    5  A    between atoms: N_21  and  C_22
REMARK                            x       y       z     vdW  Elec       q    Type
REMARK                         _______ _______ _______ _____ _____    ______ ____
ROOT
ATOM      1  N   UNL     1      -3.645   9.719  -0.926  0.00  0.00    +0.386 N 
ATOM      2  C   UNL     1      -2.943   9.296  -2.145  0.00  0.00    -0.077 C 
ATOM      3  C   UNL     1      -2.873   7.767  -2.190  0.00  0.00    -0.006 C 
ATOM      4  C   UNL     1      -2.132   7.259  -0.950  0.00  0.00    +0.071 C 
ATOM      5  C   UNL     1      -2.856   7.754   0.306  0.00  0.00    -0.006 C 
ATOM      6  C   UNL     1      -2.927   9.282   0.279  0.00  0.00    -0.077 C 
ATOM      7  H   UNL     1      -4.632   9.234  -0.922  0.00  0.00    -0.081 HD
ENDROOT
BRANCH   4   8
ATOM      8  C   UNL     1      -2.112   5.752  -0.958  0.00  0.00    +0.216 C 
ATOM      9  O   UNL     1      -2.637   5.143  -1.866  0.00  0.00    -0.276 OA
ATOM     10  N   UNL     1      -1.510   5.081   0.044  0.00  0.00    -0.310 N 
ATOM     11  H   UNL     1      -1.033   5.633   0.867  0.00  0.00    +0.149 HD
BRANCH  10  12
ATOM     12  C   UNL     1      -1.490   3.616   0.036  0.00  0.00    +0.035 C 
ATOM     13  C   UNL     1      -0.773   3.123  -1.223  0.00  0.00    +0.029 C 
ATOM     14  C   UNL     1      -0.753   1.593  -1.232  0.00  0.00    -0.008 C 
ATOM     15  C   UNL     1      -0.013   1.086   0.008  0.00  0.00    +0.007 C 
ATOM     16  C   UNL     1      -0.729   1.579   1.267  0.00  0.00    -0.008 C 
ATOM     17  C   UNL     1      -0.750   3.109   1.275  0.00  0.00    +0.029 C 
ATOM     18  C   UNL     1      -2.164   1.050   1.278  0.00  0.00    +0.007 C 
ATOM     19  C   UNL     1      -2.904   1.556   0.038  0.00  0.00    -0.008 C 
ATOM     20  C   UNL     1      -2.188   1.063  -1.221  0.00  0.00    +0.007 C 
ATOM     21  C   UNL     1      -2.925   3.086   0.047  0.00  0.00    +0.029 C 
ENDBRANCH  10  12
ENDBRANCH   4   8
BRANCH   1  22
ATOM     22  C   UNL     1      -3.853  11.173  -0.917  0.00  0.00    +0.022 C 
BRANCH  22  25
ATOM     23  C   UNL     1      -5.588  12.101   2.092  0.00  0.00    +0.202 A 
ATOM     24  N   UNL     1      -4.432  11.844   1.438  0.00  0.00    -0.193 NA
ATOM     25  C   UNL     1      -4.781  11.540   0.213  0.00  0.00    +0.211 A 
ATOM     26  O   UNL     1      -6.113  11.622   0.151  0.00  0.00    -0.340 OA
ATOM     27  N   UNL     1      -6.561  11.938   1.233  0.00  0.00    -0.056 NA
BRANCH  23  33
ATOM     28  C   UNL     1      -4.595  12.621   4.319  0.00  0.00    +0.013 A 
ATOM     29  C   UNL     1      -4.728  12.989   5.642  0.00  0.00    +0.016 A 
ATOM     30  C   UNL     1      -5.984  13.220   6.175  0.00  0.00    +0.018 A 
ATOM     31  C   UNL     1      -7.112  13.088   5.383  0.00  0.00    +0.016 A 
ATOM     32  C   UNL     1      -6.989  12.726   4.058  0.00  0.00    +0.013 A 
ATOM     33  C   UNL     1      -5.726  12.492   3.517  0.00  0.00    +0.023 A 
ATOM     34 BR   UNL     1      -6.161  13.718   7.991  0.00  0.00    -0.050 Br
ENDBRANCH  23  33
ENDBRANCH  22  25
ENDBRANCH   1  22
TORSDOF 5
