REMARK  Name = ZINC26786642
REMARK  5 active torsions:
REMARK  status: ('A' for Active; 'I' for Inactive)
REMARK    1  A    between atoms: C_6  and  S_7
REMARK    2  A    between atoms: S_7  and  N_10
REMARK    3  A    between atoms: C_13  and  N_22
REMARK    4  A    between atoms: N_22  and  N_23
REMARK    5  A    between atoms: C_24  and  C_26
REMARK                            x       y       z     vdW  Elec       q    Type
REMARK                         _______ _______ _______ _____ _____    ______ ____
ROOT
ATOM      1  N   UNL     1       4.798   5.328  -0.016  0.00  0.00    -0.129 NA
ATOM      2  C   UNL     1       4.860   4.025  -0.097  0.00  0.00    +0.091 C 
ATOM      3  C   UNL     1       3.625   3.232  -0.066  0.00  0.00    +0.058 C 
ATOM      4  C   UNL     1       3.692   1.885  -0.152  0.00  0.00    +0.094 C 
ATOM      5  C   UNL     1       5.004   1.224  -0.269  0.00  0.00    +0.205 C 
ATOM      6  O   UNL     1       5.064   0.011  -0.342  0.00  0.00    -0.286 OA
ATOM      7  C   UNL     1       6.241   2.022  -0.303  0.00  0.00    +0.010 C 
ATOM      8  C   UNL     1       6.176   3.357  -0.218  0.00  0.00    -0.010 C 
ATOM      9  C   UNL     1       7.414   4.211  -0.242  0.00  0.00    +0.064 C 
ATOM     10  C   UNL     1       8.566   3.494  -0.873  0.00  0.00    -0.026 C 
ATOM     11  C   UNL     1       8.628   2.200  -0.956  0.00  0.00    -0.026 C 
ATOM     12  C   UNL     1       7.555   1.300  -0.428  0.00  0.00    +0.066 C 
ENDROOT
BRANCH   1  13
ATOM     13  S   UNL     1       5.971   6.164   0.800  0.00  0.00    +0.099 S 
ATOM     14  O   UNL     1       6.451   5.299   1.820  0.00  0.00    -0.146 OA
ATOM     15  O   UNL     1       6.826   6.730  -0.184  0.00  0.00    -0.146 OA
BRANCH  13  21
ATOM     16  C   UNL     1       5.054   8.729   0.973  0.00  0.00    +0.030 A 
ATOM     17  C   UNL     1       4.428   9.785   1.609  0.00  0.00    +0.017 A 
ATOM     18  C   UNL     1       3.938   9.626   2.893  0.00  0.00    +0.018 A 
ATOM     19  C   UNL     1       4.068   8.408   3.536  0.00  0.00    +0.017 A 
ATOM     20  C   UNL     1       4.689   7.352   2.897  0.00  0.00    +0.030 A 
ATOM     21  C   UNL     1       5.179   7.511   1.615  0.00  0.00    +0.113 A 
ATOM     22 BR   UNL     1       3.089  11.072   3.767  0.00  0.00    -0.050 Br
ENDBRANCH  13  21
ENDBRANCH   1  13
BRANCH   4  23
ATOM     23  N   UNL     1       2.528   1.127  -0.123  0.00  0.00    -0.261 N 
ATOM     24  H   UNL     1       2.585   0.030  -0.193  0.00  0.00    +0.170 HD
BRANCH  23  25
ATOM     25  N   UNL     1       1.283   1.758  -0.006  0.00  0.00    -0.232 N 
ATOM     26  C   UNL     1       0.154   1.022   0.022  0.00  0.00    +0.260 C 
ATOM     27  O   UNL     1       0.217  -0.190  -0.055  0.00  0.00    -0.269 OA
ATOM     28  H   UNL     1       1.227   2.854   0.064  0.00  0.00    +0.173 HD
BRANCH  26  29
ATOM     29  C   UNL     1      -1.160   1.689   0.140  0.00  0.00    +0.037 C 
ATOM     30  C   UNL     1      -2.290   0.956   0.162  0.00  0.00    +0.005 C 
ATOM     31  C   UNL     1      -3.626   1.648   0.276  0.00  0.00    +0.129 C 
ATOM     32  N   UNL     1      -3.448   2.915   0.994  0.00  0.00    -0.346 N 
ATOM     33  C   UNL     1      -2.376   3.731   0.658  0.00  0.00    +0.068 C 
ATOM     34  C   UNL     1      -1.239   3.160   0.239  0.00  0.00    +0.027 C 
ATOM     35  H   UNL     1      -4.157   3.205   1.783  0.00  0.00    +0.146 HD
ENDBRANCH  26  29
ENDBRANCH  23  25
ENDBRANCH   4  23
TORSDOF 5
