REMARK  Name = ZINC34749497
REMARK  10 active torsions:
REMARK  status: ('A' for Active; 'I' for Inactive)
REMARK    1  A    between atoms: C_1  and  C_2
REMARK    2  A    between atoms: C_2  and  C_3
REMARK    3  A    between atoms: C_3  and  C_4
REMARK    4  A    between atoms: C_4  and  N_5
REMARK    5  A    between atoms: C_9  and  C_32
REMARK    6  A    between atoms: C_10  and  C_31
REMARK    7  A    between atoms: N_18  and  C_21
REMARK    8  A    between atoms: C_21  and  C_22
REMARK    9  A    between atoms: N_24  and  C_25
REMARK   10  A    between atoms: C_32  and  C_33
REMARK                            x       y       z     vdW  Elec       q    Type
REMARK                         _______ _______ _______ _____ _____    ______ ____
ROOT
ATOM      1  N   UNL     1      -3.435  -4.056  -0.672  0.00  0.00    -0.280 N 
ATOM      2  C   UNL     1      -4.142  -4.367   0.430  0.00  0.00    +0.264 A 
ATOM      3  O   UNL     1      -4.210  -5.522   0.814  0.00  0.00    -0.267 OA
ATOM      4  C   UNL     1      -4.812  -3.325   1.146  0.00  0.00    +0.076 A 
ATOM      5  C   UNL     1      -5.625  -3.410   2.347  0.00  0.00    -0.023 A 
ATOM      6  C   UNL     1      -6.164  -2.291   2.853  0.00  0.00    -0.007 A 
ATOM      7  S   UNL     1      -5.608  -1.020   1.733  0.00  0.00    -0.073 S 
ATOM      8  C   UNL     1      -4.667  -2.029   0.617  0.00  0.00    +0.117 A 
ATOM      9  N   UNL     1      -3.954  -1.790  -0.477  0.00  0.00    -0.208 NA
ATOM     10  C   UNL     1      -3.343  -2.769  -1.113  0.00  0.00    +0.202 A 
ATOM     11  N   UNL     1      -2.607  -2.490  -2.238  0.00  0.00    -0.304 N 
ATOM     12  C   UNL     1      -1.179  -2.149  -2.143  0.00  0.00    +0.089 C 
ATOM     13  C   UNL     1      -0.933  -0.862  -2.937  0.00  0.00    -0.059 C 
ATOM     14  N   UNL     1      -1.425  -1.034  -4.310  0.00  0.00    +0.387 N 
ATOM     15  C   UNL     1      -2.882  -1.219  -4.299  0.00  0.00    -0.059 C 
ATOM     16  C   UNL     1      -3.223  -2.529  -3.573  0.00  0.00    +0.089 C 
ATOM     17  C   UNL     1      -7.032  -2.143   4.076  0.00  0.00    +0.052 C 
ATOM     18  H   UNL     1      -0.987  -1.843  -4.724  0.00  0.00    -0.081 HD
ENDROOT
BRANCH   5  19
ATOM     19  C   UNL     1      -5.861  -4.739   3.015  0.00  0.00    +0.033 C 
ATOM     20  C   UNL     1      -4.764  -4.990   4.052  0.00  0.00    +0.009 C 
ENDBRANCH   5  19
BRANCH   1  21
ATOM     21  C   UNL     1      -2.747  -5.119  -1.408  0.00  0.00    +0.128 C 
BRANCH  21  22
ATOM     22  C   UNL     1      -1.384  -5.383  -0.766  0.00  0.00    +0.021 C 
BRANCH  22  24
ATOM     23  C   UNL     1       0.699  -6.758  -0.894  0.00  0.00    +0.004 C 
ATOM     24  C   UNL     1      -0.665  -6.494  -1.536  0.00  0.00    -0.002 C 
ENDBRANCH  22  24
ENDBRANCH  21  22
ENDBRANCH   1  21
BRANCH  14  25
ATOM     25  C   UNL     1      -1.091   0.158  -5.101  0.00  0.00    +0.019 C 
BRANCH  25  26
ATOM     26  C   UNL     1      -1.485  -0.066  -6.538  0.00  0.00    +0.197 C 
ATOM     27  O   UNL     1      -1.994  -1.115  -6.870  0.00  0.00    -0.278 OA
ATOM     28  N   UNL     1      -1.271   0.900  -7.453  0.00  0.00    -0.314 N 
ATOM     29  H   UNL     1      -0.864   1.739  -7.187  0.00  0.00    +0.149 HD
BRANCH  28  30
ATOM     30  C   UNL     1      -1.654   0.682  -8.851  0.00  0.00    +0.073 C 
ATOM     31  C   UNL     1      -0.528  -0.054  -9.579  0.00  0.00    +0.022 C 
ATOM     32  C   UNL     1      -0.928  -0.281 -11.039  0.00  0.00    +0.002 C 
ATOM     33  C   UNL     1      -1.177   1.068 -11.715  0.00  0.00    +0.000 C 
ATOM     34  C   UNL     1      -2.303   1.804 -10.986  0.00  0.00    +0.002 C 
ATOM     35  C   UNL     1      -1.903   2.032  -9.527  0.00  0.00    +0.022 C 
ENDBRANCH  28  30
ENDBRANCH  25  26
ENDBRANCH  14  25
TORSDOF 7
