REMARK  Name = ZINC33958474
REMARK  8 active torsions:
REMARK  status: ('A' for Active; 'I' for Inactive)
REMARK    1  A    between atoms: C_4  and  C_7
REMARK    2  A    between atoms: C_7  and  N_8
REMARK    3  A    between atoms: N_8  and  C_9
REMARK    4  A    between atoms: N_8  and  C_16
REMARK    5  A    between atoms: C_9  and  C_10
REMARK    6  A    between atoms: C_16  and  N_17
REMARK    7  A    between atoms: N_25  and  N_26
REMARK    8  A    between atoms: C_27  and  C_29
REMARK                            x       y       z     vdW  Elec       q    Type
REMARK                         _______ _______ _______ _____ _____    ______ ____
ROOT
ATOM      1  N   UNL     1       3.437   1.007   2.628  0.00  0.00    -0.252 N 
ATOM      2  C   UNL     1       2.587   1.921   2.016  0.00  0.00    +0.047 A 
ATOM      3  C   UNL     1       2.595   2.481   0.743  0.00  0.00    +0.024 A 
ATOM      4  C   UNL     1       1.617   3.384   0.378  0.00  0.00    +0.002 A 
ATOM      5  C   UNL     1       0.620   3.744   1.269  0.00  0.00    +0.001 A 
ATOM      6  C   UNL     1       0.596   3.198   2.537  0.00  0.00    +0.012 A 
ATOM      7  C   UNL     1       1.577   2.287   2.915  0.00  0.00    +0.028 A 
ATOM      8  C   UNL     1       1.836   1.536   4.165  0.00  0.00    +0.153 C 
ATOM      9  N   UNL     1       1.140   1.570   5.276  0.00  0.00    -0.174 NA
ATOM     10  C   UNL     1       3.046   0.737   3.885  0.00  0.00    +0.272 C 
ATOM     11  O   UNL     1       3.594  -0.028   4.658  0.00  0.00    -0.268 OA
ENDROOT
BRANCH   9  12
ATOM     12  N   UNL     1       1.530   0.789   6.371  0.00  0.00    -0.201 N 
ATOM     13  C   UNL     1       0.815   0.823   7.513  0.00  0.00    +0.282 C 
ATOM     14  O   UNL     1      -0.169   1.531   7.592  0.00  0.00    -0.267 OA
ATOM     15  H   UNL     1       2.316   0.223   6.308  0.00  0.00    +0.178 HD
BRANCH  13  16
ATOM     16  C   UNL     1       1.228  -0.003   8.671  0.00  0.00    +0.128 A 
ATOM     17  C   UNL     1       0.468   0.040   9.850  0.00  0.00    +0.034 A 
ATOM     18  C   UNL     1       0.838  -0.717  10.924  0.00  0.00    +0.012 A 
ATOM     19  C   UNL     1       1.985  -1.524  10.806  0.00  0.00    +0.000 A 
ATOM     20  C   UNL     1       2.422  -2.328  11.871  0.00  0.00    +0.010 A 
ATOM     21  C   UNL     1       3.535  -3.097  11.722  0.00  0.00    +0.001 A 
ATOM     22  C   UNL     1       4.250  -3.098  10.524  0.00  0.00    +0.002 A 
ATOM     23  C   UNL     1       3.857  -2.332   9.472  0.00  0.00    +0.028 A 
ATOM     24  C   UNL     1       2.710  -1.523   9.586  0.00  0.00    +0.072 A 
ATOM     25  N   UNL     1       2.299  -0.767   8.569  0.00  0.00    -0.242 NA
ENDBRANCH  13  16
ENDBRANCH   9  12
BRANCH   1  26
ATOM     26  C   UNL     1       4.608   0.408   1.982  0.00  0.00    +0.201 C 
BRANCH  26  27
ATOM     27  N   UNL     1       4.188  -0.755   1.190  0.00  0.00    -0.278 NA
BRANCH  27  28
ATOM     28  C   UNL     1       5.159  -1.045   0.126  0.00  0.00    +0.121 C 
BRANCH  28  32
ATOM     29  C   UNL     1       4.886   1.949  -2.909  0.00  0.00    +0.000 A 
ATOM     30  C   UNL     1       5.814   2.077  -1.892  0.00  0.00    +0.000 A 
ATOM     31  C   UNL     1       5.902   1.109  -0.910  0.00  0.00    +0.005 A 
ATOM     32  C   UNL     1       5.062   0.011  -0.944  0.00  0.00    -0.033 A 
ATOM     33  C   UNL     1       4.133  -0.117  -1.960  0.00  0.00    +0.005 A 
ATOM     34  C   UNL     1       4.046   0.852  -2.943  0.00  0.00    +0.000 A 
ENDBRANCH  28  32
ENDBRANCH  27  28
BRANCH  27  35
ATOM     35  C   UNL     1       3.981  -1.930   2.047  0.00  0.00    +0.121 C 
BRANCH  35  36
ATOM     36  C   UNL     1       3.321  -3.025   1.249  0.00  0.00    -0.033 A 
ATOM     37  C   UNL     1       1.942  -3.104   1.192  0.00  0.00    +0.005 A 
ATOM     38  C   UNL     1       1.337  -4.108   0.460  0.00  0.00    +0.000 A 
ATOM     39  C   UNL     1       2.111  -5.033  -0.216  0.00  0.00    +0.000 A 
ATOM     40  C   UNL     1       3.490  -4.953  -0.160  0.00  0.00    +0.000 A 
ATOM     41  C   UNL     1       4.095  -3.946   0.569  0.00  0.00    +0.005 A 
ENDBRANCH  35  36
ENDBRANCH  27  35
ENDBRANCH  26  27
ENDBRANCH   1  26
TORSDOF 8
