REMARK  Name = ZINC43741316
REMARK  7 active torsions:
REMARK  status: ('A' for Active; 'I' for Inactive)
REMARK    1  A    between atoms: C_1  and  C_2
REMARK    2  A    between atoms: C_6  and  N_8
REMARK    3  A    between atoms: N_11  and  C_14
REMARK    4  A    between atoms: C_14  and  C_15
REMARK    5  A    between atoms: C_26  and  C_33
REMARK    6  A    between atoms: C_28  and  C_32
REMARK    7  A    between atoms: C_29  and  O_31
REMARK                            x       y       z     vdW  Elec       q    Type
REMARK                         _______ _______ _______ _____ _____    ______ ____
ROOT
ATOM      1  C   UNL     1       1.632  -6.226   5.865  0.00  0.00    +0.090 C 
ATOM      2  C   UNL     1       2.564  -6.784   6.986  0.00  0.00    +0.071 C 
ATOM      3  C   UNL     1       3.659  -7.414   6.104  0.00  0.00    +0.187 C 
ATOM      4  C   UNL     1       4.524  -8.417   6.823  0.00  0.00    +0.076 C 
ATOM      5  C   UNL     1       3.674  -9.378   7.632  0.00  0.00    -0.061 C 
ATOM      6  C   UNL     1       3.878 -10.655   7.507  0.00  0.00    -0.027 C 
ATOM      7  C   UNL     1       3.093 -11.683   8.271  0.00  0.00    +0.027 C 
ATOM      8  C   UNL     1       2.614 -11.055   9.584  0.00  0.00    +0.008 C 
ATOM      9  C   UNL     1       1.792  -9.811   9.250  0.00  0.00    -0.001 C 
ATOM     10  C   UNL     1       2.639  -8.771   8.537  0.00  0.00    +0.018 C 
ATOM     11  C   UNL     1       1.747  -7.846   7.723  0.00  0.00    +0.132 C 
ATOM     12  C   UNL     1       3.346  -7.907   9.585  0.00  0.00    +0.018 C 
ATOM     13  C   UNL     1       1.243  -9.209  10.546  0.00  0.00    +0.008 C 
ATOM     14  O   UNL     1       2.934  -7.968   5.002  0.00  0.00    -0.460 OA
ATOM     15  C   UNL     1       1.986  -7.064   4.649  0.00  0.00    +0.309 C 
ATOM     16  O   UNL     1       1.504  -6.942   3.548  0.00  0.00    -0.251 OA
ENDROOT
BRANCH  11  17
ATOM     17  O   UNL     1       0.797  -7.200   8.573  0.00  0.00    -0.391 OA
ATOM     18  H   UNL     1       0.173  -6.631   8.104  0.00  0.00    +0.210 HD
ENDBRANCH  11  17
BRANCH   1  19
ATOM     19  C   UNL     1       1.927  -4.748   5.605  0.00  0.00    -0.064 C 
BRANCH  19  23
ATOM     20  N   UNL     1       0.081  -1.921   8.075  0.00  0.00    -0.333 N 
ATOM     21  C   UNL     1       1.517  -1.741   7.812  0.00  0.00    +0.086 C 
ATOM     22  C   UNL     1       1.887  -2.552   6.566  0.00  0.00    -0.060 C 
ATOM     23  N   UNL     1       1.475  -3.949   6.752  0.00  0.00    +0.382 N 
ATOM     24  C   UNL     1       0.012  -4.029   6.855  0.00  0.00    -0.060 C 
ATOM     25  C   UNL     1      -0.450  -3.292   8.121  0.00  0.00    +0.086 C 
ATOM     26  H   UNL     1       1.891  -4.312   7.596  0.00  0.00    -0.082 HD
BRANCH  20  32
ATOM     27  C   UNL     1      -4.436  -0.107   8.761  0.00  0.00    +0.044 C 
ATOM     28  C   UNL     1      -2.948   0.088   8.618  0.00  0.00    -0.049 A 
ATOM     29  C   UNL     1      -2.409   1.360   8.691  0.00  0.00    +0.003 A 
ATOM     30  C   UNL     1      -1.045   1.544   8.559  0.00  0.00    +0.002 A 
ATOM     31  C   UNL     1      -0.216   0.458   8.355  0.00  0.00    +0.023 A 
ATOM     32  C   UNL     1      -0.754  -0.820   8.282  0.00  0.00    +0.030 A 
ATOM     33  C   UNL     1      -2.125  -1.002   8.419  0.00  0.00    +0.026 A 
ENDBRANCH  20  32
ENDBRANCH  19  23
ENDBRANCH   1  19
TORSDOF 4
