REMARK  Name = ZINC39722080
REMARK  12 active torsions:
REMARK  status: ('A' for Active; 'I' for Inactive)
REMARK    1  A    between atoms: C_1  and  C_2
REMARK    2  A    between atoms: C_2  and  C_3
REMARK    3  A    between atoms: C_3  and  C_4
REMARK    4  A    between atoms: C_4  and  C_5
REMARK    5  A    between atoms: N_13  and  C_14
REMARK    6  A    between atoms: C_14  and  C_16
REMARK    7  A    between atoms: C_19  and  S_22
REMARK    8  A    between atoms: S_22  and  N_25
REMARK    9  A    between atoms: N_25  and  C_26
REMARK   10  A    between atoms: N_25  and  C_27
REMARK   11  A    between atoms: N_33  and  C_34
REMARK   12  A    between atoms: C_34  and  C_35
REMARK                            x       y       z     vdW  Elec       q    Type
REMARK                         _______ _______ _______ _____ _____    ______ ____
ROOT
ATOM      1  C   UNL     1       1.884  -4.679   9.116  0.00  0.00    +0.269 C 
ATOM      2  O   UNL     1       0.729  -4.406   8.841  0.00  0.00    -0.268 OA
ENDROOT
BRANCH   1  11
ATOM      3  C   UNL     1       1.492  -2.540   2.454  0.00  0.00    -0.046 A 
ATOM      4  C   UNL     1       2.860  -2.749   2.415  0.00  0.00    +0.006 A 
ATOM      5  C   UNL     1       3.543  -3.204   3.519  0.00  0.00    +0.027 A 
ATOM      6  C   UNL     1       2.867  -3.468   4.718  0.00  0.00    +0.058 A 
ATOM      7  C   UNL     1       1.482  -3.248   4.730  0.00  0.00    +0.039 A 
ATOM      8  C   UNL     1       0.801  -2.789   3.627  0.00  0.00    +0.020 A 
ATOM      9  S   UNL     1       1.018  -3.689   6.384  0.00  0.00    -0.052 S 
ATOM     10  C   UNL     1       2.532  -4.117   6.973  0.00  0.00    +0.168 A 
ATOM     11  N   UNL     1       2.841  -4.546   8.192  0.00  0.00    -0.152 NA
ATOM     12  N   UNL     1       3.370  -3.925   5.921  0.00  0.00    -0.310 N 
BRANCH   3  13
ATOM     13  C   UNL     1       0.763  -2.041   1.233  0.00  0.00    +0.035 C 
BRANCH  13  14
ATOM     14  C   UNL     1       0.742  -0.511   1.242  0.00  0.00    +0.004 C 
BRANCH  14  16
ATOM     15  C   UNL     1      -0.019   1.526   0.010  0.00  0.00    +0.004 C 
ATOM     16  C   UNL     1       0.002  -0.004   0.002  0.00  0.00    -0.003 C 
ENDBRANCH  14  16
ENDBRANCH  13  14
ENDBRANCH   3  13
BRANCH  12  17
ATOM     17  C   UNL     1       4.802  -4.200   6.062  0.00  0.00    +0.212 C 
BRANCH  17  18
ATOM     18  C   UNL     1       5.493  -2.983   6.517  0.00  0.00    -0.084 C 
ATOM     19  C   UNL     1       6.045  -2.013   6.880  0.00  0.00    +0.005 C 
ENDBRANCH  17  18
ENDBRANCH  12  17
ENDBRANCH   1  11
BRANCH   1  20
ATOM     20  C   UNL     1       2.228  -5.157  10.475  0.00  0.00    +0.039 A 
ATOM     21  C   UNL     1       3.550  -5.465  10.796  0.00  0.00    +0.015 A 
ATOM     22  C   UNL     1       3.864  -5.911  12.063  0.00  0.00    +0.029 A 
ATOM     23  C   UNL     1       2.870  -6.052  13.016  0.00  0.00    +0.106 A 
ATOM     24  C   UNL     1       1.557  -5.749  12.704  0.00  0.00    +0.029 A 
ATOM     25  C   UNL     1       1.231  -5.296  11.442  0.00  0.00    +0.015 A 
BRANCH  23  26
ATOM     26  S   UNL     1       3.279  -6.622  14.632  0.00  0.00    +0.061 S 
ATOM     27  O   UNL     1       2.094  -7.189  15.174  0.00  0.00    -0.153 OA
ATOM     28  O   UNL     1       4.489  -7.358  14.509  0.00  0.00    -0.153 OA
BRANCH  26  29
ATOM     29  N   UNL     1       3.627  -5.287  15.548  0.00  0.00    -0.177 NA
ATOM     30  C   UNL     1       2.562  -4.611  16.292  0.00  0.00    +0.132 C 
BRANCH  29  31
ATOM     31  C   UNL     1       5.001  -4.783  15.615  0.00  0.00    +0.080 C 
ATOM     32  C   UNL     1       5.042  -3.345  15.094  0.00  0.00    +0.020 C 
ATOM     33  C   UNL     1       6.476  -2.818  15.164  0.00  0.00    +0.002 C 
ATOM     34  C   UNL     1       6.961  -2.849  16.614  0.00  0.00    +0.000 C 
ATOM     35  C   UNL     1       6.921  -4.287  17.135  0.00  0.00    +0.002 C 
ATOM     36  C   UNL     1       5.486  -4.814  17.066  0.00  0.00    +0.020 C 
ENDBRANCH  29  31
ENDBRANCH  26  29
ENDBRANCH  23  26
ENDBRANCH   1  20
TORSDOF 10
