REMARK  Name = ZINC59227894
REMARK  8 active torsions:
REMARK  status: ('A' for Active; 'I' for Inactive)
REMARK    1  A    between atoms: C_1  and  O_2
REMARK    2  A    between atoms: O_2  and  C_3
REMARK    3  A    between atoms: C_3  and  C_5
REMARK    4  A    between atoms: C_8  and  C_11
REMARK    5  A    between atoms: C_13  and  C_28
REMARK    6  A    between atoms: C_14  and  C_21
REMARK    7  A    between atoms: C_28  and  O_30
REMARK    8  A    between atoms: O_30  and  C_31
REMARK                            x       y       z     vdW  Elec       q    Type
REMARK                         _______ _______ _______ _____ _____    ______ ____
ROOT
ATOM      1  C   UNL     1       0.834  -7.103  -1.231  0.00  0.00    +0.179 C 
ATOM      2  C   UNL     1       0.164  -7.224  -2.573  0.00  0.00    +0.087 C 
ATOM      3  C   UNL     1       0.818  -7.024  -3.745  0.00  0.00    +0.053 C 
ATOM      4  N   UNL     1       2.161  -6.701  -3.784  0.00  0.00    -0.283 N 
ATOM      5  C   UNL     1       2.886  -6.847  -2.610  0.00  0.00    +0.219 A 
ATOM      6  N   UNL     1       2.282  -7.040  -1.412  0.00  0.00    -0.221 N 
ATOM      7  N   UNL     1       3.302  -7.152  -0.468  0.00  0.00    -0.156 NA
ATOM      8  C   UNL     1       4.433  -7.021  -1.116  0.00  0.00    +0.247 A 
ATOM      9  N   UNL     1       4.176  -6.835  -2.413  0.00  0.00    -0.201 NA
ATOM     10  H   UNL     1       2.581  -6.386  -4.600  0.00  0.00    +0.155 HD
ENDROOT
BRANCH   3  11
ATOM     11  C   UNL     1       0.074  -7.154  -5.014  0.00  0.00    -0.003 A 
ATOM     12  C   UNL     1      -0.925  -6.234  -5.338  0.00  0.00    +0.011 A 
ATOM     13  C   UNL     1      -1.616  -6.360  -6.525  0.00  0.00    +0.020 A 
ATOM     14  C   UNL     1      -1.321  -7.396  -7.395  0.00  0.00    +0.041 A 
ATOM     15  C   UNL     1      -0.330  -8.312  -7.079  0.00  0.00    +0.020 A 
ATOM     16  C   UNL     1       0.372  -8.193  -5.898  0.00  0.00    +0.011 A 
ATOM     17 CL   UNL     1      -2.195  -7.549  -8.886  0.00  0.00    -0.084 Cl
ENDBRANCH   3  11
BRANCH   1  21
ATOM     18  C   UNL     1      -0.513  -3.542   0.716  0.00  0.00    +0.059 A 
ATOM     19  C   UNL     1      -0.723  -4.788   1.310  0.00  0.00    +0.015 A 
ATOM     20  C   UNL     1      -0.286  -5.932   0.676  0.00  0.00    +0.007 A 
ATOM     21  C   UNL     1       0.359  -5.848  -0.545  0.00  0.00    -0.018 A 
ATOM     22  C   UNL     1       0.571  -4.616  -1.139  0.00  0.00    +0.007 A 
ATOM     23  C   UNL     1       0.134  -3.464  -0.519  0.00  0.00    +0.015 A 
BRANCH  18  24
ATOM     24  C   UNL     1      -0.979  -2.311   1.389  0.00  0.00    +0.339 C 
ATOM     25  O   UNL     1      -0.799  -1.229   0.867  0.00  0.00    -0.245 OA
BRANCH  24  27
ATOM     26  C   UNL     1      -2.025  -1.161   3.173  0.00  0.00    +0.280 C 
ATOM     27  O   UNL     1      -1.602  -2.390   2.580  0.00  0.00    -0.464 OA
ENDBRANCH  24  27
ENDBRANCH  18  24
ENDBRANCH   1  21
BRANCH   2  28
ATOM     28  C   UNL     1      -1.202  -7.561  -2.615  0.00  0.00    +0.339 C 
ATOM     29  O   UNL     1      -1.742  -7.785  -3.683  0.00  0.00    -0.245 OA
BRANCH  28  30
ATOM     30  O   UNL     1      -1.914  -7.638  -1.470  0.00  0.00    -0.465 OA
ATOM     31  C   UNL     1      -3.295  -7.985  -1.586  0.00  0.00    +0.280 C 
ENDBRANCH  28  30
ENDBRANCH   2  28
TORSDOF 6
