REMARK  Name = ZINC34835335
REMARK  20 active torsions:
REMARK  status: ('A' for Active; 'I' for Inactive)
REMARK    1  A    between atoms: C_1  and  C_2
REMARK    2  A    between atoms: C_2  and  C_3
REMARK    3  A    between atoms: C_3  and  C_4
REMARK    4  A    between atoms: C_4  and  C_5
REMARK    5  A    between atoms: C_5  and  C_7
REMARK    6  A    between atoms: C_5  and  C_9
REMARK    7  A    between atoms: C_7  and  C_8
REMARK    8  A    between atoms: N_11  and  C_12
REMARK    9  A    between atoms: N_11  and  C_36
REMARK   10  A    between atoms: C_12  and  C_13
REMARK   11  A    between atoms: C_14  and  C_34
REMARK   12  A    between atoms: N_16  and  C_27
REMARK   13  A    between atoms: C_17  and  N_18
REMARK   14  A    between atoms: N_21  and  C_24
REMARK   15  A    between atoms: C_24  and  C_25
REMARK   16  A    between atoms: C_24  and  C_26
REMARK   17  A    between atoms: C_34  and  C_35
REMARK   18  A    between atoms: C_36  and  C_37
REMARK   19  A    between atoms: C_37  and  C_38
REMARK   20  A    between atoms: C_37  and  C_39
REMARK                            x       y       z     vdW  Elec       q    Type
REMARK                         _______ _______ _______ _____ _____    ______ ____
ROOT
ATOM      1  C   UNL     1      -2.614  -7.312   0.272  0.00  0.00    +0.033 A 
ATOM      2  C   UNL     1      -1.259  -7.202   0.594  0.00  0.00    +0.070 A 
ATOM      3  N   UNL     1      -1.133  -7.284   1.894  0.00  0.00    -0.169 NA
ATOM      4  N   UNL     1      -2.407  -7.450   2.452  0.00  0.00    -0.218 N 
ATOM      5  C   UNL     1      -3.309  -7.459   1.434  0.00  0.00    +0.130 A 
ENDROOT
BRANCH   5   6
ATOM      6  N   UNL     1      -4.689  -7.598   1.557  0.00  0.00    -0.318 N 
ATOM      7  C   UNL     1      -5.278  -8.807   2.151  0.00  0.00    +0.088 C 
ATOM      8  C   UNL     1      -6.277  -8.381   3.232  0.00  0.00    -0.059 C 
ATOM      9  N   UNL     1      -7.255  -7.452   2.653  0.00  0.00    +0.383 N 
ATOM     10  C   UNL     1      -6.583  -6.218   2.228  0.00  0.00    -0.059 C 
ATOM     11  C   UNL     1      -5.599  -6.535   1.102  0.00  0.00    +0.088 C 
ATOM     12  H   UNL     1      -7.697  -7.885   1.856  0.00  0.00    -0.081 HD
BRANCH   9  13
ATOM     13  C   UNL     1      -8.276  -7.130   3.659  0.00  0.00    -0.075 C 
ATOM     14  C   UNL     1      -9.297  -6.162   3.057  0.00  0.00    -0.014 C 
ATOM     15  C   UNL     1      -8.986  -8.413   4.095  0.00  0.00    -0.014 C 
ENDBRANCH   9  13
ENDBRANCH   5   6
BRANCH   4  16
ATOM     16  C   UNL     1      -2.700  -7.578   3.818  0.00  0.00    +0.068 A 
ATOM     17  C   UNL     1      -3.841  -6.986   4.342  0.00  0.00    +0.030 A 
ATOM     18  C   UNL     1      -4.129  -7.113   5.687  0.00  0.00    +0.040 A 
ATOM     19  C   UNL     1      -3.279  -7.830   6.512  0.00  0.00    +0.124 A 
ATOM     20  C   UNL     1      -2.139  -8.420   5.992  0.00  0.00    +0.040 A 
ATOM     21  C   UNL     1      -1.852  -8.301   4.646  0.00  0.00    +0.030 A 
ATOM     22  F   UNL     1      -3.562  -7.953   7.828  0.00  0.00    -0.205 F 
ENDBRANCH   4  16
BRANCH   2  23
ATOM     23  C   UNL     1      -0.132  -7.021  -0.390  0.00  0.00    +0.054 C 
ATOM     24  C   UNL     1       0.202  -5.533  -0.514  0.00  0.00    +0.010 C 
ENDBRANCH   2  23
BRANCH   1  25
ATOM     25  C   UNL     1      -3.204  -7.269  -1.115  0.00  0.00    +0.148 C 
BRANCH  25  28
ATOM     26  C   UNL     1      -4.528  -9.277  -1.505  0.00  0.00    +0.219 C 
ATOM     27  O   UNL     1      -5.487  -8.702  -1.034  0.00  0.00    -0.275 OA
ATOM     28  N   UNL     1      -3.349  -8.634  -1.626  0.00  0.00    -0.297 N 
BRANCH  26  29
ATOM     29  C   UNL     1      -4.656 -10.709  -1.957  0.00  0.00    +0.075 C 
BRANCH  29  30
ATOM     30  C   UNL     1      -3.829 -11.609  -1.036  0.00  0.00    +0.009 C 
ATOM     31  C   UNL     1      -3.251 -12.772  -1.845  0.00  0.00    +0.004 C 
ENDBRANCH  29  30
BRANCH  29  32
ATOM     32  C   UNL     1      -6.125 -11.133  -1.900  0.00  0.00    +0.013 C 
BRANCH  32  33
ATOM     33  C   UNL     1      -6.277 -12.527  -2.511  0.00  0.00    +0.000 C 
BRANCH  33  35
ATOM     34  C   UNL     1      -7.913 -14.292  -3.183  0.00  0.00    +0.004 C 
ATOM     35  C   UNL     1      -7.760 -12.897  -2.572  0.00  0.00    -0.003 C 
ENDBRANCH  33  35
ENDBRANCH  32  33
ENDBRANCH  29  32
ENDBRANCH  26  29
BRANCH  28  36
ATOM     36  C   UNL     1      -2.214  -9.302  -2.268  0.00  0.00    +0.111 C 
BRANCH  36  37
ATOM     37  C   UNL     1      -2.142  -8.884  -3.738  0.00  0.00    +0.000 C 
ATOM     38  C   UNL     1      -0.869  -9.454  -4.368  0.00  0.00    +0.009 C 
ATOM     39  C   UNL     1      -3.365  -9.424  -4.482  0.00  0.00    +0.009 C 
ENDBRANCH  36  37
ENDBRANCH  28  36
ENDBRANCH  25  28
ENDBRANCH   1  25
TORSDOF 13
