REMARK  Name = ZINC05095365
REMARK  5 active torsions:
REMARK  status: ('A' for Active; 'I' for Inactive)
REMARK    1  A    between atoms: C_1  and  C_2
REMARK    2  A    between atoms: C_2  and  C_31
REMARK    3  A    between atoms: C_6  and  C_19
REMARK    4  A    between atoms: C_13  and  S_17
REMARK    5  A    between atoms: S_17  and  C_18
REMARK                            x       y       z     vdW  Elec       q    Type
REMARK                         _______ _______ _______ _____ _____    ______ ____
ROOT
ATOM      1  C   UNL     1       0.211   6.793   2.812  0.00  0.00    +0.011 C 
ATOM      2  C   UNL     1      -0.434   5.575   3.478  0.00  0.00    -0.023 C 
ATOM      3  C   UNL     1      -1.476   4.965   2.538  0.00  0.00    +0.058 C 
ATOM      4  C   UNL     1      -0.804   4.507   1.266  0.00  0.00    +0.017 C 
ATOM      5  C   UNL     1       0.473   4.071   1.274  0.00  0.00    +0.024 C 
ATOM      6  C   UNL     1       1.143   3.595   0.010  0.00  0.00    +0.093 C 
ATOM      7  C   UNL     1       0.415   4.080  -1.208  0.00  0.00    +0.069 A 
ATOM      8  C   UNL     1       1.048   4.086  -2.456  0.00  0.00    +0.258 A 
ATOM      9  O   UNL     1       2.200   3.698  -2.571  0.00  0.00    -0.267 OA
ATOM     10  N   UNL     1       0.361   4.528  -3.531  0.00  0.00    -0.302 N 
ATOM     11  H   UNL     1       0.839   4.544  -4.521  0.00  0.00    +0.171 HD
ATOM     12  C   UNL     1      -0.925   4.955  -3.391  0.00  0.00    +0.171 A 
ATOM     13  N   UNL     1      -1.526   4.953  -2.218  0.00  0.00    -0.208 NA
ATOM     14  C   UNL     1      -0.891   4.530  -1.120  0.00  0.00    +0.135 A 
ATOM     15  N   UNL     1      -1.528   4.542   0.106  0.00  0.00    -0.302 N 
ATOM     16  C   UNL     1       1.223   4.047   2.463  0.00  0.00    +0.162 C 
ATOM     17  O   UNL     1       2.367   3.638   2.438  0.00  0.00    -0.292 OA
ATOM     18  C   UNL     1       0.637   4.518   3.766  0.00  0.00    +0.086 C 
ATOM     19  C   UNL     1      -1.105   6.000   4.786  0.00  0.00    +0.011 C 
ATOM     20  H   UNL     1      -2.627   4.581   0.144  0.00  0.00    +0.153 HD
ENDROOT
BRANCH   6  21
ATOM     21  C   UNL     1       1.169   2.089   0.002  0.00  0.00    -0.032 A 
ATOM     22  C   UNL     1      -0.017   1.378   0.010  0.00  0.00    +0.008 A 
ATOM     23  C   UNL     1       0.002  -0.004   0.002  0.00  0.00    +0.050 A 
ATOM     24  C   UNL     1       1.211  -0.681  -0.013  0.00  0.00    +0.166 A 
ATOM     25  C   UNL     1       2.405   0.035  -0.021  0.00  0.00    +0.167 A 
ATOM     26  C   UNL     1       2.379   1.420  -0.013  0.00  0.00    +0.054 A 
ATOM     27  O   UNL     1       3.444  -0.851  -0.036  0.00  0.00    -0.453 OA
ATOM     28  C   UNL     1       2.881  -2.111   0.375  0.00  0.00    +0.466 C 
ATOM     29  O   UNL     1       1.501  -2.015  -0.024  0.00  0.00    -0.453 OA
ENDBRANCH   6  21
BRANCH  12  30
ATOM     30  S   UNL     1      -1.804   5.522  -4.809  0.00  0.00    -0.091 S 
ATOM     31  C   UNL     1      -3.392   5.942  -4.048  0.00  0.00    +0.093 C 
ENDBRANCH  12  30
TORSDOF 2
