REMARK  Name = ZINC36527388
REMARK  13 active torsions:
REMARK  status: ('A' for Active; 'I' for Inactive)
REMARK    1  A    between atoms: C_1  and  C_2
REMARK    2  A    between atoms: C_2  and  C_3
REMARK    3  A    between atoms: C_3  and  C_5
REMARK    4  A    between atoms: C_3  and  C_11
REMARK    5  A    between atoms: N_13  and  C_14
REMARK    6  A    between atoms: N_13  and  C_15
REMARK    7  A    between atoms: C_15  and  C_17
REMARK    8  A    between atoms: C_15  and  C_24
REMARK    9  A    between atoms: C_22  and  O_23
REMARK   10  A    between atoms: N_26  and  C_27
REMARK   11  A    between atoms: C_27  and  S_28
REMARK   12  A    between atoms: S_28  and  C_31
REMARK   13  A    between atoms: C_34  and  C_37
REMARK                            x       y       z     vdW  Elec       q    Type
REMARK                         _______ _______ _______ _____ _____    ______ ____
ROOT
ATOM      1  C   UNL     1      -0.743  -3.872  -1.251  0.00  0.00    +0.195 C 
ENDROOT
BRANCH   1   2
ATOM      2  C   UNL     1      -1.673  -4.145  -0.097  0.00  0.00    +0.023 A 
ATOM      3  C   UNL     1      -2.948  -4.622  -0.334  0.00  0.00    +0.009 A 
ATOM      4  C   UNL     1      -3.802  -4.872   0.724  0.00  0.00    +0.001 A 
ATOM      5  C   UNL     1      -3.383  -4.646   2.022  0.00  0.00    +0.004 A 
ATOM      6  C   UNL     1      -2.109  -4.170   2.265  0.00  0.00    +0.046 A 
ATOM      7  C   UNL     1      -1.248  -3.923   1.204  0.00  0.00    +0.122 A 
BRANCH   7   8
ATOM      8  O   UNL     1       0.007  -3.460   1.441  0.00  0.00    -0.506 OA
ATOM      9  H   UNL     1       0.073  -2.495   1.465  0.00  0.00    +0.292 HD
ENDBRANCH   7   8
ENDBRANCH   1   2
BRANCH   1  12
ATOM     10  C   UNL     1       0.539  -1.814  -1.488  0.00  0.00    +0.224 C 
ATOM     11  O   UNL     1       0.602  -0.607  -1.589  0.00  0.00    -0.275 OA
ATOM     12  N   UNL     1      -0.661  -2.428  -1.481  0.00  0.00    -0.288 N 
ATOM     13  C   UNL     1      -1.883  -1.650  -1.703  0.00  0.00    +0.133 C 
BRANCH  10  14
ATOM     14  C   UNL     1       1.802  -2.627  -1.370  0.00  0.00    +0.105 C 
BRANCH  14  15
ATOM     15  C   UNL     1       2.931  -1.738  -0.915  0.00  0.00    -0.036 A 
ATOM     16  C   UNL     1       3.301  -0.646  -1.678  0.00  0.00    +0.004 A 
ATOM     17  C   UNL     1       4.337   0.169  -1.261  0.00  0.00    +0.000 A 
ATOM     18  C   UNL     1       5.002  -0.108  -0.081  0.00  0.00    +0.000 A 
ATOM     19  C   UNL     1       4.631  -1.199   0.682  0.00  0.00    +0.000 A 
ATOM     20  C   UNL     1       3.593  -2.012   0.267  0.00  0.00    +0.004 A 
ENDBRANCH  14  15
BRANCH  14  22
ATOM     21  C   UNL     1       3.370  -4.141  -2.591  0.00  0.00    +0.005 C 
ATOM     22  C   UNL     1       2.147  -3.233  -2.732  0.00  0.00    +0.014 C 
ENDBRANCH  14  22
ENDBRANCH  10  14
ENDBRANCH   1  12
BRANCH   1  23
ATOM     23  C   UNL     1      -1.269  -4.549  -2.491  0.00  0.00    +0.239 C 
ATOM     24  O   UNL     1      -1.548  -3.889  -3.470  0.00  0.00    -0.273 OA
ATOM     25  N   UNL     1      -1.430  -5.887  -2.512  0.00  0.00    -0.294 N 
ATOM     26  H   UNL     1      -1.207  -6.414  -1.729  0.00  0.00    +0.150 HD
BRANCH  25  27
ATOM     27  C   UNL     1      -1.941  -6.544  -3.717  0.00  0.00    +0.278 C 
BRANCH  27  28
ATOM     28  S   UNL     1      -0.549  -7.130  -4.722  0.00  0.00    +0.013 S 
ATOM     29  O   UNL     1      -1.029  -7.827  -5.864  0.00  0.00    -0.168 OA
ATOM     30  O   UNL     1       0.424  -6.104  -4.856  0.00  0.00    -0.168 OA
BRANCH  28  31
ATOM     31  C   UNL     1       0.232  -8.366  -3.738  0.00  0.00    +0.090 A 
ATOM     32  C   UNL     1       1.239  -8.014  -2.859  0.00  0.00    +0.027 A 
ATOM     33  C   UNL     1       1.852  -8.983  -2.087  0.00  0.00    +0.005 A 
ATOM     34  C   UNL     1       1.457 -10.304  -2.193  0.00  0.00    -0.050 A 
ATOM     35  C   UNL     1       0.449 -10.655  -3.071  0.00  0.00    +0.005 A 
ATOM     36  C   UNL     1      -0.167  -9.685  -3.841  0.00  0.00    +0.027 A 
ATOM     37  C   UNL     1       2.126 -11.361  -1.352  0.00  0.00    +0.044 C 
ENDBRANCH  28  31
ENDBRANCH  27  28
ENDBRANCH  25  27
ENDBRANCH   1  23
TORSDOF 10
