REMARK  Name = ZINC08251725
REMARK  4 active torsions:
REMARK  status: ('A' for Active; 'I' for Inactive)
REMARK    1  A    between atoms: C_3  and  N_8
REMARK    2  A    between atoms: C_9  and  S_13
REMARK    3  A    between atoms: S_13  and  C_14
REMARK    4  A    between atoms: C_14  and  C_15
REMARK                            x       y       z     vdW  Elec       q    Type
REMARK                         _______ _______ _______ _____ _____    ______ ____
ROOT
ATOM      1  C   UNL     1      -0.046   2.168   2.217  0.00  0.00    +0.227 C 
ATOM      2  O   UNL     1      -0.656   2.635   3.155  0.00  0.00    -0.275 OA
ATOM      3  N   UNL     1      -0.712   1.566   1.212  0.00  0.00    -0.278 N 
ATOM      4  C   UNL     1      -0.201   1.589  -0.169  0.00  0.00    +0.204 C 
ATOM      5  C   UNL     1      -1.320   2.017  -1.084  0.00  0.00    +0.237 C 
ATOM      6  O   UNL     1      -1.053   2.528  -2.150  0.00  0.00    -0.274 OA
ATOM      7  N   UNL     1      -2.605   1.842  -0.743  0.00  0.00    -0.253 N 
ATOM      8  C   UNL     1      -2.990   1.327   0.434  0.00  0.00    +0.243 C 
ATOM      9  O   UNL     1      -4.172   1.238   0.686  0.00  0.00    -0.273 OA
ATOM     10  C   UNL     1      -1.980   0.858   1.448  0.00  0.00    +0.114 C 
ATOM     11  C   UNL     1      -1.757  -0.647   1.300  0.00  0.00    +0.035 C 
ATOM     12  C   UNL     1      -0.719  -1.112   2.323  0.00  0.00    +0.003 C 
ATOM     13  C   UNL     1      -1.222  -0.804   3.735  0.00  0.00    +0.000 C 
ATOM     14  C   UNL     1      -1.442   0.703   3.882  0.00  0.00    +0.003 C 
ATOM     15  C   UNL     1      -2.480   1.169   2.859  0.00  0.00    +0.035 C 
ATOM     16  H   UNL     1      -3.290   2.101  -1.379  0.00  0.00    +0.158 HD
ENDROOT
BRANCH   1  17
ATOM     17  C   UNL     1       1.458   2.262   2.174  0.00  0.00    +0.173 C 
BRANCH  17  18
ATOM     18  S   UNL     1       2.050   3.119   3.654  0.00  0.00    -0.075 S 
BRANCH  18  20
ATOM     19  N   UNL     1       4.758   3.608   4.151  0.00  0.00    -0.187 N 
ATOM     20  C   UNL     1       3.786   3.088   3.351  0.00  0.00    +0.214 A 
ATOM     21  N   UNL     1       4.389   2.563   2.306  0.00  0.00    -0.101 NA
ATOM     22  N   UNL     1       5.661   2.712   2.398  0.00  0.00    -0.022 NA
ATOM     23  N   UNL     1       5.966   3.331   3.487  0.00  0.00    -0.038 NA
BRANCH  19  26
ATOM     24  C   UNL     1       3.322   5.744   6.782  0.00  0.00    +0.005 A 
ATOM     25  C   UNL     1       3.489   5.093   5.574  0.00  0.00    +0.028 A 
ATOM     26  C   UNL     1       4.591   4.273   5.374  0.00  0.00    +0.073 A 
ATOM     27  C   UNL     1       5.530   4.117   6.384  0.00  0.00    +0.066 A 
ATOM     28  C   UNL     1       5.362   4.775   7.590  0.00  0.00    +0.125 A 
ATOM     29  C   UNL     1       4.258   5.588   7.787  0.00  0.00    +0.038 A 
ATOM     30  F   UNL     1       6.275   4.625   8.574  0.00  0.00    -0.205 F 
ENDBRANCH  19  26
ENDBRANCH  18  20
ENDBRANCH  17  18
ENDBRANCH   1  17
TORSDOF 4
