REMARK  Name = ZINC21971225
REMARK  6 active torsions:
REMARK  status: ('A' for Active; 'I' for Inactive)
REMARK    1  A    between atoms: C_4  and  C_7
REMARK    2  A    between atoms: C_8  and  S_9
REMARK    3  A    between atoms: S_9  and  N_12
REMARK    4  A    between atoms: C_15  and  C_18
REMARK    5  A    between atoms: N_20  and  N_21
REMARK    6  A    between atoms: C_22  and  C_24
REMARK                            x       y       z     vdW  Elec       q    Type
REMARK                         _______ _______ _______ _____ _____    ______ ____
ROOT
ATOM      1  C   UNL     1      -1.163   2.024   5.574  0.00  0.00    +0.232 C 
ATOM      2  O   UNL     1      -1.021   0.918   6.050  0.00  0.00    -0.274 OA
ATOM      3  N   UNL     1      -1.060   3.114   6.360  0.00  0.00    -0.234 N 
ATOM      4  H   UNL     1      -1.188   4.118   5.928  0.00  0.00    +0.173 HD
ENDROOT
BRANCH   1   8
ATOM      5  N   UNL     1      -0.872   1.871   1.353  0.00  0.00    -0.177 NA
ATOM      6  C   UNL     1      -0.660   3.190   1.965  0.00  0.00    +0.110 C 
ATOM      7  C   UNL     1      -0.346   3.007   3.448  0.00  0.00    +0.030 C 
ATOM      8  C   UNL     1      -1.456   2.180   4.104  0.00  0.00    +0.079 C 
ATOM      9  C   UNL     1      -1.521   0.799   3.447  0.00  0.00    +0.030 C 
ATOM     10  C   UNL     1      -1.852   0.960   1.960  0.00  0.00    +0.110 C 
BRANCH   5  11
ATOM     11  S   UNL     1      -0.017   1.417   0.010  0.00  0.00    +0.054 S 
ATOM     12  O   UNL     1       0.002  -0.004   0.002  0.00  0.00    -0.153 OA
ATOM     13  O   UNL     1       1.172   2.195   0.003  0.00  0.00    -0.153 OA
BRANCH  11  15
ATOM     14  C   UNL     1      -0.475   2.840  -2.218  0.00  0.00    +0.028 C 
ATOM     15  C   UNL     1      -0.954   1.915  -1.397  0.00  0.00    +0.153 C 
BRANCH  14  19
ATOM     16  C   UNL     1      -2.733   4.042  -5.609  0.00  0.00    +0.000 A 
ATOM     17  C   UNL     1      -1.499   4.617  -5.364  0.00  0.00    +0.001 A 
ATOM     18  C   UNL     1      -0.760   4.231  -4.264  0.00  0.00    +0.008 A 
ATOM     19  C   UNL     1      -1.261   3.258  -3.398  0.00  0.00    -0.024 A 
ATOM     20  C   UNL     1      -2.504   2.678  -3.654  0.00  0.00    +0.008 A 
ATOM     21  C   UNL     1      -3.235   3.077  -4.754  0.00  0.00    +0.001 A 
ENDBRANCH  14  19
ENDBRANCH  11  15
ENDBRANCH   5  11
ENDBRANCH   1   8
BRANCH   3  22
ATOM     22  N   UNL     1      -0.788   2.969   7.726  0.00  0.00    -0.230 N 
ATOM     23  C   UNL     1      -0.684   4.059   8.512  0.00  0.00    +0.267 C 
ATOM     24  O   UNL     1      -0.827   5.170   8.035  0.00  0.00    -0.268 OA
ATOM     25  H   UNL     1      -0.659   1.966   8.158  0.00  0.00    +0.173 HD
BRANCH  23  26
ATOM     26  C   UNL     1      -0.400   3.907   9.942  0.00  0.00    +0.076 A 
ATOM     27  C   UNL     1      -0.256   4.883  10.912  0.00  0.00    +0.024 A 
ATOM     28  C   UNL     1       0.008   4.477  12.215  0.00  0.00    -0.036 A 
ATOM     29  C   UNL     1       0.131   3.146  12.421  0.00  0.00    -0.006 A 
ATOM     30  S   UNL     1      -0.157   2.414  10.891  0.00  0.00    -0.088 S 
ATOM     31  C   UNL     1       0.466   2.461  13.726  0.00  0.00    +0.043 C 
ATOM     32  C   UNL     1      -0.737   2.658  14.665  0.00  0.00    +0.005 C 
ATOM     33  C   UNL     1      -0.712   4.044  15.265  0.00  0.00    +0.001 C 
ATOM     34  C   UNL     1      -1.042   5.183  14.335  0.00  0.00    +0.005 C 
ATOM     35  C   UNL     1       0.104   5.484  13.367  0.00  0.00    +0.036 C 
ENDBRANCH  23  26
ENDBRANCH   3  22
TORSDOF 6
