REMARK  Name = ZINC21222490
REMARK  8 active torsions:
REMARK  status: ('A' for Active; 'I' for Inactive)
REMARK    1  A    between atoms: C_1  and  C_2
REMARK    2  A    between atoms: C_2  and  O_3
REMARK    3  A    between atoms: O_3  and  C_4
REMARK    4  A    between atoms: C_7  and  C_12
REMARK    5  A    between atoms: C_9  and  O_10
REMARK    6  A    between atoms: O_10  and  C_11
REMARK    7  A    between atoms: C_17  and  C_27
REMARK    8  A    between atoms: C_30  and  N_33
REMARK                            x       y       z     vdW  Elec       q    Type
REMARK                         _______ _______ _______ _____ _____    ______ ____
ROOT
ATOM      1  C   UNL     1      -4.331  -0.348  -2.576  0.00  0.00    +0.032 C 
ATOM      2  C   UNL     1      -3.935  -0.252  -1.103  0.00  0.00    +0.059 C 
ATOM      3  C   UNL     1      -3.350   1.120  -0.813  0.00  0.00    +0.017 C 
ATOM      4  C   UNL     1      -3.788   2.203  -1.478  0.00  0.00    +0.036 C 
ATOM      5  C   UNL     1      -3.306   3.619  -1.279  0.00  0.00    +0.136 C 
ATOM      6  N   UNL     1      -2.485   3.818  -0.092  0.00  0.00    -0.331 N 
ATOM      7  C   UNL     1      -1.236   3.207   0.017  0.00  0.00    +0.049 A 
ATOM      8  C   UNL     1      -0.064   3.945   0.025  0.00  0.00    +0.025 A 
ATOM      9  C   UNL     1       1.154   3.287   0.045  0.00  0.00    +0.002 A 
ATOM     10  C   UNL     1       1.201   1.904   0.057  0.00  0.00    +0.002 A 
ATOM     11  C   UNL     1       0.031   1.164   0.066  0.00  0.00    +0.025 A 
ATOM     12  C   UNL     1      -1.188   1.821   0.058  0.00  0.00    +0.052 A 
ATOM     13  N   UNL     1      -2.397   1.144   0.151  0.00  0.00    -0.316 N 
ATOM     14  C   UNL     1      -4.784   2.071  -2.475  0.00  0.00    +0.163 C 
ATOM     15  O   UNL     1      -5.178   3.069  -3.046  0.00  0.00    -0.292 OA
ATOM     16  C   UNL     1      -5.372   0.744  -2.852  0.00  0.00    +0.088 C 
ATOM     17  H   UNL     1      -2.848   4.455   0.728  0.00  0.00    +0.147 HD
ATOM     18  H   UNL     1      -2.553   0.598   1.094  0.00  0.00    +0.152 HD
ENDROOT
BRANCH   1  22
ATOM     19  C   UNL     1      -6.025  -4.194  -3.370  0.00  0.00    +0.162 A 
ATOM     20  C   UNL     1      -6.612  -3.354  -2.437  0.00  0.00    +0.050 A 
ATOM     21  C   UNL     1      -6.062  -2.111  -2.182  0.00  0.00    +0.008 A 
ATOM     22  C   UNL     1      -4.926  -1.704  -2.857  0.00  0.00    -0.040 A 
ATOM     23  C   UNL     1      -4.339  -2.534  -3.793  0.00  0.00    +0.053 A 
ATOM     24  C   UNL     1      -4.882  -3.783  -4.049  0.00  0.00    +0.162 A 
BRANCH  24  25
ATOM     25  O   UNL     1      -4.303  -4.603  -4.966  0.00  0.00    -0.491 OA
ATOM     26  C   UNL     1      -3.132  -4.116  -5.624  0.00  0.00    +0.277 C 
ENDBRANCH  24  25
BRANCH  19  27
ATOM     27  O   UNL     1      -6.566  -5.416  -3.622  0.00  0.00    -0.489 OA
BRANCH  27  29
ATOM     28  C   UNL     1      -8.197  -7.170  -3.303  0.00  0.00    +0.048 C 
ATOM     29  C   UNL     1      -7.739  -5.770  -2.888  0.00  0.00    +0.226 C 
ENDBRANCH  27  29
ENDBRANCH  19  27
ENDBRANCH   1  22
BRANCH   5  30
ATOM     30  C   UNL     1      -2.511   4.027  -2.493  0.00  0.00    -0.023 A 
ATOM     31  C   UNL     1      -2.959   5.061  -3.296  0.00  0.00    +0.007 A 
ATOM     32  C   UNL     1      -2.230   5.441  -4.405  0.00  0.00    +0.023 A 
ATOM     33  C   UNL     1      -1.052   4.776  -4.721  0.00  0.00    +0.030 A 
ATOM     34  C   UNL     1      -0.608   3.735  -3.916  0.00  0.00    +0.023 A 
ATOM     35  C   UNL     1      -1.339   3.364  -2.804  0.00  0.00    +0.007 A 
BRANCH  33  36
ATOM     36  N   UNL     1      -0.315   5.155  -5.846  0.00  0.00    -0.326 N 
ATOM     37  C   UNL     1       1.066   5.502  -5.478  0.00  0.00    +0.133 C 
ATOM     38  C   UNL     1       1.852   5.852  -6.744  0.00  0.00    +0.178 C 
ATOM     39  O   UNL     1       1.191   6.918  -7.431  0.00  0.00    -0.377 OA
ATOM     40  C   UNL     1      -0.156   6.613  -7.804  0.00  0.00    +0.178 C 
ATOM     41  C   UNL     1      -0.963   6.271  -6.549  0.00  0.00    +0.133 C 
ENDBRANCH  33  36
ENDBRANCH   5  30
TORSDOF 6
