REMARK  Name = ZINC13503252
REMARK  9 active torsions:
REMARK  status: ('A' for Active; 'I' for Inactive)
REMARK    1  A    between atoms: C_5  and  N_7
REMARK    2  A    between atoms: N_7  and  C_8
REMARK    3  A    between atoms: C_8  and  C_9
REMARK    4  A    between atoms: N_11  and  C_12
REMARK    5  A    between atoms: C_12  and  C_13
REMARK    6  A    between atoms: C_18  and  C_20
REMARK    7  A    between atoms: C_20  and  N_21
REMARK    8  A    between atoms: N_21  and  S_22
REMARK    9  A    between atoms: S_22  and  C_25
REMARK                            x       y       z     vdW  Elec       q    Type
REMARK                         _______ _______ _______ _____ _____    ______ ____
ROOT
ATOM      1  N   UNL     1      -2.602   4.095   0.037  0.00  0.00    -0.259 N 
ATOM      2  C   UNL     1      -3.246   4.317  -1.126  0.00  0.00    +0.236 C 
ATOM      3  O   UNL     1      -2.676   4.129  -2.180  0.00  0.00    -0.274 OA
ENDROOT
BRANCH   1   8
ATOM      4  C   UNL     1      -3.851   5.771   3.064  0.00  0.00    +0.002 A 
ATOM      5  C   UNL     1      -4.559   4.744   3.660  0.00  0.00    +0.003 A 
ATOM      6  C   UNL     1      -4.620   3.501   3.057  0.00  0.00    +0.040 A 
ATOM      7  C   UNL     1      -3.973   3.281   1.855  0.00  0.00    +0.145 A 
ATOM      8  C   UNL     1      -3.260   4.313   1.254  0.00  0.00    +0.072 A 
ATOM      9  C   UNL     1      -3.197   5.557   1.866  0.00  0.00    +0.026 A 
ATOM     10  F   UNL     1      -4.032   2.067   1.266  0.00  0.00    -0.204 F 
ENDBRANCH   1   8
BRANCH   1  11
ATOM     11  C   UNL     1      -1.214   3.626   0.028  0.00  0.00    +0.209 C 
BRANCH  11  12
ATOM     12  C   UNL     1      -1.194   2.119   0.019  0.00  0.00    +0.231 C 
ATOM     13  O   UNL     1      -2.236   1.498   0.021  0.00  0.00    -0.274 OA
ATOM     14  N   UNL     1      -0.018   1.461   0.010  0.00  0.00    -0.307 N 
ATOM     15  H   UNL     1       0.816   1.957   0.005  0.00  0.00    +0.149 HD
BRANCH  14  16
ATOM     16  C   UNL     1       0.002  -0.004   0.002  0.00  0.00    +0.178 C 
BRANCH  16  17
ATOM     17  C   UNL     1       1.429  -0.487  -0.014  0.00  0.00    +0.122 A 
ATOM     18  C   UNL     1       2.185  -0.745   1.068  0.00  0.00    +0.046 A 
ATOM     19  C   UNL     1       3.447  -1.171   0.595  0.00  0.00    +0.041 A 
ATOM     20  C   UNL     1       3.388  -1.148  -0.749  0.00  0.00    +0.195 A 
ATOM     21  O   UNL     1       2.161  -0.738  -1.112  0.00  0.00    -0.466 OA
ENDBRANCH  16  17
ENDBRANCH  14  16
ENDBRANCH  11  12
ENDBRANCH   1  11
BRANCH   2  22
ATOM     22  C   UNL     1      -4.673   4.800  -1.117  0.00  0.00    +0.202 C 
BRANCH  22  23
ATOM     23  N   UNL     1      -5.143   4.964  -2.495  0.00  0.00    -0.181 NA
ATOM     24  H   UNL     1      -4.505   4.981  -3.226  0.00  0.00    +0.149 HD
BRANCH  23  25
ATOM     25  S   UNL     1      -6.762   5.122  -2.805  0.00  0.00    +0.059 S 
ATOM     26  O   UNL     1      -6.891   5.288  -4.211  0.00  0.00    -0.153 OA
ATOM     27  O   UNL     1      -7.414   4.075  -2.099  0.00  0.00    -0.153 OA
BRANCH  25  28
ATOM     28  C   UNL     1      -7.289   6.632  -2.068  0.00  0.00    +0.105 A 
ATOM     29  C   UNL     1      -7.753   6.641  -0.766  0.00  0.00    +0.030 A 
ATOM     30  C   UNL     1      -8.161   7.826  -0.185  0.00  0.00    +0.022 A 
ATOM     31  C   UNL     1      -8.117   9.003  -0.911  0.00  0.00    +0.041 A 
ATOM     32  C   UNL     1      -7.659   8.993  -2.216  0.00  0.00    +0.022 A 
ATOM     33  C   UNL     1      -7.245   7.808  -2.794  0.00  0.00    +0.030 A 
ATOM     34 CL   UNL     1      -8.636  10.492  -0.184  0.00  0.00    -0.084 Cl
ENDBRANCH  25  28
ENDBRANCH  23  25
ENDBRANCH  22  23
ENDBRANCH   2  22
TORSDOF 9
