REMARK  Name = ZINC12279992
REMARK  8 active torsions:
REMARK  status: ('A' for Active; 'I' for Inactive)
REMARK    1  A    between atoms: C_1  and  O_2
REMARK    2  A    between atoms: O_2  and  C_3
REMARK    3  A    between atoms: C_5  and  C_12
REMARK    4  A    between atoms: C_12  and  N_63
REMARK    5  A    between atoms: C_19  and  C_23
REMARK    6  A    between atoms: C_23  and  N_65
REMARK    7  A    between atoms: C_28  and  C_30
REMARK    8  A    between atoms: C_30  and  O_31
REMARK                            x       y       z     vdW  Elec       q    Type
REMARK                         _______ _______ _______ _____ _____    ______ ____
ROOT
ATOM      1  C   UNL     1      -5.052  -2.659   1.113  0.00  0.00    -0.036 C 
ATOM      2  C   UNL     1      -4.617  -3.982   1.707  0.00  0.00    +0.210 C 
ATOM      3  O   UNL     1      -4.966  -5.066   0.838  0.00  0.00    -0.494 OA
ATOM      4  C   UNL     1      -4.065  -5.339  -0.143  0.00  0.00    +0.122 A 
ATOM      5  C   UNL     1      -3.322  -6.511  -0.101  0.00  0.00    +0.046 A 
ATOM      6  C   UNL     1      -2.393  -6.769  -1.090  0.00  0.00    +0.005 A 
ATOM      7  C   UNL     1      -2.200  -5.864  -2.118  0.00  0.00    -0.064 A 
ATOM      8  C   UNL     1      -2.945  -4.699  -2.165  0.00  0.00    +0.007 A 
ATOM      9  C   UNL     1      -3.880  -4.447  -1.183  0.00  0.00    -0.022 A 
ATOM     10  C   UNL     1      -4.730  -3.192  -1.241  0.00  0.00    -0.039 C 
ATOM     11  N   UNL     1      -4.317  -2.312  -0.121  0.00  0.00    +0.387 N 
ATOM     12  H   UNL     1      -3.312  -2.442   0.046  0.00  0.00    -0.081 HD
ENDROOT
BRANCH  11  13
ATOM     13  C   UNL     1      -4.564  -0.904  -0.471  0.00  0.00    -0.042 C 
BRANCH  13  16
ATOM     14  C   UNL     1      -1.976   1.163   1.348  0.00  0.00    +0.166 A 
ATOM     15  C   UNL     1      -2.588   0.359   0.398  0.00  0.00    +0.051 A 
ATOM     16  C   UNL     1      -3.903  -0.031   0.564  0.00  0.00    -0.057 A 
ATOM     17  C   UNL     1      -4.614   0.377   1.677  0.00  0.00    +0.051 A 
ATOM     18  C   UNL     1      -4.010   1.179   2.633  0.00  0.00    +0.170 A 
ATOM     19  C   UNL     1      -2.684   1.570   2.472  0.00  0.00    +0.208 A 
ATOM     20  O   UNL     1      -2.327   2.352   3.533  0.00  0.00    -0.449 OA
ATOM     21  C   UNL     1      -3.565   2.763   4.143  0.00  0.00    +0.467 C 
ATOM     22  O   UNL     1      -4.482   1.708   3.800  0.00  0.00    -0.452 OA
BRANCH  14  24
ATOM     23  C   UNL     1      -0.013   1.086   0.008  0.00  0.00    +0.277 C 
ATOM     24  O   UNL     1      -0.682   1.547   1.184  0.00  0.00    -0.491 OA
ENDBRANCH  14  24
ENDBRANCH  13  16
ENDBRANCH  11  13
BRANCH   7  25
ATOM     25  C   UNL     1      -1.177  -6.147  -3.188  0.00  0.00    -0.043 C 
BRANCH  25  31
ATOM     26  C   UNL     1       0.423  -5.922  -1.385  0.00  0.00    -0.078 C 
ATOM     27  C   UNL     1       1.707  -5.208  -0.956  0.00  0.00    -0.019 C 
ATOM     28  C   UNL     1       2.858  -5.648  -1.864  0.00  0.00    -0.003 C 
ATOM     29  C   UNL     1       2.498  -5.336  -3.319  0.00  0.00    -0.013 C 
ATOM     30  C   UNL     1       1.192  -6.046  -3.680  0.00  0.00    -0.042 C 
ATOM     31  N   UNL     1       0.119  -5.561  -2.786  0.00  0.00    +0.386 N 
ATOM     32  H   UNL     1       0.060  -4.539  -2.861  0.00  0.00    -0.081 HD
BRANCH  30  33
ATOM     33  C   UNL     1       0.817  -5.721  -5.127  0.00  0.00    +0.140 C 
BRANCH  33  34
ATOM     34  O   UNL     1       0.760  -4.303  -5.297  0.00  0.00    -0.397 OA
ATOM     35  H   UNL     1       0.527  -4.024  -6.193  0.00  0.00    +0.209 HD
ENDBRANCH  33  34
ENDBRANCH  30  33
ENDBRANCH  25  31
ENDBRANCH   7  25
TORSDOF 7
