REMARK  Name = ZINC53524674
REMARK  7 active torsions:
REMARK  status: ('A' for Active; 'I' for Inactive)
REMARK    1  A    between atoms: C_1  and  N_2
REMARK    2  A    between atoms: N_2  and  C_3
REMARK    3  A    between atoms: C_3  and  C_4
REMARK    4  A    between atoms: N_17  and  C_18
REMARK    5  A    between atoms: C_18  and  C_19
REMARK    6  A    between atoms: C_19  and  C_21
REMARK    7  A    between atoms: C_19  and  N_26
REMARK                            x       y       z     vdW  Elec       q    Type
REMARK                         _______ _______ _______ _____ _____    ______ ____
ROOT
ATOM      1  C   UNL     1       0.544   1.850  -0.157  0.00  0.00    +0.133 C 
ATOM      2  N   UNL     1       0.505   0.390  -0.036  0.00  0.00    -0.285 N 
ATOM      3  C   UNL     1       0.352  -0.373  -1.137  0.00  0.00    +0.302 C 
ATOM      4  O   UNL     1       0.320  -1.584  -1.037  0.00  0.00    -0.253 OA
ATOM      5  N   UNL     1       0.234   0.207  -2.348  0.00  0.00    -0.300 N 
ATOM      6  H   UNL     1       0.260   1.173  -2.427  0.00  0.00    +0.150 HD
ENDROOT
BRANCH   2   7
ATOM      7  C   UNL     1       0.633  -0.240   1.280  0.00  0.00    +0.157 C 
BRANCH   7   8
ATOM      8  C   UNL     1      -0.755  -0.408   1.902  0.00  0.00    +0.228 C 
ATOM      9  C   UNL     1      -0.626  -1.055   3.288  0.00  0.00    +0.275 C 
ATOM     10  O   UNL     1      -1.938  -1.184   3.846  0.00  0.00    -0.485 OA
ATOM     11  C   UNL     1      -2.750  -0.095   3.757  0.00  0.00    +0.162 A 
ATOM     12  C   UNL     1      -3.870  -0.013   4.572  0.00  0.00    +0.049 A 
ATOM     13  C   UNL     1      -4.706   1.084   4.491  0.00  0.00    +0.004 A 
ATOM     14  C   UNL     1      -4.428   2.103   3.599  0.00  0.00    +0.004 A 
ATOM     15  C   UNL     1      -3.313   2.029   2.786  0.00  0.00    +0.049 A 
ATOM     16  C   UNL     1      -2.470   0.930   2.862  0.00  0.00    +0.163 A 
ATOM     17  O   UNL     1      -1.371   0.875   2.060  0.00  0.00    -0.480 OA
ENDBRANCH   7   8
ENDBRANCH   2   7
BRANCH   5  18
ATOM     18  C   UNL     1       0.067  -0.622  -3.544  0.00  0.00    +0.098 C 
BRANCH  18  19
ATOM     19  C   UNL     1      -0.173   0.277  -4.758  0.00  0.00    +0.016 C 
BRANCH  19  20
ATOM     20  N   UNL     1      -1.305   1.172  -4.489  0.00  0.00    +0.387 N 
ATOM     21  C   UNL     1      -2.510   0.373  -4.234  0.00  0.00    -0.078 C 
ATOM     22  C   UNL     1      -3.674   1.298  -3.873  0.00  0.00    -0.019 C 
ATOM     23  C   UNL     1      -3.934   2.259  -5.036  0.00  0.00    -0.004 C 
ATOM     24  C   UNL     1      -2.650   3.035  -5.341  0.00  0.00    -0.019 C 
ATOM     25  C   UNL     1      -1.523   2.046  -5.648  0.00  0.00    -0.078 C 
ATOM     26  H   UNL     1      -1.101   1.736  -3.677  0.00  0.00    -0.081 HD
ENDBRANCH  19  20
BRANCH  19  27
ATOM     27  C   UNL     1       1.063   1.097  -5.028  0.00  0.00    +0.093 A 
ATOM     28  C   UNL     1       1.991   0.836  -5.966  0.00  0.00    +0.043 A 
ATOM     29  C   UNL     1       2.968   1.853  -5.870  0.00  0.00    +0.041 A 
ATOM     30  C   UNL     1       2.578   2.675  -4.879  0.00  0.00    +0.195 A 
ATOM     31  O   UNL     1       1.421   2.215  -4.377  0.00  0.00    -0.469 OA
ENDBRANCH  19  27
ENDBRANCH  18  19
ENDBRANCH   5  18
TORSDOF 6
