REMARK  Name = ZINC21999882
REMARK  4 active torsions:
REMARK  status: ('A' for Active; 'I' for Inactive)
REMARK    1  A    between atoms: C_7  and  C_9
REMARK    2  A    between atoms: C_9  and  N_10
REMARK    3  A    between atoms: N_13  and  C_16
REMARK    4  A    between atoms: C_16  and  C_17
REMARK                            x       y       z     vdW  Elec       q    Type
REMARK                         _______ _______ _______ _____ _____    ______ ____
ROOT
ATOM      1  N   UNL     1      -0.819  -5.047  -0.018  0.00  0.00    -0.292 NA
ATOM      2  C   UNL     1      -1.529  -4.808   1.246  0.00  0.00    +0.100 C 
ATOM      3  C   UNL     1      -2.911  -5.464   1.184  0.00  0.00    +0.100 C 
ATOM      4  N   UNL     1      -2.755  -6.904   0.936  0.00  0.00    -0.292 NA
ATOM      5  C   UNL     1      -2.045  -7.144  -0.328  0.00  0.00    +0.100 C 
ATOM      6  C   UNL     1      -0.664  -6.487  -0.267  0.00  0.00    +0.100 C 
ENDROOT
BRANCH   1   7
ATOM      7  C   UNL     1       0.483  -4.368  -0.028  0.00  0.00    +0.181 C 
BRANCH   7  14
ATOM      8  C   UNL     1      -0.016   1.316   0.009  0.00  0.00    +0.120 A 
ATOM      9  C   UNL     1       1.183   1.948   0.001  0.00  0.00    +0.068 A 
ATOM     10  S   UNL     1       2.296   0.552  -0.017  0.00  0.00    -0.061 S 
ATOM     11  C   UNL     1       1.137  -0.669  -0.012  0.00  0.00    +0.164 A 
ATOM     12  N   UNL     1       0.002  -0.004   0.002  0.00  0.00    -0.233 NA
ATOM     13  N   UNL     1       1.333  -2.045  -0.022  0.00  0.00    -0.264 N 
ATOM     14  C   UNL     1       0.272  -2.876  -0.017  0.00  0.00    +0.233 C 
ATOM     15  O   UNL     1      -0.854  -2.423  -0.003  0.00  0.00    -0.274 OA
ATOM     16  H   UNL     1       2.232  -2.407  -0.034  0.00  0.00    +0.157 HD
ENDBRANCH   7  14
ENDBRANCH   1   7
BRANCH   4  17
ATOM     17  C   UNL     1      -4.058  -7.583   0.945  0.00  0.00    +0.181 C 
BRANCH  17  18
ATOM     18  C   UNL     1      -3.846  -9.075   0.934  0.00  0.00    +0.233 C 
ATOM     19  O   UNL     1      -2.721  -9.528   0.920  0.00  0.00    -0.274 OA
ATOM     20  N   UNL     1      -4.907  -9.907   0.940  0.00  0.00    -0.264 N 
ATOM     21  C   UNL     1      -4.712 -11.283   0.929  0.00  0.00    +0.164 A 
ATOM     22  N   UNL     1      -3.576 -11.947   0.920  0.00  0.00    -0.233 NA
ATOM     23  C   UNL     1      -3.558 -13.267   0.912  0.00  0.00    +0.120 A 
ATOM     24  C   UNL     1      -4.758 -13.900   0.914  0.00  0.00    +0.068 A 
ATOM     25  S   UNL     1      -5.870 -12.504   0.934  0.00  0.00    -0.061 S 
ATOM     26  H   UNL     1      -5.807  -9.544   0.951  0.00  0.00    +0.157 HD
ENDBRANCH  17  18
ENDBRANCH   4  17
TORSDOF 4
