REMARK  Name = ZINC64740131
REMARK  7 active torsions:
REMARK  status: ('A' for Active; 'I' for Inactive)
REMARK    1  A    between atoms: C_1  and  C_2
REMARK    2  A    between atoms: C_2  and  C_3
REMARK    3  A    between atoms: C_3  and  S_4
REMARK    4  A    between atoms: S_4  and  C_5
REMARK    5  A    between atoms: C_11  and  C_19
REMARK    6  A    between atoms: N_21  and  C_22
REMARK    7  A    between atoms: C_27  and  C_28
REMARK                            x       y       z     vdW  Elec       q    Type
REMARK                         _______ _______ _______ _____ _____    ______ ____
ROOT
ATOM      1  C   UNL     1      -3.114  -2.798   0.015  0.00  0.00    +0.182 C 
ATOM      2  N   UNL     1      -4.007  -1.824   0.017  0.00  0.00    -0.154 NA
ATOM      3  C   UNL     1      -5.319  -2.063  -0.039  0.00  0.00    +0.249 C 
ATOM      4  O   UNL     1      -6.134  -1.162  -0.011  0.00  0.00    -0.273 OA
ATOM      5  C   UNL     1      -5.742  -3.514  -0.140  0.00  0.00    +0.153 C 
ATOM      6  C   UNL     1      -6.713  -3.811   1.004  0.00  0.00    +0.103 C 
ATOM      7  C   UNL     1      -7.279  -5.220   0.812  0.00  0.00    +0.110 C 
ATOM      8  C   UNL     1      -6.180  -6.210   0.552  0.00  0.00    +0.219 C 
ATOM      9  O   UNL     1      -6.410  -7.388   0.724  0.00  0.00    -0.275 OA
ATOM     10  N   UNL     1      -4.955  -5.849   0.138  0.00  0.00    -0.273 N 
ATOM     11  C   UNL     1      -4.627  -4.538  -0.026  0.00  0.00    +0.117 C 
ATOM     12  N   UNL     1      -3.400  -4.106   0.018  0.00  0.00    -0.212 NA
ATOM     13  H   UNL     1      -4.295  -6.532  -0.061  0.00  0.00    +0.156 HD
ENDROOT
BRANCH   6  14
ATOM     14  C   UNL     1      -5.984  -3.730   2.320  0.00  0.00    +0.222 C 
ATOM     15  O   UNL     1      -4.801  -3.461   2.343  0.00  0.00    -0.275 OA
ATOM     16  N   UNL     1      -6.645  -3.956   3.473  0.00  0.00    -0.285 N 
ATOM     17  H   UNL     1      -7.606  -4.092   3.462  0.00  0.00    +0.155 HD
BRANCH  16  18
ATOM     18  C   UNL     1      -5.947  -3.995   4.685  0.00  0.00    +0.036 A 
ATOM     19  C   UNL     1      -4.596  -4.317   4.699  0.00  0.00    +0.024 A 
ATOM     20  C   UNL     1      -3.909  -4.354   5.896  0.00  0.00    +0.017 A 
ATOM     21  C   UNL     1      -4.566  -4.072   7.081  0.00  0.00    +0.018 A 
ATOM     22  C   UNL     1      -5.911  -3.751   7.070  0.00  0.00    +0.020 A 
ATOM     23  C   UNL     1      -6.602  -3.706   5.874  0.00  0.00    -0.028 A 
ATOM     24  C   UNL     1      -8.066  -3.350   5.862  0.00  0.00    +0.046 C 
ATOM     25 BR   UNL     1      -3.622  -4.125   8.719  0.00  0.00    -0.050 Br
ENDBRANCH  16  18
ENDBRANCH   6  14
BRANCH   1  26
ATOM     26  S   UNL     1      -1.412  -2.340   0.001  0.00  0.00    -0.089 S 
BRANCH  26  27
ATOM     27  C   UNL     1      -1.447  -0.526   0.000  0.00  0.00    +0.077 C 
BRANCH  27  29
ATOM     28  C   UNL     1      -0.043   1.541  -0.012  0.00  0.00    +0.004 C 
ATOM     29  C   UNL     1      -0.014   0.011  -0.011  0.00  0.00    +0.008 C 
ENDBRANCH  27  29
ENDBRANCH  26  27
ENDBRANCH   1  26
TORSDOF 5
