REMARK  Name = ZINC02356132
REMARK  10 active torsions:
REMARK  status: ('A' for Active; 'I' for Inactive)
REMARK    1  A    between atoms: C_1  and  C_2
REMARK    2  A    between atoms: C_5  and  C_8
REMARK    3  A    between atoms: C_8  and  N_9
REMARK    4  A    between atoms: C_13  and  C_14
REMARK    5  A    between atoms: C_15  and  N_26
REMARK    6  A    between atoms: C_18  and  C_25
REMARK    7  A    between atoms: N_26  and  C_27
REMARK    8  A    between atoms: C_27  and  C_28
REMARK    9  A    between atoms: C_28  and  C_29
REMARK   10  A    between atoms: C_29  and  N_30
REMARK                            x       y       z     vdW  Elec       q    Type
REMARK                         _______ _______ _______ _____ _____    ______ ____
ROOT
ATOM      1  C   UNL     1       5.526  -6.185  -1.860  0.00  0.00    +0.081 A 
ATOM      2  C   UNL     1       6.480  -6.476  -2.864  0.00  0.00    +0.134 A 
ATOM      3  N   UNL     1       7.668  -6.950  -2.518  0.00  0.00    -0.214 NA
ATOM      4  C   UNL     1       7.992  -7.162  -1.242  0.00  0.00    +0.145 A 
ATOM      5  C   UNL     1       9.269  -7.666  -0.935  0.00  0.00    -0.007 A 
ATOM      6  C   UNL     1       9.610  -7.886   0.366  0.00  0.00    +0.008 A 
ATOM      7  C   UNL     1       8.684  -7.606   1.381  0.00  0.00    +0.019 A 
ATOM      8  C   UNL     1       7.461  -7.122   1.067  0.00  0.00    +0.096 A 
ATOM      9  N   UNL     1       7.111  -6.898  -0.231  0.00  0.00    -0.267 N 
ATOM     10  C   UNL     1       5.883  -6.408  -0.509  0.00  0.00    +0.267 A 
ATOM     11  O   UNL     1       5.095  -6.167   0.388  0.00  0.00    -0.267 OA
ATOM     12  C   UNL     1      10.253  -7.962  -2.038  0.00  0.00    +0.047 C 
ENDROOT
BRANCH   1  17
ATOM     13  N   UNL     1       1.597  -6.858  -4.434  0.00  0.00    -0.251 N 
ATOM     14  C   UNL     1       2.189  -6.004  -3.617  0.00  0.00    +0.259 C 
ATOM     15  O   UNL     1       1.674  -4.932  -3.351  0.00  0.00    -0.269 OA
ATOM     16  C   UNL     1       3.446  -6.371  -3.057  0.00  0.00    +0.077 C 
ATOM     17  C   UNL     1       4.250  -5.678  -2.199  0.00  0.00    +0.037 C 
ATOM     18  S   UNL     1       3.684  -7.987  -3.783  0.00  0.00    -0.061 S 
ATOM     19  C   UNL     1       2.167  -8.050  -4.724  0.00  0.00    +0.121 C 
ATOM     20  S   UNL     1       1.583  -9.299  -5.738  0.00  0.00    -0.027 S 
BRANCH  13  21
ATOM     21  C   UNL     1       0.304  -6.512  -5.027  0.00  0.00    +0.150 C 
BRANCH  21  26
ATOM     22  C   UNL     1      -3.955  -8.314  -1.562  0.00  0.00    +0.044 C 
ATOM     23  C   UNL     1      -2.844  -7.844  -2.466  0.00  0.00    -0.050 A 
ATOM     24  C   UNL     1      -2.314  -6.577  -2.308  0.00  0.00    +0.003 A 
ATOM     25  C   UNL     1      -1.296  -6.146  -3.137  0.00  0.00    +0.005 A 
ATOM     26  C   UNL     1      -0.806  -6.982  -4.123  0.00  0.00    -0.030 A 
ATOM     27  C   UNL     1      -1.335  -8.250  -4.280  0.00  0.00    +0.005 A 
ATOM     28  C   UNL     1      -2.351  -8.682  -3.448  0.00  0.00    +0.003 A 
ENDBRANCH  21  26
ENDBRANCH  13  21
ENDBRANCH   1  17
BRANCH   2  29
ATOM     29  N   UNL     1       6.176  -6.269  -4.191  0.00  0.00    -0.328 N 
ATOM     30  H   UNL     1       5.305  -5.922  -4.441  0.00  0.00    +0.147 HD
BRANCH  29  31
ATOM     31  C   UNL     1       7.167  -6.572  -5.226  0.00  0.00    +0.104 C 
BRANCH  31  32
ATOM     32  C   UNL     1       6.581  -6.255  -6.603  0.00  0.00    +0.040 C 
BRANCH  32  33
ATOM     33  C   UNL     1       7.616  -6.572  -7.684  0.00  0.00    +0.124 C 
BRANCH  33  34
ATOM     34  N   UNL     1       7.055  -6.268  -9.003  0.00  0.00    -0.338 N 
ATOM     35  C   UNL     1       6.349  -7.126  -9.802  0.00  0.00    +0.104 A 
ATOM     36  C   UNL     1       6.024  -6.442 -10.916  0.00  0.00    +0.101 A 
ATOM     37  N   UNL     1       6.517  -5.200 -10.799  0.00  0.00    -0.352 N 
ATOM     38  C   UNL     1       7.131  -5.087  -9.653  0.00  0.00    +0.173 A 
ATOM     39  H   UNL     1       6.427  -4.496 -11.460  0.00  0.00    +0.166 HD
ENDBRANCH  33  34
ENDBRANCH  32  33
ENDBRANCH  31  32
ENDBRANCH  29  31
ENDBRANCH   2  29
TORSDOF 8
