REMARK  Name = ZINC35862279
REMARK  8 active torsions:
REMARK  status: ('A' for Active; 'I' for Inactive)
REMARK    1  A    between atoms: C_4  and  C_7
REMARK    2  A    between atoms: C_11  and  O_25
REMARK    3  A    between atoms: C_18  and  C_20
REMARK    4  A    between atoms: O_25  and  C_26
REMARK    5  A    between atoms: C_26  and  C_27
REMARK    6  A    between atoms: C_29  and  C_32
REMARK    7  A    between atoms: N_34  and  C_35
REMARK    8  A    between atoms: C_35  and  C_36
REMARK                            x       y       z     vdW  Elec       q    Type
REMARK                         _______ _______ _______ _____ _____    ______ ____
ROOT
ATOM      1  C   UNL     1       3.687  -0.730  -0.063  0.00  0.00    +0.137 C 
ATOM      2  C   UNL     1       3.947  -1.314  -1.429  0.00  0.00    -0.016 A 
ATOM      3  C   UNL     1       3.757  -0.491  -2.530  0.00  0.00    +0.051 A 
ATOM      4  C   UNL     1       3.990  -0.966  -3.810  0.00  0.00    +0.122 A 
ATOM      5  C   UNL     1       4.417  -2.275  -3.988  0.00  0.00    +0.046 A 
ATOM      6  C   UNL     1       4.600  -3.090  -2.892  0.00  0.00    +0.007 A 
ATOM      7  C   UNL     1       4.361  -2.615  -1.607  0.00  0.00    -0.040 A 
ATOM      8  C   UNL     1       4.557  -3.574  -0.463  0.00  0.00    +0.054 C 
ATOM      9  C   UNL     1       4.731  -2.820   0.855  0.00  0.00    +0.113 C 
ATOM     10  N   UNL     1       3.671  -1.803   0.937  0.00  0.00    -0.290 N 
ATOM     11  C   UNL     1       2.723  -1.854   1.894  0.00  0.00    +0.219 C 
ATOM     12  O   UNL     1       1.829  -1.035   1.907  0.00  0.00    -0.275 OA
ENDROOT
BRANCH   1  16
ATOM     13  C   UNL     1      -0.090   1.267  -0.069  0.00  0.00    +0.000 A 
ATOM     14  C   UNL     1       1.052   1.948   0.313  0.00  0.00    +0.000 A 
ATOM     15  C   UNL     1       2.273   1.301   0.315  0.00  0.00    +0.006 A 
ATOM     16  C   UNL     1       2.354  -0.025  -0.064  0.00  0.00    -0.023 A 
ATOM     17  C   UNL     1       1.213  -0.706  -0.445  0.00  0.00    +0.006 A 
ATOM     18  C   UNL     1      -0.009  -0.060  -0.448  0.00  0.00    +0.000 A 
ENDBRANCH   1  16
BRANCH  11  19
ATOM     19  C   UNL     1       2.775  -2.930   2.948  0.00  0.00    +0.075 C 
ATOM     20  C   UNL     1       2.629  -4.319   2.293  0.00  0.00    +0.013 C 
ATOM     21  C   UNL     1       1.779  -5.128   3.304  0.00  0.00    +0.001 C 
ATOM     22  C   UNL     1       0.767  -4.075   3.820  0.00  0.00    +0.001 C 
ATOM     23  C   UNL     1       1.591  -2.775   3.919  0.00  0.00    +0.013 C 
ENDBRANCH  11  19
BRANCH   4  24
ATOM     24  O   UNL     1       3.801  -0.157  -4.885  0.00  0.00    -0.483 OA
BRANCH  24  25
ATOM     25  C   UNL     1       4.061  -0.717  -6.173  0.00  0.00    +0.324 C 
BRANCH  25  26
ATOM     26  C   UNL     1       3.799   0.320  -7.234  0.00  0.00    +0.234 A 
ATOM     27  N   UNL     1       4.678   1.155  -7.704  0.00  0.00    -0.206 NA
ATOM     28  C   UNL     1       4.075   1.932  -8.644  0.00  0.00    +0.164 A 
ATOM     29  C   UNL     1       2.778   1.528  -8.725  0.00  0.00    +0.230 A 
ATOM     30  O   UNL     1       2.625   0.523  -7.848  0.00  0.00    -0.444 OA
BRANCH  28  31
ATOM     31  C   UNL     1       4.707   3.009  -9.427  0.00  0.00    +0.266 C 
ATOM     32  O   UNL     1       4.054   3.633 -10.241  0.00  0.00    -0.268 OA
ATOM     33  N   UNL     1       6.010   3.302  -9.240  0.00  0.00    -0.308 N 
ATOM     34  H   UNL     1       6.530   2.804  -8.591  0.00  0.00    +0.149 HD
BRANCH  33  35
ATOM     35  C   UNL     1       6.638   4.373 -10.018  0.00  0.00    +0.136 C 
BRANCH  35  36
ATOM     36  C   UNL     1       8.109   4.499  -9.616  0.00  0.00    +0.135 C 
ATOM     37  C   UNL     1       8.785   5.650 -10.402  0.00  0.00    +0.035 C 
ATOM     38  C   UNL     1       9.949   6.019  -9.443  0.00  0.00    +0.031 C 
ATOM     39  C   UNL     1       9.322   5.770  -8.055  0.00  0.00    +0.160 C 
ATOM     40  O   UNL     1       8.217   4.873  -8.233  0.00  0.00    -0.375 OA
ENDBRANCH  35  36
ENDBRANCH  33  35
ENDBRANCH  28  31
ENDBRANCH  25  26
ENDBRANCH  24  25
ENDBRANCH   4  24
TORSDOF 8
