REMARK  Name = ZINC33628107
REMARK  12 active torsions:
REMARK  status: ('A' for Active; 'I' for Inactive)
REMARK    1  A    between atoms: C_1  and  C_2
REMARK    2  A    between atoms: C_2  and  C_4
REMARK    3  A    between atoms: C_2  and  O_41
REMARK    4  A    between atoms: C_4  and  C_38
REMARK    5  A    between atoms: C_9  and  C_12
REMARK    6  A    between atoms: C_16  and  O_18
REMARK    7  A    between atoms: O_18  and  C_19
REMARK    8  A    between atoms: C_23  and  C_25
REMARK    9  A    between atoms: N_31  and  C_34
REMARK   10  A    between atoms: C_34  and  C_35
REMARK   11  A    between atoms: C_34  and  C_36
REMARK   12  A    between atoms: C_34  and  C_37
REMARK                            x       y       z     vdW  Elec       q    Type
REMARK                         _______ _______ _______ _____ _____    ______ ____
ROOT
ATOM      1  C   UNL     1       3.251  -3.424  -0.372  0.00  0.00    +0.074 C 
ATOM      2  C   UNL     1       2.994  -2.626  -1.656  0.00  0.00    +0.088 C 
ATOM      3  C   UNL     1       1.415  -2.659  -1.562  0.00  0.00    +0.077 C 
ATOM      4  C   UNL     1       1.163  -2.217  -0.181  0.00  0.00    -0.026 C 
ATOM      5  N   UNL     1       2.308  -2.786   0.604  0.00  0.00    +0.397 N 
ATOM      6  C   UNL     1       1.056  -2.289  -2.914  0.00  0.00    +0.225 C 
ATOM      7  O   UNL     1       0.123  -1.604  -3.273  0.00  0.00    -0.275 OA
ATOM      8  N   UNL     1       2.001  -2.887  -3.702  0.00  0.00    -0.236 N 
ATOM      9  C   UNL     1       3.081  -3.322  -2.987  0.00  0.00    +0.225 C 
ATOM     10  O   UNL     1       3.931  -4.106  -3.349  0.00  0.00    -0.275 OA
ATOM     11  H   UNL     1       1.947  -3.545   1.314  0.00  0.00    -0.083 HD
ATOM     12  H   UNL     1       2.831  -1.989   1.153  0.00  0.00    -0.083 HD
ENDROOT
BRANCH   4  13
ATOM     13  C   UNL     1       1.165  -0.712  -0.100  0.00  0.00    -0.057 A 
ATOM     14  C   UNL     1       2.364  -0.025  -0.051  0.00  0.00    +0.002 A 
ATOM     15  C   UNL     1       2.370   1.356   0.023  0.00  0.00    +0.004 A 
ATOM     16  C   UNL     1       1.177   2.052   0.049  0.00  0.00    +0.046 A 
ATOM     17  C   UNL     1      -0.027   1.365  -0.000  0.00  0.00    +0.129 A 
ATOM     18  C   UNL     1      -0.030  -0.021  -0.075  0.00  0.00    +0.048 A 
BRANCH  17  19
ATOM     19  O   UNL     1      -1.202   2.048   0.019  0.00  0.00    -0.456 OA
BRANCH  19  20
ATOM     20  C   UNL     1      -2.001   1.912   1.109  0.00  0.00    +0.129 A 
ATOM     21  C   UNL     1      -1.558   1.193   2.211  0.00  0.00    +0.046 A 
ATOM     22  C   UNL     1      -2.370   1.061   3.320  0.00  0.00    +0.004 A 
ATOM     23  C   UNL     1      -3.628   1.635   3.329  0.00  0.00    +0.012 A 
ATOM     24  C   UNL     1      -4.075   2.346   2.231  0.00  0.00    +0.058 A 
ATOM     25  C   UNL     1      -3.264   2.486   1.121  0.00  0.00    +0.058 A 
BRANCH  24  26
ATOM     26  C   UNL     1      -5.447   2.969   2.245  0.00  0.00    +0.418 C 
ATOM     27  F   UNL     1      -6.379   2.056   1.739  0.00  0.00    -0.166 F 
ATOM     28  F   UNL     1      -5.792   3.309   3.557  0.00  0.00    -0.166 F 
ATOM     29  F   UNL     1      -5.444   4.121   1.450  0.00  0.00    -0.166 F 
ENDBRANCH  24  26
ENDBRANCH  19  20
ENDBRANCH  17  19
ENDBRANCH   4  13
BRANCH   8  30
ATOM     30  C   UNL     1       1.878  -3.032  -5.155  0.00  0.00    +0.036 C 
ATOM     31  C   UNL     1       1.928  -4.515  -5.526  0.00  0.00    +0.031 C 
ATOM     32  C   UNL     1       0.547  -2.435  -5.616  0.00  0.00    +0.031 C 
ATOM     33  C   UNL     1       3.031  -2.296  -5.840  0.00  0.00    +0.031 C 
ENDBRANCH   8  30
BRANCH   1  34
ATOM     34  C   UNL     1       2.912  -4.879  -0.570  0.00  0.00    +0.349 C 
ATOM     35  O   UNL     1       2.940  -5.360  -1.678  0.00  0.00    -0.248 OA
ATOM     36  O   UNL     1       2.579  -5.640   0.484  0.00  0.00    -0.248 OA
ENDBRANCH   1  34
BRANCH   1  38
ATOM     37  C   UNL     1       4.925  -4.071   1.366  0.00  0.00    +0.037 C 
ATOM     38  C   UNL     1       4.702  -3.264   0.085  0.00  0.00    +0.112 C 
BRANCH  38  39
ATOM     39  O   UNL     1       4.972  -1.884   0.338  0.00  0.00    -0.393 OA
ATOM     40  H   UNL     1       4.866  -1.145  -0.470  0.00  0.00    +0.210 HD
ENDBRANCH  38  39
ENDBRANCH   1  38
TORSDOF 8
