REMARK  Name = ZINC59176762
REMARK  11 active torsions:
REMARK  status: ('A' for Active; 'I' for Inactive)
REMARK    1  A    between atoms: C_1  and  C_2
REMARK    2  A    between atoms: C_7  and  C_8
REMARK    3  A    between atoms: N_10  and  C_11
REMARK    4  A    between atoms: C_11  and  C_12
REMARK    5  A    between atoms: C_12  and  C_13
REMARK    6  A    between atoms: C_16  and  S_19
REMARK    7  A    between atoms: N_17  and  C_18
REMARK    8  A    between atoms: S_19  and  C_20
REMARK    9  A    between atoms: C_20  and  C_21
REMARK   10  A    between atoms: N_23  and  C_24
REMARK   11  A    between atoms: C_25  and  C_33
REMARK                            x       y       z     vdW  Elec       q    Type
REMARK                         _______ _______ _______ _____ _____    ______ ____
ROOT
ATOM      1  C   UNL     1       0.945  -0.186   7.333  0.00  0.00    +0.135 A 
ATOM      2  N   UNL     1       2.039   0.294   7.854  0.00  0.00    -0.133 NA
ATOM      3  N   UNL     1       1.779   0.869   8.973  0.00  0.00    -0.123 NA
ATOM      4  C   UNL     1       0.494   0.786   9.230  0.00  0.00    +0.192 A 
ATOM      5  N   UNL     1      -0.079   0.115   8.188  0.00  0.00    -0.309 N 
ATOM      6  C   UNL     1      -1.496  -0.218   8.023  0.00  0.00    +0.152 C 
ENDROOT
BRANCH   1   7
ATOM      7  C   UNL     1       0.829  -0.930   6.028  0.00  0.00    +0.095 C 
BRANCH   7   8
ATOM      8  C   UNL     1       0.578   0.067   4.894  0.00  0.00    +0.112 C 
BRANCH   8  11
ATOM      9  C   UNL     1       0.242   0.021   2.481  0.00  0.00    +0.244 C 
ATOM     10  O   UNL     1       0.135   1.232   2.503  0.00  0.00    -0.270 OA
ATOM     11  N   UNL     1       0.465  -0.656   3.625  0.00  0.00    -0.311 N 
ATOM     12  H   UNL     1       0.551  -1.622   3.607  0.00  0.00    +0.149 HD
BRANCH   9  19
ATOM     13  C   UNL     1      -0.511   1.452   0.082  0.00  0.00    +0.044 C 
ATOM     14  C   UNL     1      -0.234  -0.028   0.036  0.00  0.00    -0.038 A 
ATOM     15  C   UNL     1      -0.334  -0.714  -1.157  0.00  0.00    +0.004 A 
ATOM     16  C   UNL     1      -0.080  -2.073  -1.200  0.00  0.00    +0.000 A 
ATOM     17  C   UNL     1       0.275  -2.754  -0.049  0.00  0.00    +0.001 A 
ATOM     18  C   UNL     1       0.378  -2.080   1.150  0.00  0.00    +0.013 A 
ATOM     19  C   UNL     1       0.128  -0.708   1.200  0.00  0.00    +0.040 A 
ENDBRANCH   9  19
ENDBRANCH   8  11
ENDBRANCH   7   8
ENDBRANCH   1   7
BRANCH   4  20
ATOM     20  S   UNL     1      -0.335   1.427  10.647  0.00  0.00    -0.077 S 
BRANCH  20  21
ATOM     21  C   UNL     1       0.989   2.198  11.618  0.00  0.00    +0.173 C 
BRANCH  21  22
ATOM     22  C   UNL     1       0.408   2.793  12.875  0.00  0.00    +0.228 C 
ATOM     23  O   UNL     1      -0.781   2.706  13.094  0.00  0.00    -0.275 OA
ATOM     24  N   UNL     1       1.211   3.423  13.756  0.00  0.00    -0.278 N 
ATOM     25  H   UNL     1       2.163   3.493  13.581  0.00  0.00    +0.155 HD
BRANCH  24  26
ATOM     26  C   UNL     1       0.676   3.971  14.913  0.00  0.00    +0.090 A 
ATOM     27  C   UNL     1       1.341   4.652  15.919  0.00  0.00    +0.084 A 
ATOM     28  C   UNL     1       0.547   5.131  17.036  0.00  0.00    -0.018 A 
ATOM     29  C   UNL     1      -0.770   4.841  16.942  0.00  0.00    -0.004 A 
ATOM     30  S   UNL     1      -0.927   3.967  15.412  0.00  0.00    -0.077 S 
ATOM     31  C   UNL     1      -1.841   5.194  17.926  0.00  0.00    +0.043 C 
ATOM     32  C   UNL     1      -1.168   5.607  19.244  0.00  0.00    +0.005 C 
ATOM     33  C   UNL     1      -0.051   6.608  18.936  0.00  0.00    +0.005 C 
ATOM     34  C   UNL     1       1.104   5.898  18.226  0.00  0.00    +0.037 C 
BRANCH  27  35
ATOM     35  C   UNL     1       2.755   4.875  15.860  0.00  0.00    +0.102 C 
ATOM     36  N   UNL     1       3.876   5.051  15.814  0.00  0.00    -0.191 NA
ENDBRANCH  27  35
ENDBRANCH  24  26
ENDBRANCH  21  22
ENDBRANCH  20  21
ENDBRANCH   4  20
TORSDOF 9
