REMARK  Name = ZINC13041512
REMARK  5 active torsions:
REMARK  status: ('A' for Active; 'I' for Inactive)
REMARK    1  A    between atoms: C_1  and  C_2
REMARK    2  A    between atoms: C_5  and  N_8
REMARK    3  A    between atoms: C_12  and  N_16
REMARK    4  A    between atoms: C_19  and  C_20
REMARK    5  A    between atoms: C_23  and  C_24
REMARK                            x       y       z     vdW  Elec       q    Type
REMARK                         _______ _______ _______ _____ _____    ______ ____
ROOT
ATOM      1  N   UNL     1       0.529   0.608   0.595  0.00  0.00    -0.306 N 
ATOM      2  C   UNL     1       0.940   1.956   1.021  0.00  0.00    +0.128 C 
ATOM      3  C   UNL     1      -0.398   2.661   1.318  0.00  0.00    +0.132 C 
ATOM      4  C   UNL     1      -0.844   0.540   0.637  0.00  0.00    +0.082 C 
ATOM      5  N   UNL     1      -1.419   1.642   1.029  0.00  0.00    -0.374 N 
ATOM      6  H   UNL     1      -2.432   1.779   1.122  0.00  0.00    +0.161 HD
ENDROOT
BRANCH   1  11
ATOM      7  N   UNL     1       3.644  -0.590   0.897  0.00  0.00    -0.209 N 
ATOM      8  C   UNL     1       3.741  -0.142  -0.361  0.00  0.00    +0.228 C 
ATOM      9  O   UNL     1       4.775   0.122  -0.935  0.00  0.00    -0.275 OA
ATOM     10  C   UNL     1       2.354  -0.017  -0.953  0.00  0.00    +0.128 C 
ATOM     11  C   UNL     1       1.429  -0.476   0.193  0.00  0.00    +0.170 C 
ATOM     12  C   UNL     1       2.391  -0.812   1.312  0.00  0.00    +0.247 C 
ATOM     13  O   UNL     1       2.077  -1.217   2.411  0.00  0.00    -0.273 OA
BRANCH   7  18
ATOM     14  C   UNL     1       8.176  -1.481   4.197  0.00  0.00    +0.044 C 
ATOM     15  C   UNL     1       6.973  -1.244   3.320  0.00  0.00    -0.050 A 
ATOM     16  C   UNL     1       6.080  -0.236   3.632  0.00  0.00    +0.005 A 
ATOM     17  C   UNL     1       4.976  -0.017   2.831  0.00  0.00    +0.024 A 
ATOM     18  C   UNL     1       4.764  -0.810   1.712  0.00  0.00    +0.044 A 
ATOM     19  C   UNL     1       5.659  -1.825   1.404  0.00  0.00    +0.024 A 
ATOM     20  C   UNL     1       6.764  -2.036   2.206  0.00  0.00    +0.005 A 
ENDBRANCH   7  18
ENDBRANCH   1  11
BRANCH   4  21
ATOM     21  C   UNL     1      -1.572  -0.625   0.286  0.00  0.00    +0.121 C 
ATOM     22  C   UNL     1      -2.400  -0.729  -0.779  0.00  0.00    +0.169 C 
ATOM     23  C   UNL     1      -2.998  -2.057  -0.871  0.00  0.00    -0.004 C 
ATOM     24  C   UNL     1      -3.861  -2.476  -1.820  0.00  0.00    +0.015 C 
ATOM     25  C   UNL     1      -2.481  -2.877   0.290  0.00  0.00    +0.040 C 
ATOM     26  C   UNL     1      -1.541  -1.925   1.049  0.00  0.00    +0.023 C 
ATOM     27  O   UNL     1      -2.643   0.276  -1.654  0.00  0.00    -0.292 OA
BRANCH  24  28
ATOM     28  C   UNL     1      -4.122  -1.636  -2.999  0.00  0.00    -0.025 A 
ATOM     29  C   UNL     1      -5.420  -1.524  -3.508  0.00  0.00    +0.009 A 
ATOM     30  C   UNL     1      -5.659  -0.732  -4.611  0.00  0.00    +0.020 A 
ATOM     31  C   UNL     1      -4.615  -0.055  -5.221  0.00  0.00    +0.041 A 
ATOM     32  C   UNL     1      -3.326  -0.165  -4.725  0.00  0.00    +0.020 A 
ATOM     33  C   UNL     1      -3.073  -0.950  -3.620  0.00  0.00    +0.009 A 
ATOM     34 CL   UNL     1      -4.924   0.935  -6.612  0.00  0.00    -0.084 Cl
ENDBRANCH  24  28
ENDBRANCH   4  21
TORSDOF 4
