REMARK  Name = ZINC59680721
REMARK  6 active torsions:
REMARK  status: ('A' for Active; 'I' for Inactive)
REMARK    1  A    between atoms: C_1  and  C_2
REMARK    2  A    between atoms: C_5  and  N_8
REMARK    3  A    between atoms: C_9  and  C_19
REMARK    4  A    between atoms: N_12  and  C_18
REMARK    5  A    between atoms: C_13  and  C_15
REMARK    6  A    between atoms: C_15  and  C_17
REMARK                            x       y       z     vdW  Elec       q    Type
REMARK                         _______ _______ _______ _____ _____    ______ ____
ROOT
ATOM      1  N   UNL     1       0.086  -4.165   0.153  0.00  0.00    -0.200 N 
ATOM      2  C   UNL     1       0.348  -4.969   1.358  0.00  0.00    +0.212 C 
ATOM      3  N   UNL     1       1.256  -6.068   0.977  0.00  0.00    -0.213 NA
ATOM      4  N   UNL     1       0.707  -6.787  -0.052  0.00  0.00    -0.248 N 
ATOM      5  C   UNL     1       0.153  -6.113  -1.150  0.00  0.00    +0.195 C 
ATOM      6  N   UNL     1      -0.160  -4.843  -1.055  0.00  0.00    -0.158 NA
ATOM      7  C   UNL     1       0.698  -8.251  -0.005  0.00  0.00    +0.151 C 
ATOM      8  H   UNL     1       2.166  -5.713   0.725  0.00  0.00    +0.147 HD
ENDROOT
BRANCH   1  13
ATOM      9  C   UNL     1       0.045   1.499   0.380  0.00  0.00    +0.044 C 
ATOM     10  C   UNL     1       0.057  -0.007   0.320  0.00  0.00    -0.050 A 
ATOM     11  C   UNL     1      -0.187  -0.651  -0.880  0.00  0.00    +0.005 A 
ATOM     12  C   UNL     1      -0.178  -2.030  -0.939  0.00  0.00    +0.025 A 
ATOM     13  C   UNL     1       0.077  -2.772   0.209  0.00  0.00    +0.054 A 
ATOM     14  C   UNL     1       0.322  -2.121   1.412  0.00  0.00    +0.025 A 
ATOM     15  C   UNL     1       0.316  -0.741   1.462  0.00  0.00    +0.005 A 
ENDBRANCH   1  13
BRANCH   2  16
ATOM     16  C   UNL     1      -0.946  -5.534   1.886  0.00  0.00    -0.009 A 
ATOM     17  C   UNL     1      -2.129  -4.847   1.692  0.00  0.00    +0.009 A 
ATOM     18  C   UNL     1      -3.316  -5.364   2.176  0.00  0.00    +0.039 A 
ATOM     19  C   UNL     1      -3.319  -6.571   2.854  0.00  0.00    +0.123 A 
ATOM     20  C   UNL     1      -2.133  -7.258   3.047  0.00  0.00    +0.039 A 
ATOM     21  C   UNL     1      -0.948  -6.742   2.558  0.00  0.00    +0.009 A 
ATOM     22  F   UNL     1      -4.479  -7.077   3.327  0.00  0.00    -0.205 F 
ENDBRANCH   2  16
BRANCH   5  23
ATOM     23  C   UNL     1      -0.075  -6.807  -2.362  0.00  0.00    +0.195 C 
ATOM     24  O   UNL     1       0.115  -8.005  -2.421  0.00  0.00    -0.289 OA
ATOM     25  C   UNL     1      -0.554  -6.059  -3.580  0.00  0.00    +0.095 C 
ENDBRANCH   5  23
TORSDOF 3
