REMARK  Name = ZINC51485794
REMARK  6 active torsions:
REMARK  status: ('A' for Active; 'I' for Inactive)
REMARK    1  A    between atoms: C_1  and  C_2
REMARK    2  A    between atoms: C_2  and  C_3
REMARK    3  A    between atoms: C_3  and  N_4
REMARK    4  A    between atoms: N_4  and  C_5
REMARK    5  A    between atoms: C_5  and  C_6
REMARK    6  A    between atoms: C_11  and  N_12
REMARK                            x       y       z     vdW  Elec       q    Type
REMARK                         _______ _______ _______ _____ _____    ______ ____
ROOT
ATOM      1  C   UNL     1       1.561  -3.941  -2.438  0.00  0.00    -0.023 A 
ATOM      2  C   UNL     1       2.713  -4.529  -1.948  0.00  0.00    +0.022 A 
ATOM      3  C   UNL     1       2.783  -5.915  -1.904  0.00  0.00    +0.036 A 
ATOM      4  C   UNL     1       1.707  -6.661  -2.347  0.00  0.00    +0.128 A 
ATOM      5  N   UNL     1       0.621  -6.072  -2.810  0.00  0.00    -0.239 NA
ATOM      6  C   UNL     1       0.515  -4.753  -2.862  0.00  0.00    +0.123 A 
ATOM      7 BR   UNL     1       4.333  -6.774  -1.245  0.00  0.00    -0.049 Br
ENDROOT
BRANCH   6   8
ATOM      8  N   UNL     1      -0.652  -4.175  -3.350  0.00  0.00    -0.307 N 
ATOM      9  C   UNL     1      -1.718  -3.763  -2.425  0.00  0.00    +0.135 C 
ATOM     10  C   UNL     1      -2.103  -2.319  -2.777  0.00  0.00    +0.179 C 
ATOM     11  O   UNL     1      -2.453  -2.267  -4.160  0.00  0.00    -0.373 OA
ATOM     12  C   UNL     1      -1.395  -2.565  -5.072  0.00  0.00    +0.139 C 
ATOM     13  C   UNL     1      -0.824  -3.966  -4.784  0.00  0.00    +0.104 C 
ATOM     14  C   UNL     1      -1.867  -4.936  -5.360  0.00  0.00    +0.025 C 
ATOM     15  C   UNL     1      -2.640  -4.152  -6.437  0.00  0.00    +0.004 C 
ATOM     16  C   UNL     1      -2.032  -2.746  -6.476  0.00  0.00    +0.033 C 
ENDBRANCH   6   8
BRANCH   1  17
ATOM     17  C   UNL     1       1.439  -2.440  -2.505  0.00  0.00    -0.043 C 
BRANCH  17  18
ATOM     18  N   UNL     1       0.729  -1.953  -1.314  0.00  0.00    +0.382 N 
ATOM     19  H   UNL     1       1.201  -2.280  -0.484  0.00  0.00    -0.085 HD
ATOM     20  H   UNL     1      -0.218  -2.300  -1.322  0.00  0.00    -0.085 HD
BRANCH  18  21
ATOM     21  C   UNL     1       0.713  -0.484  -1.321  0.00  0.00    -0.082 C 
BRANCH  21  23
ATOM     22  C   UNL     1      -0.043   1.554  -0.089  0.00  0.00    +0.002 C 
ATOM     23  C   UNL     1      -0.026   0.024  -0.082  0.00  0.00    -0.022 C 
ENDBRANCH  21  23
ENDBRANCH  18  21
ENDBRANCH  17  18
ENDBRANCH   1  17
TORSDOF 5
