REMARK  Name = ZINC39716318
REMARK  13 active torsions:
REMARK  status: ('A' for Active; 'I' for Inactive)
REMARK    1  A    between atoms: C_1  and  C_2
REMARK    2  A    between atoms: C_2  and  C_3
REMARK    3  A    between atoms: C_3  and  C_4
REMARK    4  A    between atoms: C_4  and  C_5
REMARK    5  A    between atoms: C_5  and  C_7
REMARK    6  A    between atoms: C_5  and  C_9
REMARK    7  A    between atoms: C_7  and  C_8
REMARK    8  A    between atoms: C_9  and  N_10
REMARK    9  A    between atoms: C_14  and  C_15
REMARK   10  A    between atoms: C_16  and  N_27
REMARK   11  A    between atoms: C_21  and  C_26
REMARK   12  A    between atoms: C_29  and  C_36
REMARK   13  A    between atoms: C_32  and  C_35
REMARK                            x       y       z     vdW  Elec       q    Type
REMARK                         _______ _______ _______ _____ _____    ______ ____
ROOT
ATOM      1  C   UNL     1       6.167  -4.986   3.897  0.00  0.00    +0.081 A 
ATOM      2  C   UNL     1       7.516  -5.413   3.882  0.00  0.00    +0.136 A 
ATOM      3  N   UNL     1       8.240  -5.252   2.784  0.00  0.00    -0.214 NA
ATOM      4  C   UNL     1       7.730  -4.694   1.685  0.00  0.00    +0.142 A 
ATOM      5  C   UNL     1       8.547  -4.550   0.549  0.00  0.00    +0.047 A 
ATOM      6  C   UNL     1       8.034  -3.981  -0.580  0.00  0.00    +0.008 A 
ATOM      7  C   UNL     1       6.701  -3.549  -0.592  0.00  0.00    -0.034 A 
ATOM      8  C   UNL     1       5.931  -3.696   0.509  0.00  0.00    +0.099 A 
ATOM      9  N   UNL     1       6.433  -4.264   1.642  0.00  0.00    -0.267 N 
ATOM     10  C   UNL     1       5.635  -4.401   2.723  0.00  0.00    +0.267 A 
ATOM     11  O   UNL     1       4.476  -4.023   2.689  0.00  0.00    -0.267 OA
ATOM     12  C   UNL     1       6.126  -2.920  -1.834  0.00  0.00    +0.045 C 
ENDROOT
BRANCH   1  17
ATOM     13  N   UNL     1       2.800  -7.625   4.239  0.00  0.00    -0.255 N 
ATOM     14  C   UNL     1       3.883  -6.900   4.019  0.00  0.00    +0.258 C 
ATOM     15  O   UNL     1       4.505  -7.004   2.977  0.00  0.00    -0.269 OA
ATOM     16  C   UNL     1       4.301  -5.994   5.035  0.00  0.00    +0.077 C 
ATOM     17  C   UNL     1       5.370  -5.144   5.054  0.00  0.00    +0.037 C 
ATOM     18  S   UNL     1       3.047  -6.271   6.278  0.00  0.00    -0.061 S 
ATOM     19  C   UNL     1       2.106  -7.505   5.393  0.00  0.00    +0.121 C 
ATOM     20  S   UNL     1       0.687  -8.328   5.883  0.00  0.00    -0.027 S 
BRANCH  13  21
ATOM     21  C   UNL     1       2.341  -8.567   3.216  0.00  0.00    +0.118 C 
BRANCH  21  22
ATOM     22  C   UNL     1       1.373  -7.858   2.266  0.00  0.00    +0.007 C 
BRANCH  22  23
ATOM     23  C   UNL     1       2.120  -6.763   1.503  0.00  0.00    +0.002 C 
ATOM     24  C   UNL     1       1.131  -5.983   0.633  0.00  0.00    +0.004 C 
ENDBRANCH  22  23
BRANCH  22  25
ATOM     25  C   UNL     1       0.799  -8.871   1.274  0.00  0.00    +0.005 C 
BRANCH  25  26
ATOM     26  C   UNL     1      -0.054  -9.895   2.026  0.00  0.00    +0.000 C 
BRANCH  26  28
ATOM     27  C   UNL     1      -1.587 -11.852   1.774  0.00  0.00    +0.004 C 
ATOM     28  C   UNL     1      -0.734 -10.828   1.022  0.00  0.00    -0.003 C 
ENDBRANCH  26  28
ENDBRANCH  25  26
ENDBRANCH  22  25
ENDBRANCH  21  22
ENDBRANCH  13  21
ENDBRANCH   1  17
BRANCH   2  29
ATOM     29  N   UNL     1       8.073  -5.991   5.001  0.00  0.00    -0.310 N 
ATOM     30  C   UNL     1       7.299  -6.924   5.836  0.00  0.00    +0.138 C 
ATOM     31  C   UNL     1       8.134  -8.192   6.046  0.00  0.00    +0.133 C 
ATOM     32  O   UNL     1       9.428  -7.828   6.533  0.00  0.00    -0.371 OA
ATOM     33  C   UNL     1      10.189  -7.024   5.628  0.00  0.00    +0.133 C 
ATOM     34  C   UNL     1       9.461  -5.700   5.393  0.00  0.00    +0.138 C 
ATOM     35  C   UNL     1      11.571  -6.751   6.225  0.00  0.00    +0.039 C 
ATOM     36  C   UNL     1       8.278  -8.935   4.717  0.00  0.00    +0.039 C 
ENDBRANCH   2  29
TORSDOF 8
