REMARK  Name = ZINC25144950
REMARK  6 active torsions:
REMARK  status: ('A' for Active; 'I' for Inactive)
REMARK    1  A    between atoms: C_3  and  C_21
REMARK    2  A    between atoms: C_5  and  N_7
REMARK    3  A    between atoms: N_7  and  S_8
REMARK    4  A    between atoms: S_8  and  C_11
REMARK    5  A    between atoms: N_23  and  C_24
REMARK    6  A    between atoms: C_29  and  C_32
REMARK                            x       y       z     vdW  Elec       q    Type
REMARK                         _______ _______ _______ _____ _____    ______ ____
ROOT
ATOM      1  C   UNL     1      -5.789   1.965   2.783  0.00  0.00    +0.003 A 
ATOM      2  C   UNL     1      -5.270   2.042   4.060  0.00  0.00    +0.013 A 
ATOM      3  C   UNL     1      -4.425   1.036   4.531  0.00  0.00    +0.038 A 
ATOM      4  C   UNL     1      -4.114  -0.048   3.711  0.00  0.00    +0.037 A 
ATOM      5  C   UNL     1      -4.636  -0.114   2.428  0.00  0.00    +0.049 A 
ATOM      6  C   UNL     1      -5.476   0.894   1.968  0.00  0.00    +0.024 A 
ENDROOT
BRANCH   3   7
ATOM      7  C   UNL     1      -3.867   1.116   5.898  0.00  0.00    +0.244 C 
ATOM      8  O   UNL     1      -3.132   0.239   6.307  0.00  0.00    -0.270 OA
ATOM      9  N   UNL     1      -4.174   2.162   6.691  0.00  0.00    -0.308 N 
ATOM     10  H   UNL     1      -4.840   2.955   6.321  0.00  0.00    +0.149 HD
BRANCH   9  11
ATOM     11  C   UNL     1      -3.621   2.241   8.046  0.00  0.00    +0.074 C 
ATOM     12  C   UNL     1      -4.506   1.442   9.005  0.00  0.00    +0.022 C 
ATOM     13  C   UNL     1      -5.921   2.023   8.997  0.00  0.00    +0.002 C 
ATOM     14  C   UNL     1      -5.875   3.485   9.444  0.00  0.00    +0.012 C 
ATOM     15  C   UNL     1      -4.990   4.284   8.485  0.00  0.00    +0.095 C 
ATOM     16  C   UNL     1      -3.575   3.704   8.493  0.00  0.00    +0.034 C 
BRANCH  15  17
ATOM     17  C   UNL     1      -4.944   5.747   8.932  0.00  0.00    +0.393 C 
ATOM     18  F   UNL     1      -4.136   6.477   8.055  0.00  0.00    -0.170 F 
ATOM     19  F   UNL     1      -6.239   6.278   8.925  0.00  0.00    -0.170 F 
ATOM     20  F   UNL     1      -4.416   5.822  10.225  0.00  0.00    -0.170 F 
ENDBRANCH  15  17
ENDBRANCH   9  11
ENDBRANCH   3   7
BRANCH   5  21
ATOM     21  N   UNL     1      -4.323  -1.195   1.601  0.00  0.00    -0.216 N 
ATOM     22  H   UNL     1      -4.350  -2.219   2.000  0.00  0.00    +0.174 HD
BRANCH  21  23
ATOM     23  S   UNL     1      -3.911  -0.933   0.018  0.00  0.00    +0.072 S 
ATOM     24  O   UNL     1      -4.900  -0.067  -0.521  0.00  0.00    -0.150 OA
ATOM     25  O   UNL     1      -3.627  -2.208  -0.543  0.00  0.00    -0.150 OA
BRANCH  23  26
ATOM     26  C   UNL     1      -2.397  -0.033   0.016  0.00  0.00    +0.112 A 
ATOM     27  C   UNL     1      -2.415   1.349   0.026  0.00  0.00    +0.032 A 
ATOM     28  C   UNL     1      -1.229   2.059   0.019  0.00  0.00    +0.051 A 
ATOM     29  C   UNL     1      -0.017   1.385   0.010  0.00  0.00    +0.162 A 
ATOM     30  C   UNL     1       0.002  -0.004   0.002  0.00  0.00    +0.164 A 
ATOM     31  C   UNL     1      -1.192  -0.710   0.004  0.00  0.00    +0.078 A 
ATOM     32  O   UNL     1       1.181  -0.685  -0.007  0.00  0.00    -0.485 OA
ATOM     33  C   UNL     1       2.347   0.053  -0.387  0.00  0.00    +0.270 C 
ATOM     34  C   UNL     1       2.334   1.392   0.364  0.00  0.00    +0.270 C 
ATOM     35  O   UNL     1       1.143   2.098   0.002  0.00  0.00    -0.485 OA
ENDBRANCH  23  26
ENDBRANCH  21  23
ENDBRANCH   5  21
TORSDOF 6
