REMARK  Name = ZINC06030003
REMARK  6 active torsions:
REMARK  status: ('A' for Active; 'I' for Inactive)
REMARK    1  A    between atoms: C_1  and  C_2
REMARK    2  A    between atoms: C_5  and  N_8
REMARK    3  A    between atoms: C_9  and  C_11
REMARK    4  A    between atoms: C_11  and  N_12
REMARK    5  A    between atoms: C_16  and  C_17
REMARK    6  A    between atoms: C_20  and  N_22
REMARK                            x       y       z     vdW  Elec       q    Type
REMARK                         _______ _______ _______ _____ _____    ______ ____
ROOT
ATOM      1  N   UNL     1      -0.352  -7.563  -2.352  0.00  0.00    -0.219 N 
ATOM      2  C   UNL     1      -1.525  -7.541  -2.961  0.00  0.00    +0.261 C 
ATOM      3  O   UNL     1      -2.564  -7.405  -2.342  0.00  0.00    -0.269 OA
ATOM      4  C   UNL     1      -1.512  -7.684  -4.427  0.00  0.00    +0.083 C 
ATOM      5  C   UNL     1      -2.553  -7.695  -5.308  0.00  0.00    +0.066 C 
ATOM      6  S   UNL     1       0.241  -7.847  -4.733  0.00  0.00    -0.026 S 
ATOM      7  C   UNL     1       0.797  -7.719  -3.041  0.00  0.00    +0.286 C 
ATOM      8  O   UNL     1       1.935  -7.761  -2.614  0.00  0.00    -0.262 OA
ENDROOT
BRANCH   5   9
ATOM      9  C   UNL     1      -3.856  -7.369  -4.866  0.00  0.00    +0.132 A 
ATOM     10  C   UNL     1      -5.015  -7.465  -5.611  0.00  0.00    +0.052 A 
ATOM     11  C   UNL     1      -6.061  -7.042  -4.776  0.00  0.00    +0.076 A 
ATOM     12  C   UNL     1      -5.514  -6.705  -3.587  0.00  0.00    +0.280 A 
ATOM     13  O   UNL     1      -4.189  -6.903  -3.644  0.00  0.00    -0.435 OA
BRANCH  12  14
ATOM     14  N   UNL     1      -6.258  -6.199  -2.410  0.00  0.00    +0.093 N 
ATOM     15  O   UNL     1      -7.466  -6.057  -2.469  0.00  0.00    -0.123 OA
ATOM     16  O   UNL     1      -5.662  -5.925  -1.384  0.00  0.00    -0.123 OA
ENDBRANCH  12  14
ENDBRANCH   5   9
BRANCH   1  17
ATOM     17  C   UNL     1      -0.299  -7.421  -0.894  0.00  0.00    +0.213 C 
BRANCH  17  19
ATOM     18  N   UNL     1      -0.110  -5.589   0.757  0.00  0.00    -0.284 N 
ATOM     19  C   UNL     1      -0.175  -5.962  -0.536  0.00  0.00    +0.235 C 
ATOM     20  O   UNL     1      -0.135  -5.124  -1.412  0.00  0.00    -0.274 OA
ATOM     21  H   UNL     1      -0.062  -6.262   1.454  0.00  0.00    +0.155 HD
BRANCH  18  26
ATOM     22  C   UNL     1      -0.110  -0.083   2.124  0.00  0.00    +0.044 C 
ATOM     23  C   UNL     1      -0.110  -1.546   1.761  0.00  0.00    -0.050 A 
ATOM     24  C   UNL     1       0.631  -2.442   2.509  0.00  0.00    +0.005 A 
ATOM     25  C   UNL     1       0.629  -3.784   2.182  0.00  0.00    +0.023 A 
ATOM     26  C   UNL     1      -0.110  -4.231   1.095  0.00  0.00    +0.033 A 
ATOM     27  C   UNL     1      -0.849  -3.327   0.342  0.00  0.00    +0.023 A 
ATOM     28  C   UNL     1      -0.847  -1.988   0.678  0.00  0.00    +0.005 A 
ENDBRANCH  18  26
ENDBRANCH  17  19
ENDBRANCH   1  17
TORSDOF 5
