REMARK  Name = ZINC11913854
REMARK  8 active torsions:
REMARK  status: ('A' for Active; 'I' for Inactive)
REMARK    1  A    between atoms: C_1  and  C_2
REMARK    2  A    between atoms: C_2  and  O_3
REMARK    3  A    between atoms: O_3  and  C_4
REMARK    4  A    between atoms: C_8  and  C_10
REMARK    5  A    between atoms: C_10  and  C_12
REMARK    6  A    between atoms: C_13  and  O_34
REMARK    7  A    between atoms: N_16  and  C_26
REMARK    8  A    between atoms: C_17  and  C_19
REMARK                            x       y       z     vdW  Elec       q    Type
REMARK                         _______ _______ _______ _____ _____    ______ ____
ROOT
ATOM      1  C   UNL     1      -1.542   2.198   0.325  0.00  0.00    +0.071 C 
ATOM      2  C   UNL     1      -2.088   3.436   0.365  0.00  0.00    +0.188 C 
ATOM      3  C   UNL     1      -3.555   3.315   0.505  0.00  0.00    +0.283 C 
ATOM      4  O   UNL     1      -4.329   4.249   0.566  0.00  0.00    -0.267 OA
ATOM      5  N   UNL     1      -3.905   2.017   0.560  0.00  0.00    -0.279 N 
ATOM      6  C   UNL     1      -2.682   1.214   0.452  0.00  0.00    +0.145 C 
ENDROOT
BRANCH   6   7
ATOM      7  C   UNL     1      -2.503   0.372   1.689  0.00  0.00    -0.022 A 
ATOM      8  C   UNL     1      -2.734   0.920   2.937  0.00  0.00    +0.007 A 
ATOM      9  C   UNL     1      -2.576   0.147   4.072  0.00  0.00    +0.015 A 
ATOM     10  C   UNL     1      -2.175  -1.172   3.959  0.00  0.00    +0.018 A 
ATOM     11  C   UNL     1      -1.939  -1.719   2.711  0.00  0.00    +0.015 A 
ATOM     12  C   UNL     1      -2.103  -0.946   1.576  0.00  0.00    +0.007 A 
ATOM     13 BR   UNL     1      -1.951  -2.228   5.512  0.00  0.00    -0.050 Br
ENDBRANCH   6   7
BRANCH   5  14
ATOM     14  C   UNL     1      -5.268   1.497   0.702  0.00  0.00    +0.100 C 
ATOM     15  C   UNL     1      -5.884   2.008   2.015  0.00  0.00    +0.047 C 
ATOM     16  C   UNL     1      -7.408   1.737   2.023  0.00  0.00    +0.168 C 
ATOM     17  S   UNL     1      -7.832   1.760   0.234  0.00  0.00    -0.029 S 
ATOM     18  O   UNL     1      -8.312   0.477  -0.144  0.00  0.00    -0.174 OA
ATOM     19  O   UNL     1      -8.620   2.910  -0.040  0.00  0.00    -0.174 OA
ATOM     20  C   UNL     1      -6.149   2.004  -0.475  0.00  0.00    +0.188 C 
ENDBRANCH   5  14
BRANCH   1  21
ATOM     21  C   UNL     1      -0.119   1.874   0.189  0.00  0.00    +0.195 C 
ATOM     22  O   UNL     1       0.662   2.183   1.070  0.00  0.00    -0.287 OA
BRANCH  21  27
ATOM     23  C   UNL     1       2.152   0.120  -2.240  0.00  0.00    +0.121 A 
ATOM     24  C   UNL     1       1.279  -0.126  -3.292  0.00  0.00    +0.045 A 
ATOM     25  C   UNL     1      -0.041   0.277  -3.211  0.00  0.00    +0.004 A 
ATOM     26  C   UNL     1      -0.502   0.921  -2.081  0.00  0.00    +0.012 A 
ATOM     27  C   UNL     1       0.370   1.178  -1.020  0.00  0.00    +0.026 A 
ATOM     28  C   UNL     1       1.702   0.771  -1.105  0.00  0.00    +0.057 A 
BRANCH  23  29
ATOM     29  O   UNL     1       3.449  -0.278  -2.326  0.00  0.00    -0.492 OA
BRANCH  29  31
ATOM     30  C   UNL     1       5.327  -1.314  -3.440  0.00  0.00    +0.048 C 
ATOM     31  C   UNL     1       3.845  -0.944  -3.527  0.00  0.00    +0.225 C 
ENDBRANCH  29  31
ENDBRANCH  23  29
ENDBRANCH  21  27
ENDBRANCH   1  21
BRANCH   2  32
ATOM     32  O   UNL     1      -1.401   4.599   0.286  0.00  0.00    -0.502 OA
ATOM     33  H   UNL     1      -2.039   5.367   0.340  0.00  0.00    +0.292 HD
ENDBRANCH   2  32
TORSDOF 7
