REMARK  Name = ZINC39834593
REMARK  8 active torsions:
REMARK  status: ('A' for Active; 'I' for Inactive)
REMARK    1  A    between atoms: C_1  and  O_2
REMARK    2  A    between atoms: O_2  and  C_3
REMARK    3  A    between atoms: C_6  and  N_9
REMARK    4  A    between atoms: N_11  and  C_31
REMARK    5  A    between atoms: C_12  and  C_15
REMARK    6  A    between atoms: C_18  and  S_21
REMARK    7  A    between atoms: S_21  and  N_24
REMARK    8  A    between atoms: C_31  and  C_32
REMARK                            x       y       z     vdW  Elec       q    Type
REMARK                         _______ _______ _______ _____ _____    ______ ____
ROOT
ATOM      1  N   UNL     1      -4.782  -2.487  -0.221  0.00  0.00    -0.295 N 
ATOM      2  C   UNL     1      -4.905  -3.865  -0.134  0.00  0.00    +0.144 A 
ATOM      3  N   UNL     1      -5.862  -4.585   0.423  0.00  0.00    -0.315 N 
ATOM      4  C   UNL     1      -5.817  -5.915   0.413  0.00  0.00    +0.058 A 
ATOM      5  C   UNL     1      -4.762  -6.544  -0.185  0.00  0.00    +0.074 A 
ATOM      6  S   UNL     1      -3.815  -5.138  -0.755  0.00  0.00    -0.062 S 
ATOM      7  H   UNL     1      -5.392  -1.914   0.269  0.00  0.00    +0.154 HD
ENDROOT
BRANCH   1  11
ATOM      8  C   UNL     1      -1.790  -0.806  -2.588  0.00  0.00    +0.120 A 
ATOM      9  C   UNL     1      -2.441  -1.957  -3.007  0.00  0.00    +0.047 A 
ATOM     10  C   UNL     1      -3.432  -2.515  -2.223  0.00  0.00    +0.027 A 
ATOM     11  C   UNL     1      -3.777  -1.923  -1.016  0.00  0.00    +0.033 A 
ATOM     12  C   UNL     1      -3.125  -0.770  -0.597  0.00  0.00    +0.027 A 
ATOM     13  C   UNL     1      -2.131  -0.217  -1.379  0.00  0.00    +0.047 A 
BRANCH   8  15
ATOM     14  C   UNL     1      -0.515  -0.916  -4.592  0.00  0.00    +0.277 C 
ATOM     15  O   UNL     1      -0.815  -0.257  -3.360  0.00  0.00    -0.495 OA
ENDBRANCH   8  15
ENDBRANCH   1  11
BRANCH   4  16
ATOM     16  C   UNL     1      -6.900  -6.706   1.045  0.00  0.00    -0.001 A 
ATOM     17  C   UNL     1      -8.216  -6.246   1.008  0.00  0.00    +0.012 A 
ATOM     18  C   UNL     1      -9.220  -6.986   1.598  0.00  0.00    +0.029 A 
ATOM     19  C   UNL     1      -8.923  -8.182   2.226  0.00  0.00    +0.106 A 
ATOM     20  C   UNL     1      -7.620  -8.643   2.267  0.00  0.00    +0.029 A 
ATOM     21  C   UNL     1      -6.608  -7.915   1.675  0.00  0.00    +0.012 A 
BRANCH  19  22
ATOM     22  S   UNL     1     -10.210  -9.122   2.977  0.00  0.00    +0.061 S 
ATOM     23  O   UNL     1      -9.596  -9.930   3.971  0.00  0.00    -0.153 OA
ATOM     24  O   UNL     1     -11.257  -8.209   3.277  0.00  0.00    -0.153 OA
BRANCH  22  25
ATOM     25  N   UNL     1     -10.799 -10.155   1.825  0.00  0.00    -0.177 NA
ATOM     26  C   UNL     1     -11.888  -9.708   0.985  0.00  0.00    +0.109 C 
ATOM     27  C   UNL     1     -13.239 -10.060   1.655  0.00  0.00    +0.017 C 
ATOM     28  C   UNL     1     -13.471 -11.511   1.607  0.00  0.00    +0.001 C 
ATOM     29  C   UNL     1     -12.443 -12.338   2.374  0.00  0.00    +0.001 C 
ATOM     30  C   UNL     1     -11.247 -12.594   1.490  0.00  0.00    +0.017 C 
ATOM     31  C   UNL     1     -10.187 -11.492   1.693  0.00  0.00    +0.109 C 
ENDBRANCH  22  25
ENDBRANCH  19  22
ENDBRANCH   4  16
BRANCH   3  32
ATOM     32  C   UNL     1      -6.991  -3.907   1.064  0.00  0.00    +0.198 C 
BRANCH  32  33
ATOM     33  C   UNL     1      -7.723  -3.075   0.043  0.00  0.00    +0.124 A 
ATOM     34  C   UNL     1      -8.821  -3.452  -0.638  0.00  0.00    +0.046 A 
ATOM     35  C   UNL     1      -9.169  -2.373  -1.482  0.00  0.00    +0.041 A 
ATOM     36  C   UNL     1      -8.264  -1.401  -1.267  0.00  0.00    +0.195 A 
ATOM     37  O   UNL     1      -7.394  -1.830  -0.338  0.00  0.00    -0.466 OA
ENDBRANCH  32  33
ENDBRANCH   3  32
TORSDOF 7
