REMARK  Name = ZINC38821390
REMARK  7 active torsions:
REMARK  status: ('A' for Active; 'I' for Inactive)
REMARK    1  A    between atoms: C_1  and  C_2
REMARK    2  A    between atoms: C_2  and  C_38
REMARK    3  A    between atoms: C_6  and  C_26
REMARK    4  A    between atoms: C_12  and  S_16
REMARK    5  A    between atoms: S_16  and  C_17
REMARK    6  A    between atoms: C_17  and  C_18
REMARK    7  A    between atoms: C_31  and  N_32
REMARK                            x       y       z     vdW  Elec       q    Type
REMARK                         _______ _______ _______ _____ _____    ______ ____
ROOT
ATOM      1  C   UNL     1      -0.367   0.705   0.315  0.00  0.00    +0.011 C 
ATOM      2  C   UNL     1      -0.061  -0.778   0.092  0.00  0.00    -0.023 C 
ATOM      3  C   UNL     1       0.730  -0.951  -1.206  0.00  0.00    +0.058 C 
ATOM      4  C   UNL     1       2.041  -0.208  -1.107  0.00  0.00    +0.017 C 
ATOM      5  C   UNL     1       2.660  -0.048   0.079  0.00  0.00    +0.021 C 
ATOM      6  C   UNL     1       3.964   0.705   0.210  0.00  0.00    +0.075 C 
ATOM      7  C   UNL     1       4.695   0.738  -1.133  0.00  0.00    +0.152 C 
ATOM      8  C   UNL     1       3.679   1.091  -2.194  0.00  0.00    +0.115 C 
ATOM      9  N   UNL     1       3.829   2.115  -2.977  0.00  0.00    -0.213 NA
ATOM     10  C   UNL     1       4.877   2.943  -2.876  0.00  0.00    +0.182 C 
ATOM     11  N   UNL     1       5.817   2.775  -1.957  0.00  0.00    -0.154 NA
ATOM     12  C   UNL     1       5.794   1.759  -1.099  0.00  0.00    +0.250 C 
ATOM     13  O   UNL     1       6.676   1.655  -0.269  0.00  0.00    -0.273 OA
ATOM     14  N   UNL     1       2.579   0.282  -2.276  0.00  0.00    -0.305 N 
ATOM     15  C   UNL     1       2.105  -0.581   1.261  0.00  0.00    +0.162 C 
ATOM     16  O   UNL     1       2.702  -0.447   2.310  0.00  0.00    -0.292 OA
ATOM     17  C   UNL     1       0.791  -1.310   1.249  0.00  0.00    +0.086 C 
ATOM     18  C   UNL     1      -1.369  -1.567   0.009  0.00  0.00    +0.011 C 
ATOM     19  H   UNL     1       2.189   0.059  -3.136  0.00  0.00    +0.153 HD
ENDROOT
BRANCH   6  20
ATOM     20  C   UNL     1       4.834   0.020   1.232  0.00  0.00    -0.009 A 
ATOM     21  C   UNL     1       4.879  -1.361   1.288  0.00  0.00    +0.006 A 
ATOM     22  C   UNL     1       5.678  -1.989   2.224  0.00  0.00    +0.000 A 
ATOM     23  C   UNL     1       6.432  -1.237   3.106  0.00  0.00    +0.002 A 
ATOM     24  C   UNL     1       6.388   0.143   3.049  0.00  0.00    +0.033 A 
ATOM     25  C   UNL     1       5.593   0.772   2.109  0.00  0.00    +0.130 A 
BRANCH  25  26
ATOM     26  N   UNL     1       5.550   2.250   2.046  0.00  0.00    +0.057 N 
ATOM     27  O   UNL     1       6.174   2.908   2.845  0.00  0.00    -0.126 OA
ATOM     28  O   UNL     1       4.890   2.799   1.194  0.00  0.00    -0.126 OA
ENDBRANCH  25  26
ENDBRANCH   6  20
BRANCH  10  29
ATOM     29  S   UNL     1       5.009   4.296  -3.997  0.00  0.00    -0.084 S 
BRANCH  29  30
ATOM     30  C   UNL     1       6.543   5.128  -3.502  0.00  0.00    +0.113 C 
BRANCH  30  31
ATOM     31  C   UNL     1       6.779   6.320  -4.394  0.00  0.00    -0.019 A 
ATOM     32  C   UNL     1       7.500   6.176  -5.564  0.00  0.00    +0.006 A 
ATOM     33  C   UNL     1       7.716   7.269  -6.382  0.00  0.00    +0.000 A 
ATOM     34  C   UNL     1       7.211   8.507  -6.030  0.00  0.00    +0.001 A 
ATOM     35  C   UNL     1       6.489   8.652  -4.860  0.00  0.00    +0.020 A 
ATOM     36  C   UNL     1       6.268   7.557  -4.044  0.00  0.00    +0.045 A 
ATOM     37 CL   UNL     1       5.356   7.737  -2.578  0.00  0.00    -0.083 Cl
ENDBRANCH  30  31
ENDBRANCH  29  30
ENDBRANCH  10  29
TORSDOF 5
