REMARK  Name = ZINC40735032
REMARK  6 active torsions:
REMARK  status: ('A' for Active; 'I' for Inactive)
REMARK    1  A    between atoms: C_1  and  C_2
REMARK    2  A    between atoms: C_13  and  N_30
REMARK    3  A    between atoms: C_14  and  N_18
REMARK    4  A    between atoms: C_20  and  C_29
REMARK    5  A    between atoms: C_25  and  C_27
REMARK    6  A    between atoms: C_25  and  C_28
REMARK                            x       y       z     vdW  Elec       q    Type
REMARK                         _______ _______ _______ _____ _____    ______ ____
ROOT
ATOM      1  C   UNL     1      -3.963   1.053   1.045  0.00  0.00    +0.046 C 
ATOM      2  C   UNL     1      -3.723  -0.434   0.996  0.00  0.00    -0.024 A 
ATOM      3  C   UNL     1      -4.205  -1.165  -0.059  0.00  0.00    +0.005 A 
ATOM      4  C   UNL     1      -4.006  -2.534  -0.143  0.00  0.00    +0.001 A 
ATOM      5  C   UNL     1      -3.305  -3.180   0.860  0.00  0.00    +0.017 A 
ATOM      6  C   UNL     1      -2.818  -2.457   1.920  0.00  0.00    +0.041 A 
ATOM      7  C   UNL     1      -2.997  -1.059   2.036  0.00  0.00    +0.083 A 
ATOM      8  N   UNL     1      -2.454  -0.489   3.134  0.00  0.00    -0.224 NA
ATOM      9  C   UNL     1      -1.797  -1.181   4.036  0.00  0.00    +0.165 A 
ATOM     10  S   UNL     1      -1.894  -2.844   3.387  0.00  0.00    -0.052 S 
ATOM     11  N   UNL     1      -1.194  -0.738   5.198  0.00  0.00    -0.277 N 
ATOM     12  C   UNL     1      -0.540  -1.642   6.030  0.00  0.00    +0.150 A 
ATOM     13  C   UNL     1       0.068  -1.207   7.209  0.00  0.00    +0.106 A 
ATOM     14  C   UNL     1       0.711  -2.155   8.008  0.00  0.00    +0.147 A 
ATOM     15  N   UNL     1       0.718  -3.428   7.618  0.00  0.00    -0.219 NA
ATOM     16  C   UNL     1       0.132  -3.796   6.497  0.00  0.00    +0.225 A 
ATOM     17  N   UNL     1      -0.490  -2.934   5.718  0.00  0.00    -0.219 NA
ATOM     18  H   UNL     1      -1.226   0.202   5.433  0.00  0.00    +0.156 HD
ENDROOT
BRANCH  14  19
ATOM     19  N   UNL     1       1.333  -1.776   9.192  0.00  0.00    -0.310 N 
ATOM     20  C   UNL     1       1.297  -0.433   9.791  0.00  0.00    +0.113 C 
ATOM     21  C   UNL     1       2.176  -0.499  11.062  0.00  0.00    -0.014 C 
ATOM     22  C   UNL     1       2.053  -1.992  11.470  0.00  0.00    +0.030 C 
ATOM     23  C   UNL     1       2.134  -2.651  10.071  0.00  0.00    +0.076 C 
ATOM     24  C   UNL     1       3.594  -2.601   9.630  0.00  0.00    +0.029 C 
ATOM     25  C   UNL     1       4.196  -1.208   9.645  0.00  0.00    -0.033 C 
ATOM     26  C   UNL     1       3.631  -0.247  10.672  0.00  0.00    +0.014 C 
ATOM     27  C   UNL     1       4.099  -0.590   8.242  0.00  0.00    +0.011 C 
ATOM     28  C   UNL     1       5.707  -1.367   9.948  0.00  0.00    +0.011 C 
ATOM     29  C   UNL     1       1.682   0.452  12.162  0.00  0.00    +0.013 C 
ENDBRANCH  14  19
BRANCH  13  30
ATOM     30  N   UNL     1       0.036   0.146   7.581  0.00  0.00    -0.353 N 
ATOM     31  H   UNL     1       0.080   0.837   6.901  0.00  0.00    +0.143 HD
ATOM     32  H   UNL     1      -0.031   0.390   8.517  0.00  0.00    +0.143 HD
ENDBRANCH  13  30
TORSDOF 2
