REMARK  Name = ZINC38845833
REMARK  9 active torsions:
REMARK  status: ('A' for Active; 'I' for Inactive)
REMARK    1  A    between atoms: C_1  and  N_2
REMARK    2  A    between atoms: N_2  and  C_3
REMARK    3  A    between atoms: N_2  and  C_4
REMARK    4  A    between atoms: C_4  and  C_5
REMARK    5  A    between atoms: C_5  and  N_6
REMARK    6  A    between atoms: C_15  and  S_16
REMARK    7  A    between atoms: S_16  and  C_19
REMARK    8  A    between atoms: C_20  and  C_22
REMARK    9  A    between atoms: C_23  and  C_24
REMARK                            x       y       z     vdW  Elec       q    Type
REMARK                         _______ _______ _______ _____ _____    ______ ____
ROOT
ATOM      1  N   UNL     1      -2.733  -2.544  -0.111  0.00  0.00    -0.249 N 
ATOM      2  C   UNL     1      -3.429  -2.679  -1.299  0.00  0.00    +0.168 A 
ATOM      3  N   UNL     1      -4.656  -3.105  -1.490  0.00  0.00    -0.222 NA
ATOM      4  C   UNL     1      -5.214  -3.186  -2.718  0.00  0.00    +0.105 A 
ATOM      5  C   UNL     1      -4.389  -2.780  -3.793  0.00  0.00    +0.043 A 
ATOM      6  S   UNL     1      -2.891  -2.310  -2.963  0.00  0.00    -0.052 S 
ATOM      7  C   UNL     1      -4.810  -2.803  -5.098  0.00  0.00    +0.017 A 
ATOM      8  C   UNL     1      -6.089  -3.238  -5.396  0.00  0.00    +0.003 A 
ATOM      9  C   UNL     1      -6.926  -3.644  -4.366  0.00  0.00    +0.029 A 
ATOM     10  C   UNL     1      -6.514  -3.623  -3.059  0.00  0.00    +0.114 A 
ATOM     11  C   UNL     1      -3.319  -2.879   1.055  0.00  0.00    +0.245 C 
ATOM     12  O   UNL     1      -4.461  -3.300   1.064  0.00  0.00    -0.270 OA
ENDROOT
BRANCH  10  13
ATOM     13  S   UNL     1      -7.617  -4.150  -1.790  0.00  0.00    -0.004 S 
ATOM     14  O   UNL     1      -7.601  -3.097  -0.836  0.00  0.00    -0.170 OA
ATOM     15  O   UNL     1      -8.817  -4.491  -2.471  0.00  0.00    -0.170 OA
ATOM     16  C   UNL     1      -6.850  -5.638  -1.093  0.00  0.00    +0.200 C 
ENDBRANCH  10  13
BRANCH  11  17
ATOM     17  C   UNL     1      -2.583  -2.736   2.310  0.00  0.00    +0.068 C 
ATOM     18  C   UNL     1      -3.170  -3.071   3.479  0.00  0.00    +0.013 C 
BRANCH  18  19
ATOM     19  C   UNL     1      -2.430  -2.928   4.741  0.00  0.00    -0.021 A 
ATOM     20  C   UNL     1      -1.119  -2.438   4.734  0.00  0.00    +0.012 A 
ATOM     21  C   UNL     1      -0.428  -2.304   5.918  0.00  0.00    +0.050 A 
ATOM     22  C   UNL     1      -1.028  -2.654   7.121  0.00  0.00    +0.166 A 
ATOM     23  C   UNL     1      -2.335  -3.143   7.136  0.00  0.00    +0.167 A 
ATOM     24  C   UNL     1      -3.036  -3.275   5.954  0.00  0.00    +0.057 A 
ATOM     25  O   UNL     1      -2.686  -3.409   8.428  0.00  0.00    -0.453 OA
ATOM     26  C   UNL     1      -1.446  -3.466   9.159  0.00  0.00    +0.466 C 
ATOM     27  O   UNL     1      -0.564  -2.614   8.403  0.00  0.00    -0.453 OA
ENDBRANCH  18  19
ENDBRANCH  11  17
BRANCH   1  28
ATOM     28  C   UNL     1      -1.358  -2.037  -0.122  0.00  0.00    +0.097 C 
BRANCH  28  29
ATOM     29  C   UNL     1      -1.376  -0.512   0.012  0.00  0.00    -0.060 C 
BRANCH  29  31
ATOM     30  C   UNL     1      -0.018   1.465   0.010  0.00  0.00    -0.097 C 
ATOM     31  N   UNL     1       0.002  -0.004   0.002  0.00  0.00    +0.377 N 
ATOM     32  C   UNL     1       0.713  -0.491   1.192  0.00  0.00    -0.097 C 
ATOM     33  H   UNL     1       0.474  -0.330  -0.828  0.00  0.00    -0.083 HD
ENDBRANCH  29  31
ENDBRANCH  28  29
ENDBRANCH   1  28
TORSDOF 6
