REMARK  Name = ZINC09647800
REMARK  5 active torsions:
REMARK  status: ('A' for Active; 'I' for Inactive)
REMARK    1  A    between atoms: N_13  and  C_17
REMARK    2  A    between atoms: C_17  and  C_18
REMARK    3  A    between atoms: N_20  and  C_21
REMARK    4  A    between atoms: C_21  and  C_23
REMARK    5  A    between atoms: C_21  and  C_30
REMARK                            x       y       z     vdW  Elec       q    Type
REMARK                         _______ _______ _______ _____ _____    ______ ____
ROOT
ATOM      1  C   UNL     1       1.900  -1.081  -3.143  0.00  0.00    +0.213 C 
ENDROOT
BRANCH   1  14
ATOM      2  C   UNL     1      -3.263  -1.463  -5.829  0.00  0.00    +0.001 A 
ATOM      3  C   UNL     1      -3.805  -1.942  -7.007  0.00  0.00    +0.004 A 
ATOM      4  C   UNL     1      -2.975  -2.381  -8.019  0.00  0.00    +0.046 A 
ATOM      5  C   UNL     1      -1.594  -2.344  -7.857  0.00  0.00    +0.126 A 
ATOM      6  C   UNL     1      -1.054  -1.859  -6.677  0.00  0.00    +0.027 A 
ATOM      7  C   UNL     1      -1.892  -1.422  -5.665  0.00  0.00    +0.010 A 
ATOM      8  C   UNL     1       0.434  -1.798  -6.473  0.00  0.00    +0.144 C 
ATOM      9  C   UNL     1       1.155  -2.684  -7.485  0.00  0.00    +0.081 C 
ATOM     10  C   UNL     1       0.568  -2.404  -8.875  0.00  0.00    +0.232 C 
ATOM     11  O   UNL     1      -0.808  -2.788  -8.871  0.00  0.00    -0.492 OA
ATOM     12  C   UNL     1       0.796  -2.210  -5.065  0.00  0.00    +0.252 C 
ATOM     13  O   UNL     1       0.595  -3.284  -4.540  0.00  0.00    -0.272 OA
ATOM     14  N   UNL     1       1.387  -1.129  -4.515  0.00  0.00    -0.215 N 
ATOM     15  C   UNL     1       1.453  -0.109  -5.379  0.00  0.00    +0.310 C 
ATOM     16  O   UNL     1       1.946   0.970  -5.115  0.00  0.00    -0.252 OA
ATOM     17  N   UNL     1       0.909  -0.412  -6.574  0.00  0.00    -0.281 N 
ATOM     18  H   UNL     1       0.845   0.169  -7.347  0.00  0.00    +0.152 HD
ENDBRANCH   1  14
BRANCH   1  19
ATOM     19  C   UNL     1       0.814  -0.598  -2.217  0.00  0.00    +0.232 C 
ATOM     20  O   UNL     1      -0.281  -0.322  -2.660  0.00  0.00    -0.274 OA
ATOM     21  N   UNL     1       1.058  -0.473  -0.898  0.00  0.00    -0.303 N 
ATOM     22  H   UNL     1       1.934  -0.694  -0.544  0.00  0.00    +0.150 HD
BRANCH  21  23
ATOM     23  C   UNL     1       0.002  -0.004   0.002  0.00  0.00    +0.140 C 
BRANCH  23  24
ATOM     24  C   UNL     1       0.268  -0.510   1.396  0.00  0.00    -0.022 A 
ATOM     25  C   UNL     1       1.560  -0.535   1.887  0.00  0.00    +0.008 A 
ATOM     26  C   UNL     1       1.805  -0.995   3.167  0.00  0.00    +0.038 A 
ATOM     27  C   UNL     1       0.757  -1.441   3.954  0.00  0.00    +0.123 A 
ATOM     28  C   UNL     1      -0.536  -1.420   3.460  0.00  0.00    +0.038 A 
ATOM     29  C   UNL     1      -0.779  -0.955   2.181  0.00  0.00    +0.008 A 
ATOM     30  F   UNL     1       0.996  -1.895   5.204  0.00  0.00    -0.205 F 
ENDBRANCH  23  24
BRANCH  23  31
ATOM     31  C   UNL     1      -0.018   1.503   0.010  0.00  0.00    +0.014 A 
ATOM     32  C   UNL     1      -1.083   2.342   0.019  0.00  0.00    +0.013 A 
ATOM     33  C   UNL     1      -0.861   3.706   0.029  0.00  0.00    +0.008 A 
ATOM     34  C   UNL     1       0.415   4.165   0.020  0.00  0.00    +0.045 A 
ATOM     35  S   UNL     1       1.353   2.646   0.003  0.00  0.00    -0.099 S 
ENDBRANCH  23  31
ENDBRANCH  21  23
ENDBRANCH   1  19
TORSDOF 5
