REMARK  Name = ZINC12400855
REMARK  9 active torsions:
REMARK  status: ('A' for Active; 'I' for Inactive)
REMARK    1  A    between atoms: C_1  and  C_2
REMARK    2  A    between atoms: C_2  and  O_3
REMARK    3  A    between atoms: O_3  and  C_4
REMARK    4  A    between atoms: C_4  and  C_6
REMARK    5  A    between atoms: C_7  and  C_32
REMARK    6  A    between atoms: C_11  and  C_15
REMARK    7  A    between atoms: C_15  and  S_16
REMARK    8  A    between atoms: S_16  and  C_17
REMARK    9  A    between atoms: N_29  and  C_30
REMARK                            x       y       z     vdW  Elec       q    Type
REMARK                         _______ _______ _______ _____ _____    ______ ____
ROOT
ATOM      1  C   UNL     1       4.292  12.118   1.654  0.00  0.00    +0.102 A 
ATOM      2  C   UNL     1       4.220  11.623   0.387  0.00  0.00    -0.017 A 
ATOM      3  C   UNL     1       3.888  10.278   0.183  0.00  0.00    +0.051 A 
ATOM      4  C   UNL     1       3.757   9.556  -1.042  0.00  0.00    +0.128 A 
ATOM      5  N   UNL     1       3.435   8.274  -1.003  0.00  0.00    -0.216 NA
ATOM      6  C   UNL     1       3.220   7.634   0.133  0.00  0.00    +0.143 A 
ATOM      7  N   UNL     1       3.326   8.245   1.298  0.00  0.00    -0.224 NA
ATOM      8  C   UNL     1       3.647   9.521   1.356  0.00  0.00    +0.115 A 
ATOM      9  S   UNL     1       3.891  10.699   2.659  0.00  0.00    -0.062 S 
ATOM     10  N   UNL     1       3.968  10.187  -2.251  0.00  0.00    -0.343 N 
ATOM     11  C   UNL     1       4.496  12.521  -0.791  0.00  0.00    +0.046 C 
ATOM     12  H   UNL     1       4.558  10.956  -2.300  0.00  0.00    +0.144 HD
ATOM     13  H   UNL     1       3.527   9.862  -3.051  0.00  0.00    +0.144 HD
ENDROOT
BRANCH   1  14
ATOM     14  C   UNL     1       4.619  13.481   2.086  0.00  0.00    +0.346 C 
ATOM     15  O   UNL     1       4.871  14.337   1.259  0.00  0.00    -0.244 OA
BRANCH  14  16
ATOM     16  O   UNL     1       4.641  13.786   3.399  0.00  0.00    -0.461 OA
BRANCH  16  18
ATOM     17  C   UNL     1       4.946  15.308   5.276  0.00  0.00    +0.048 C 
ATOM     18  C   UNL     1       4.972  15.154   3.753  0.00  0.00    +0.229 C 
ENDBRANCH  16  18
ENDBRANCH  14  16
ENDBRANCH   1  14
BRANCH   6  19
ATOM     19  C   UNL     1       2.852   6.173   0.097  0.00  0.00    +0.153 C 
BRANCH  19  20
ATOM     20  S   UNL     1       1.052   6.007   0.014  0.00  0.00    -0.080 S 
BRANCH  20  21
ATOM     21  C   UNL     1       0.908   4.251  -0.015  0.00  0.00    +0.173 A 
ATOM     22  N   UNL     1       1.997   3.510   0.025  0.00  0.00    -0.216 NA
ATOM     23  C   UNL     1       1.916   2.184   0.003  0.00  0.00    +0.117 A 
ATOM     24  C   UNL     1       0.686   1.513  -0.060  0.00  0.00    +0.076 A 
ATOM     25  C   UNL     1       0.753   0.042  -0.076  0.00  0.00    -0.023 A 
ATOM     26  C   UNL     1       1.976  -0.510  -0.031  0.00  0.00    -0.004 A 
ATOM     27  S   UNL     1       3.101   0.865   0.038  0.00  0.00    -0.073 S 
ATOM     28  C   UNL     1       1.921  -2.015  -0.056  0.00  0.00    +0.043 C 
ATOM     29  C   UNL     1       0.498  -2.342  -0.559  0.00  0.00    +0.010 C 
ATOM     30  C   UNL     1      -0.283  -1.084  -0.130  0.00  0.00    +0.037 C 
ATOM     31  C   UNL     1      -0.479   2.341  -0.108  0.00  0.00    +0.263 A 
ATOM     32  O   UNL     1      -1.590   1.843  -0.170  0.00  0.00    -0.267 OA
ATOM     33  N   UNL     1      -0.329   3.679  -0.078  0.00  0.00    -0.290 N 
ATOM     34  C   UNL     1      -1.517   4.536  -0.121  0.00  0.00    +0.154 C 
ENDBRANCH  20  21
ENDBRANCH  19  20
ENDBRANCH   6  19
TORSDOF 6
