REMARK  Name = ZINC40645237
REMARK  11 active torsions:
REMARK  status: ('A' for Active; 'I' for Inactive)
REMARK    1  A    between atoms: C_1  and  C_2
REMARK    2  A    between atoms: C_2  and  C_37
REMARK    3  A    between atoms: C_4  and  N_10
REMARK    4  A    between atoms: C_6  and  C_8
REMARK    5  A    between atoms: C_6  and  C_9
REMARK    6  A    between atoms: C_12  and  N_34
REMARK    7  A    between atoms: C_13  and  N_17
REMARK    8  A    between atoms: N_17  and  N_18
REMARK    9  A    between atoms: C_19  and  C_21
REMARK   10  A    between atoms: C_21  and  C_22
REMARK   11  A    between atoms: C_21  and  C_28
REMARK                            x       y       z     vdW  Elec       q    Type
REMARK                         _______ _______ _______ _____ _____    ______ ____
ROOT
ATOM      1  N   UNL     1       2.249  -2.001  -2.828  0.00  0.00    -0.324 N 
ATOM      2  C   UNL     1       2.057  -3.319  -3.213  0.00  0.00    +0.155 A 
ATOM      3  C   UNL     1       2.632  -3.803  -4.385  0.00  0.00    +0.206 A 
ATOM      4  C   UNL     1       2.410  -5.133  -4.727  0.00  0.00    +0.170 A 
ATOM      5  N   UNL     1       1.661  -5.890  -3.926  0.00  0.00    -0.217 NA
ATOM      6  C   UNL     1       1.134  -5.394  -2.825  0.00  0.00    +0.225 A 
ATOM      7  N   UNL     1       1.325  -4.142  -2.464  0.00  0.00    -0.218 NA
ATOM      8  H   UNL     1       2.784  -1.407  -3.379  0.00  0.00    +0.148 HD
ENDROOT
BRANCH   1  12
ATOM      9  C   UNL     1       0.945   2.103  -0.469  0.00  0.00    -0.010 C 
ATOM     10  C   UNL     1       0.857   0.561  -0.398  0.00  0.00    -0.072 C 
ATOM     11  C   UNL     1       1.456   0.011  -1.689  0.00  0.00    +0.009 C 
ATOM     12  C   UNL     1       1.643  -1.503  -1.587  0.00  0.00    +0.069 C 
ATOM     13  C   UNL     1       2.585  -1.789  -0.416  0.00  0.00    +0.009 C 
ATOM     14  C   UNL     1       1.994  -1.253   0.884  0.00  0.00    -0.072 C 
ATOM     15  N   UNL     1       1.568   0.132   0.794  0.00  0.00    +0.386 N 
ATOM     16  C   UNL     1       3.099  -1.337   1.962  0.00  0.00    -0.010 C 
ATOM     17  C   UNL     1       0.848  -2.160   1.344  0.00  0.00    -0.010 C 
ATOM     18  C   UNL     1      -0.629   0.198  -0.321  0.00  0.00    -0.010 C 
ATOM     19  H   UNL     1       2.393   0.729   0.906  0.00  0.00    -0.084 HD
ATOM     20  H   UNL     1       0.983   0.342   1.609  0.00  0.00    -0.084 HD
ENDBRANCH   1  12
BRANCH   3  21
ATOM     21  N   UNL     1       3.457  -2.925  -5.245  0.00  0.00    +0.063 N 
ATOM     22  O   UNL     1       4.649  -2.846  -5.061  0.00  0.00    -0.126 OA
ATOM     23  O   UNL     1       2.938  -2.286  -6.131  0.00  0.00    -0.126 OA
ENDBRANCH   3  21
BRANCH   4  24
ATOM     24  N   UNL     1       2.959  -5.662  -5.884  0.00  0.00    -0.246 N 
ATOM     25  H   UNL     1       3.503  -5.105  -6.462  0.00  0.00    +0.172 HD
BRANCH  24  26
ATOM     26  N   UNL     1       2.729  -7.003  -6.219  0.00  0.00    -0.235 N 
ATOM     27  C   UNL     1       3.264  -7.518  -7.344  0.00  0.00    +0.241 C 
ATOM     28  O   UNL     1       3.944  -6.821  -8.066  0.00  0.00    -0.273 OA
ATOM     29  H   UNL     1       2.185  -7.561  -5.641  0.00  0.00    +0.173 HD
BRANCH  27  30
ATOM     30  C   UNL     1       3.016  -8.961  -7.704  0.00  0.00    +0.136 C 
BRANCH  30  31
ATOM     31  C   UNL     1       3.719  -9.283  -8.997  0.00  0.00    -0.031 A 
ATOM     32  C   UNL     1       3.010  -9.827 -10.052  0.00  0.00    +0.005 A 
ATOM     33  C   UNL     1       3.655 -10.123 -11.238  0.00  0.00    +0.000 A 
ATOM     34  C   UNL     1       5.008  -9.875 -11.370  0.00  0.00    +0.000 A 
ATOM     35  C   UNL     1       5.717  -9.330 -10.316  0.00  0.00    +0.000 A 
ATOM     36  C   UNL     1       5.071  -9.030  -9.131  0.00  0.00    +0.005 A 
ENDBRANCH  30  31
BRANCH  30  37
ATOM     37  C   UNL     1       3.546  -9.850  -6.609  0.00  0.00    -0.031 A 
ATOM     38  C   UNL     1       4.841  -9.687  -6.152  0.00  0.00    +0.005 A 
ATOM     39  C   UNL     1       5.327 -10.503  -5.147  0.00  0.00    +0.000 A 
ATOM     40  C   UNL     1       4.519 -11.481  -4.599  0.00  0.00    +0.000 A 
ATOM     41  C   UNL     1       3.224 -11.643  -5.055  0.00  0.00    +0.000 A 
ATOM     42  C   UNL     1       2.736 -10.825  -6.057  0.00  0.00    +0.005 A 
ENDBRANCH  30  37
ENDBRANCH  27  30
ENDBRANCH  24  26
ENDBRANCH   4  24
TORSDOF 7
