REMARK  Name = ZINC22810601
REMARK  11 active torsions:
REMARK  status: ('A' for Active; 'I' for Inactive)
REMARK    1  A    between atoms: C_1  and  C_2
REMARK    2  A    between atoms: C_2  and  N_3
REMARK    3  A    between atoms: N_6  and  C_9
REMARK    4  A    between atoms: C_9  and  C_10
REMARK    5  A    between atoms: C_10  and  C_11
REMARK    6  A    between atoms: C_11  and  N_12
REMARK    7  A    between atoms: C_13  and  C_15
REMARK    8  A    between atoms: C_16  and  C_36
REMARK    9  A    between atoms: N_22  and  C_25
REMARK   10  A    between atoms: C_25  and  C_26
REMARK   11  A    between atoms: C_33  and  C_35
REMARK                            x       y       z     vdW  Elec       q    Type
REMARK                         _______ _______ _______ _____ _____    ______ ____
ROOT
ATOM      1  C   UNL     1      -6.665   9.542   0.927  0.00  0.00    +0.079 A 
ATOM      2  C   UNL     1      -5.436   8.973   1.089  0.00  0.00    -0.017 A 
ATOM      3  C   UNL     1      -5.318   7.583   1.169  0.00  0.00    +0.076 A 
ATOM      4  C   UNL     1      -6.527   6.857   1.071  0.00  0.00    +0.116 A 
ATOM      5  S   UNL     1      -7.751   8.127   0.876  0.00  0.00    -0.064 S 
ATOM      6  N   UNL     1      -6.553   5.532   1.132  0.00  0.00    -0.230 NA
ATOM      7  C   UNL     1      -5.463   4.831   1.285  0.00  0.00    +0.203 A 
ATOM      8  N   UNL     1      -4.244   5.417   1.390  0.00  0.00    -0.290 N 
ATOM      9  C   UNL     1      -4.103   6.756   1.347  0.00  0.00    +0.263 A 
ATOM     10  O   UNL     1      -3.005   7.272   1.447  0.00  0.00    -0.267 OA
ATOM     11  C   UNL     1      -4.208   9.842   1.182  0.00  0.00    +0.046 C 
ENDROOT
BRANCH   1  13
ATOM     12  N   UNL     1      -8.294  11.336   0.661  0.00  0.00    -0.311 N 
ATOM     13  C   UNL     1      -7.008  10.964   0.820  0.00  0.00    +0.251 C 
ATOM     14  O   UNL     1      -6.133  11.807   0.875  0.00  0.00    -0.270 OA
ATOM     15  H   UNL     1      -9.085  10.574   0.612  0.00  0.00    +0.149 HD
BRANCH  12  16
ATOM     16  C   UNL     1      -8.637  12.757   0.555  0.00  0.00    +0.106 C 
BRANCH  16  17
ATOM     17  C   UNL     1     -10.150  12.904   0.382  0.00  0.00    +0.034 C 
BRANCH  17  18
ATOM     18  C   UNL     1     -10.508  14.387   0.271  0.00  0.00    +0.086 C 
BRANCH  18  22
ATOM     19  N   UNL     1     -14.336  15.469  -1.152  0.00  0.00    +0.381 N 
ATOM     20  C   UNL     1     -13.896  16.030   0.133  0.00  0.00    -0.063 C 
ATOM     21  C   UNL     1     -12.371  15.935   0.232  0.00  0.00    +0.066 C 
ATOM     22  N   UNL     1     -11.961  14.529   0.105  0.00  0.00    -0.306 NA
ATOM     23  C   UNL     1     -12.402  13.969  -1.180  0.00  0.00    +0.066 C 
ATOM     24  C   UNL     1     -13.926  14.064  -1.279  0.00  0.00    -0.063 C 
ATOM     25  H   UNL     1     -13.848  16.039  -1.956  0.00  0.00    -0.082 HD
BRANCH  19  27
ATOM     26  C   UNL     1     -16.176  15.250  -2.753  0.00  0.00    -0.017 C 
ATOM     27  C   UNL     1     -15.789  15.611  -1.317  0.00  0.00    -0.082 C 
ENDBRANCH  19  27
ENDBRANCH  18  22
ENDBRANCH  17  18
ENDBRANCH  16  17
ENDBRANCH  12  16
ENDBRANCH   1  13
BRANCH   8  28
ATOM     28  C   UNL     1      -3.057   4.576   1.560  0.00  0.00    +0.222 C 
BRANCH  28  29
ATOM     29  C   UNL     1      -2.495   4.220   0.207  0.00  0.00    +0.236 C 
ATOM     30  O   UNL     1      -3.034   4.628  -0.799  0.00  0.00    -0.274 OA
ATOM     31  N   UNL     1      -1.394   3.447   0.117  0.00  0.00    -0.297 N 
ATOM     32  C   UNL     1      -0.795   2.854   1.320  0.00  0.00    +0.108 C 
ATOM     33  C   UNL     1      -0.658   1.343   1.109  0.00  0.00    +0.019 C 
ATOM     34  C   UNL     1       0.127   1.081  -0.179  0.00  0.00    +0.003 C 
ATOM     35  C   UNL     1      -0.634   1.668  -1.370  0.00  0.00    +0.022 C 
ATOM     36  C   UNL     1      -0.771   3.183  -1.187  0.00  0.00    +0.073 C 
ATOM     37  C   UNL     1      -1.649   3.757  -2.301  0.00  0.00    +0.028 C 
ENDBRANCH  28  29
ENDBRANCH   8  28
TORSDOF 8
