REMARK  Name = ZINC45321460
REMARK  5 active torsions:
REMARK  status: ('A' for Active; 'I' for Inactive)
REMARK    1  A    between atoms: N_10  and  C_11
REMARK    2  A    between atoms: C_13  and  N_22
REMARK    3  A    between atoms: C_14  and  C_20
REMARK    4  A    between atoms: N_22  and  C_23
REMARK    5  A    between atoms: C_26  and  N_29
REMARK                            x       y       z     vdW  Elec       q    Type
REMARK                         _______ _______ _______ _____ _____    ______ ____
ROOT
ATOM      1  C   UNL     1       4.268  -4.375   0.000  0.00  0.00    +0.128 A 
ATOM      2  C   UNL     1       5.277  -3.467   0.083  0.00  0.00    +0.068 A 
ATOM      3  C   UNL     1       6.615  -3.876   0.132  0.00  0.00    +0.050 A 
ATOM      4  C   UNL     1       6.911  -5.247   0.096  0.00  0.00    +0.098 A 
ATOM      5  C   UNL     1       5.796  -6.194   0.007  0.00  0.00    +0.088 A 
ATOM      6  N   UNL     1       4.511  -5.722  -0.033  0.00  0.00    -0.217 N 
ATOM      7  N   UNL     1       3.660  -6.832  -0.110  0.00  0.00    -0.173 NA
ATOM      8  C   UNL     1       4.386  -7.925  -0.112  0.00  0.00    +0.135 A 
ATOM      9  C   UNL     1       5.729  -7.574  -0.047  0.00  0.00    +0.050 A 
ENDROOT
BRANCH   1  19
ATOM     10  C   UNL     1      -1.699  -4.715  -3.858  0.00  0.00    +0.002 A 
ATOM     11  C   UNL     1      -0.921  -5.402  -4.779  0.00  0.00    +0.001 A 
ATOM     12  C   UNL     1       0.420  -5.611  -4.511  0.00  0.00    +0.017 A 
ATOM     13  C   UNL     1       0.959  -5.136  -3.342  0.00  0.00    +0.041 A 
ATOM     14  C   UNL     1       0.198  -4.433  -2.381  0.00  0.00    +0.080 A 
ATOM     15  C   UNL     1      -1.169  -4.238  -2.688  0.00  0.00    +0.029 A 
ATOM     16  N   UNL     1       0.871  -4.030  -1.281  0.00  0.00    -0.225 NA
ATOM     17  C   UNL     1       2.150  -4.273  -1.109  0.00  0.00    +0.165 A 
ATOM     18  S   UNL     1       2.572  -5.167  -2.598  0.00  0.00    -0.052 S 
ATOM     19  N   UNL     1       2.963  -3.926  -0.046  0.00  0.00    -0.279 N 
ATOM     20  H   UNL     1       2.617  -3.367   0.667  0.00  0.00    +0.155 HD
ENDBRANCH   1  19
BRANCH   4  21
ATOM     21  C   UNL     1       8.266  -5.709   0.143  0.00  0.00    +0.103 C 
ATOM     22  N   UNL     1       9.341  -6.075   0.181  0.00  0.00    -0.191 NA
ENDBRANCH   4  21
BRANCH   3  23
ATOM     23  N   UNL     1       7.632  -2.939   0.215  0.00  0.00    -0.340 N 
ATOM     24  H   UNL     1       8.557  -3.230   0.249  0.00  0.00    +0.146 HD
BRANCH  23  25
ATOM     25  C   UNL     1       7.311  -1.510   0.252  0.00  0.00    +0.070 C 
ATOM     26  C   UNL     1       7.146  -0.988  -1.177  0.00  0.00    +0.020 C 
ATOM     27  C   UNL     1       8.449  -1.198  -1.950  0.00  0.00    -0.014 C 
ATOM     28  C   UNL     1       9.582  -0.439  -1.258  0.00  0.00    -0.075 C 
ATOM     29  C   UNL     1       9.748  -0.962   0.171  0.00  0.00    -0.014 C 
ATOM     30  C   UNL     1       8.445  -0.751   0.945  0.00  0.00    +0.020 C 
BRANCH  28  31
ATOM     31  N   UNL     1      10.833  -0.641  -2.001  0.00  0.00    +0.380 N 
ATOM     32  H   UNL     1      10.724  -0.296  -2.943  0.00  0.00    -0.090 HD
ATOM     33  H   UNL     1      11.581  -0.140  -1.544  0.00  0.00    -0.090 HD
ATOM     34  H   UNL     1      11.054  -1.625  -2.026  0.00  0.00    -0.090 HD
ENDBRANCH  28  31
ENDBRANCH  23  25
ENDBRANCH   3  23
TORSDOF 5
