REMARK  Name = ZINC14880374
REMARK  7 active torsions:
REMARK  status: ('A' for Active; 'I' for Inactive)
REMARK    1  A    between atoms: C_4  and  C_26
REMARK    2  A    between atoms: C_5  and  O_14
REMARK    3  A    between atoms: O_14  and  C_15
REMARK    4  A    between atoms: C_15  and  C_16
REMARK    5  A    between atoms: C_26  and  N_60
REMARK    6  A    between atoms: C_27  and  C_28
REMARK    7  A    between atoms: C_27  and  N_60
REMARK                            x       y       z     vdW  Elec       q    Type
REMARK                         _______ _______ _______ _____ _____    ______ ____
ROOT
ATOM      1  C   UNL     1       8.628   0.552  -0.076  0.00  0.00    +0.014 A 
ATOM      2  C   UNL     1       7.350   1.128  -0.062  0.00  0.00    +0.001 A 
ATOM      3  C   UNL     1       7.175   2.527  -0.053  0.00  0.00    +0.017 A 
ATOM      4  C   UNL     1       5.904   3.018  -0.045  0.00  0.00    -0.002 A 
ATOM      5  C   UNL     1       4.815   2.137  -0.033  0.00  0.00    +0.217 A 
ATOM      6  N   UNL     1       4.984   0.833  -0.042  0.00  0.00    -0.213 NA
ATOM      7  C   UNL     1       6.207   0.291  -0.057  0.00  0.00    +0.075 A 
ATOM      8  C   UNL     1       6.384  -1.101  -0.069  0.00  0.00    +0.032 A 
ATOM      9  C   UNL     1       7.641  -1.633  -0.082  0.00  0.00    -0.042 A 
ATOM     10  C   UNL     1       8.764  -0.806  -0.086  0.00  0.00    -0.043 A 
ATOM     11  C   UNL     1      10.019  -1.655  -0.101  0.00  0.00    +0.036 C 
ATOM     12  C   UNL     1       9.554  -3.056  -0.551  0.00  0.00    +0.009 C 
ATOM     13  C   UNL     1       8.080  -3.083  -0.096  0.00  0.00    +0.036 C 
ENDROOT
BRANCH   5  14
ATOM     14  O   UNL     1       3.557   2.641  -0.018  0.00  0.00    -0.471 OA
BRANCH  14  15
ATOM     15  C   UNL     1       2.481   1.700  -0.013  0.00  0.00    +0.267 C 
BRANCH  15  16
ATOM     16  C   UNL     1       1.167   2.438   0.004  0.00  0.00    +0.012 A 
ATOM     17  C   UNL     1       1.153   3.821   0.012  0.00  0.00    +0.058 A 
ATOM     18  C   UNL     1      -0.053   4.502   0.027  0.00  0.00    +0.167 A 
ATOM     19  C   UNL     1      -1.250   3.791   0.034  0.00  0.00    +0.168 A 
ATOM     20  C   UNL     1      -1.230   2.406   0.021  0.00  0.00    +0.070 A 
ATOM     21  C   UNL     1      -0.021   1.732   0.012  0.00  0.00    +0.051 A 
ATOM     22 CL   UNL     1       0.002  -0.004   0.002  0.00  0.00    -0.083 Cl
ATOM     23  O   UNL     1      -2.286   4.680   0.049  0.00  0.00    -0.453 OA
ATOM     24  C   UNL     1      -1.710   5.934   0.463  0.00  0.00    +0.466 C 
ATOM     25  O   UNL     1      -0.338   5.837   0.037  0.00  0.00    -0.453 OA
ENDBRANCH  15  16
ENDBRANCH  14  15
ENDBRANCH   5  14
BRANCH   4  26
ATOM     26  C   UNL     1       5.670   4.507  -0.041  0.00  0.00    -0.041 C 
BRANCH  26  27
ATOM     27  N   UNL     1       5.371   4.945   1.336  0.00  0.00    +0.384 N 
ATOM     28  H   UNL     1       6.165   4.715   1.944  0.00  0.00    -0.085 HD
ATOM     29  H   UNL     1       4.531   4.460   1.671  0.00  0.00    -0.085 HD
BRANCH  27  30
ATOM     30  C   UNL     1       5.137   6.402   1.370  0.00  0.00    -0.048 C 
BRANCH  30  31
ATOM     31  C   UNL     1       4.831   6.827   2.807  0.00  0.00    +0.127 C 
ATOM     32  C   UNL     1       4.583   8.337   2.853  0.00  0.00    +0.189 C 
ATOM     33  O   UNL     1       4.186   8.708   4.177  0.00  0.00    -0.375 OA
ATOM     34  C   UNL     1       3.017   8.025   4.638  0.00  0.00    +0.188 C 
ATOM     35  C   UNL     1       3.266   6.515   4.593  0.00  0.00    +0.188 C 
ATOM     36  O   UNL     1       3.661   6.144   3.269  0.00  0.00    -0.374 OA
ENDBRANCH  30  31
ENDBRANCH  27  30
ENDBRANCH  26  27
ENDBRANCH   4  26
TORSDOF 7
