REMARK  Name = ZINC47297395
REMARK  2 active torsions:
REMARK  status: ('A' for Active; 'I' for Inactive)
REMARK    1  A    between atoms: C_10  and  C_12
REMARK    2  A    between atoms: C_15  and  N_17
REMARK                            x       y       z     vdW  Elec       q    Type
REMARK                         _______ _______ _______ _____ _____    ______ ____
ROOT
ATOM      1  C   UNL     1      -0.018   1.506   0.010  0.00  0.00    +0.001 C 
ATOM      2  C   UNL     1       1.317   2.203   0.001  0.00  0.00    +0.006 C 
ATOM      3  C   UNL     1       1.990   2.129  -1.374  0.00  0.00    +0.056 C 
ATOM      4  C   UNL     1       2.646   0.753  -1.482  0.00  0.00    +0.054 A 
ATOM      5  C   UNL     1       1.937  -0.390  -1.449  0.00  0.00    +0.014 A 
ATOM      6  S   UNL     1       3.177  -1.644  -1.563  0.00  0.00    -0.057 S 
ATOM      7  C   UNL     1       4.508  -0.614  -1.677  0.00  0.00    +0.165 A 
ATOM      8  N   UNL     1       3.964   0.582  -1.612  0.00  0.00    -0.229 NA
ATOM      9  N   UNL     1       5.851  -0.947  -1.807  0.00  0.00    -0.264 N 
ATOM     10  C   UNL     1       6.782   0.024  -1.884  0.00  0.00    +0.224 C 
ATOM     11  O   UNL     1       6.448   1.190  -1.839  0.00  0.00    -0.275 OA
ATOM     12  C   UNL     1       0.437  -0.523  -1.382  0.00  0.00    +0.044 C 
ATOM     13  C   UNL     1       0.002  -0.004   0.002  0.00  0.00    +0.005 C 
ATOM     14  H   UNL     1       6.118  -1.879  -1.843  0.00  0.00    +0.157 HD
ENDROOT
BRANCH  10  15
ATOM     15  C   UNL     1       8.238  -0.337  -2.026  0.00  0.00    +0.107 C 
ATOM     16  C   UNL     1       8.920  -0.015  -3.357  0.00  0.00    +0.047 C 
ATOM     17  C   UNL     1       9.246   0.811  -2.110  0.00  0.00    +0.182 C 
BRANCH  17  18
ATOM     18  N   UNL     1       8.722   2.177  -2.046  0.00  0.00    +0.026 N 
ATOM     19  O   UNL     1       9.077   2.921  -1.162  0.00  0.00    -0.131 OA
ATOM     20  O   UNL     1       7.934   2.562  -2.879  0.00  0.00    -0.131 OA
ENDBRANCH  17  18
ENDBRANCH  10  15
TORSDOF 2
