REMARK  Name = ZINC24967980
REMARK  11 active torsions:
REMARK  status: ('A' for Active; 'I' for Inactive)
REMARK    1  A    between atoms: C_1  and  C_2
REMARK    2  A    between atoms: C_4  and  C_31
REMARK    3  A    between atoms: C_5  and  C_28
REMARK    4  A    between atoms: C_6  and  C_27
REMARK    5  A    between atoms: C_7  and  C_8
REMARK    6  A    between atoms: C_8  and  O_9
REMARK    7  A    between atoms: O_9  and  C_10
REMARK    8  A    between atoms: C_10  and  C_12
REMARK    9  A    between atoms: C_12  and  N_13
REMARK   10  A    between atoms: C_21  and  C_23
REMARK   11  A    between atoms: C_28  and  C_30
REMARK                            x       y       z     vdW  Elec       q    Type
REMARK                         _______ _______ _______ _____ _____    ______ ____
ROOT
ATOM      1  C   UNL     1       2.930   1.225  -1.356  0.00  0.00    +0.326 C 
ATOM      2  O   UNL     1       2.168   1.504  -2.251  0.00  0.00    -0.249 OA
ENDROOT
BRANCH   1   3
ATOM      3  O   UNL     1       4.157   0.761  -1.639  0.00  0.00    -0.459 OA
BRANCH   3   4
ATOM      4  C   UNL     1       4.500   0.619  -3.043  0.00  0.00    +0.268 C 
BRANCH   4  11
ATOM      5  C   UNL     1       4.960  -2.227  -3.139  0.00  0.00    +0.044 C 
ATOM      6  C   UNL     1       6.127  -1.276  -3.212  0.00  0.00    -0.044 A 
ATOM      7  C   UNL     1       7.414  -1.773  -3.325  0.00  0.00    +0.007 A 
ATOM      8  C   UNL     1       8.487  -0.909  -3.391  0.00  0.00    -0.039 A 
ATOM      9  C   UNL     1       8.271   0.472  -3.344  0.00  0.00    +0.023 A 
ATOM     10  C   UNL     1       6.968   0.966  -3.236  0.00  0.00    -0.033 A 
ATOM     11  C   UNL     1       5.906   0.089  -3.165  0.00  0.00    -0.004 A 
ATOM     12  C   UNL     1       6.724   2.453  -3.191  0.00  0.00    +0.045 C 
ATOM     13  C   UNL     1       9.887  -1.452  -3.514  0.00  0.00    +0.044 C 
BRANCH   9  14
ATOM     14  C   UNL     1       9.411   1.401  -3.415  0.00  0.00    +0.161 C 
ATOM     15  O   UNL     1       9.745   1.870  -4.482  0.00  0.00    -0.292 OA
ATOM     16  C   UNL     1      10.162   1.769  -2.162  0.00  0.00    +0.091 C 
ENDBRANCH   9  14
ENDBRANCH   4  11
ENDBRANCH   3   4
ENDBRANCH   1   3
BRANCH   1  17
ATOM     17  C   UNL     1       2.502   1.398   0.079  0.00  0.00    +0.238 C 
BRANCH  17  18
ATOM     18  N   UNL     1       1.132   1.914   0.121  0.00  0.00    -0.213 N 
ATOM     19  C   UNL     1       0.816   3.226   0.134  0.00  0.00    +0.247 C 
ATOM     20  O   UNL     1       1.581   4.165   0.114  0.00  0.00    -0.273 OA
ATOM     21  C   UNL     1      -0.695   3.276   0.180  0.00  0.00    +0.115 C 
ATOM     22  C   UNL     1      -1.240   3.982  -1.056  0.00  0.00    +0.035 C 
ATOM     23  C   UNL     1      -2.770   3.998  -1.005  0.00  0.00    +0.003 C 
ATOM     24  C   UNL     1      -3.228   4.725   0.261  0.00  0.00    +0.000 C 
ATOM     25  C   UNL     1      -2.694   3.992   1.493  0.00  0.00    +0.006 C 
ATOM     26  C   UNL     1      -1.164   3.975   1.452  0.00  0.00    +0.018 C 
ATOM     27  C   UNL     1      -0.629   3.224   2.673  0.00  0.00    +0.010 C 
ATOM     28  N   UNL     1      -1.099   1.865   0.183  0.00  0.00    -0.285 N 
ATOM     29  C   UNL     1       0.038   1.143   0.152  0.00  0.00    +0.310 C 
ATOM     30  O   UNL     1       0.067  -0.072   0.148  0.00  0.00    -0.252 OA
ATOM     31  H   UNL     1      -2.166   1.598   0.207  0.00  0.00    +0.151 HD
ENDBRANCH  17  18
ENDBRANCH   1  17
TORSDOF 6
