REMARK  Name = ZINC09109277
REMARK  8 active torsions:
REMARK  status: ('A' for Active; 'I' for Inactive)
REMARK    1  A    between atoms: C_1  and  C_2
REMARK    2  A    between atoms: C_2  and  C_4
REMARK    3  A    between atoms: C_2  and  N_12
REMARK    4  A    between atoms: C_4  and  C_5
REMARK    5  A    between atoms: C_5  and  C_6
REMARK    6  A    between atoms: C_15  and  C_21
REMARK    7  A    between atoms: C_16  and  O_20
REMARK    8  A    between atoms: C_18  and  O_19
REMARK                            x       y       z     vdW  Elec       q    Type
REMARK                         _______ _______ _______ _____ _____    ______ ____
ROOT
ATOM      1  N   UNL     1      -3.604   3.735  -3.414  0.00  0.00    -0.260 N 
ATOM      2  C   UNL     1      -2.827   3.277  -2.409  0.00  0.00    +0.262 A 
ATOM      3  O   UNL     1      -3.318   2.668  -1.472  0.00  0.00    -0.267 OA
ATOM      4  C   UNL     1      -1.447   3.514  -2.461  0.00  0.00    +0.070 A 
ATOM      5  C   UNL     1      -0.934   4.214  -3.538  0.00  0.00    +0.224 A 
ATOM      6  N   UNL     1      -1.754   4.638  -4.506  0.00  0.00    -0.161 NA
ATOM      7  C   UNL     1      -3.047   4.412  -4.451  0.00  0.00    +0.302 A 
ENDROOT
BRANCH   4   8
ATOM      8  C   UNL     1      -0.541   3.022  -1.362  0.00  0.00    +0.018 C 
ATOM      9  C   UNL     1      -0.889   3.713  -0.065  0.00  0.00    +0.011 A 
ATOM     10  C   UNL     1      -0.976   3.061   1.117  0.00  0.00    -0.022 A 
ATOM     11  C   UNL     1      -1.326   4.041   2.121  0.00  0.00    +0.003 A 
ATOM     12  C   UNL     1      -1.550   3.952   3.499  0.00  0.00    +0.010 A 
ATOM     13  C   UNL     1      -1.872   5.116   4.152  0.00  0.00    +0.001 A 
ATOM     14  C   UNL     1      -1.974   6.328   3.489  0.00  0.00    +0.002 A 
ATOM     15  C   UNL     1      -1.758   6.445   2.126  0.00  0.00    +0.026 A 
ATOM     16  C   UNL     1      -1.430   5.280   1.437  0.00  0.00    +0.047 A 
ATOM     17  N   UNL     1      -1.159   5.042   0.119  0.00  0.00    -0.359 N 
ATOM     18  H   UNL     1      -1.158   5.714  -0.580  0.00  0.00    +0.166 HD
ATOM     19  C   UNL     1      -0.732   1.581   1.270  0.00  0.00    +0.018 C 
ATOM     20  C   UNL     1      -0.013   1.086   0.008  0.00  0.00    -0.076 C 
ATOM     21  N   UNL     1      -0.731   1.565  -1.191  0.00  0.00    +0.388 N 
ATOM     22  H   UNL     1      -0.369   1.077  -2.019  0.00  0.00    -0.084 HD
ATOM     23  H   UNL     1      -1.733   1.365  -1.087  0.00  0.00    -0.084 HD
ENDBRANCH   4   8
BRANCH   1  25
ATOM     24  C   UNL     1      -5.784   4.843  -3.388  0.00  0.00    +0.031 C 
ATOM     25  C   UNL     1      -5.050   3.500  -3.385  0.00  0.00    +0.092 C 
BRANCH  25  26
ATOM     26  C   UNL     1      -5.460   2.692  -4.617  0.00  0.00    +0.030 C 
BRANCH  26  27
ATOM     27  C   UNL     1      -4.824   1.302  -4.551  0.00  0.00    +0.037 C 
BRANCH  27  28
ATOM     28  C   UNL     1      -5.228   0.506  -5.765  0.00  0.00    -0.047 A 
ATOM     29  C   UNL     1      -6.368  -0.274  -5.731  0.00  0.00    +0.003 A 
ATOM     30  C   UNL     1      -6.742  -1.000  -6.847  0.00  0.00    +0.000 A 
ATOM     31  C   UNL     1      -5.969  -0.955  -7.992  0.00  0.00    +0.000 A 
ATOM     32  C   UNL     1      -4.826  -0.179  -8.024  0.00  0.00    +0.000 A 
ATOM     33  C   UNL     1      -4.455   0.552  -6.910  0.00  0.00    +0.003 A 
ENDBRANCH  27  28
ENDBRANCH  26  27
ENDBRANCH  25  26
ENDBRANCH   1  25
BRANCH   7  34
ATOM     34  O   UNL     1      -3.839   4.862  -5.447  0.00  0.00    -0.479 OA
ATOM     35  H   UNL     1      -3.408   5.340  -6.168  0.00  0.00    +0.295 HD
ENDBRANCH   7  34
BRANCH   5  36
ATOM     36  O   UNL     1       0.394   4.465  -3.615  0.00  0.00    -0.492 OA
ATOM     37  H   UNL     1       0.656   4.959  -4.404  0.00  0.00    +0.294 HD
ENDBRANCH   5  36
TORSDOF 7
