REMARK  Name = ZINC13023331
REMARK  10 active torsions:
REMARK  status: ('A' for Active; 'I' for Inactive)
REMARK    1  A    between atoms: C_1  and  C_2
REMARK    2  A    between atoms: C_5  and  C_40
REMARK    3  A    between atoms: C_6  and  N_8
REMARK    4  A    between atoms: C_13  and  C_15
REMARK    5  A    between atoms: C_13  and  C_29
REMARK    6  A    between atoms: C_13  and  N_72
REMARK    7  A    between atoms: C_18  and  C_28
REMARK    8  A    between atoms: C_20  and  C_27
REMARK    9  A    between atoms: N_33  and  C_34
REMARK   10  A    between atoms: C_34  and  C_35
REMARK                            x       y       z     vdW  Elec       q    Type
REMARK                         _______ _______ _______ _____ _____    ______ ____
ROOT
ATOM      1  C   UNL     1       4.969  -2.783  -0.061  0.00  0.00    +0.039 C 
ENDROOT
BRANCH   1   2
ATOM      2  C   UNL     1       3.669  -2.021  -0.038  0.00  0.00    +0.011 A 
ATOM      3  C   UNL     1       2.902  -2.028   1.080  0.00  0.00    +0.018 A 
ATOM      4  C   UNL     1       1.644  -1.278   1.070  0.00  0.00    +0.002 A 
ATOM      5  C   UNL     1       0.810  -1.249   2.192  0.00  0.00    -0.041 A 
ATOM      6  C   UNL     1      -0.356  -0.538   2.152  0.00  0.00    +0.007 A 
ATOM      7  C   UNL     1      -0.721   0.155   1.005  0.00  0.00    -0.048 A 
ATOM      8  C   UNL     1       0.085   0.139  -0.113  0.00  0.00    +0.029 A 
ATOM      9  C   UNL     1       1.277  -0.577  -0.094  0.00  0.00    +0.050 A 
ATOM     10  N   UNL     1       2.103  -0.609  -1.198  0.00  0.00    -0.322 N 
ATOM     11  H   UNL     1       1.849  -0.125  -1.999  0.00  0.00    +0.169 HD
ATOM     12  C   UNL     1       3.255  -1.302  -1.179  0.00  0.00    +0.251 A 
ATOM     13  O   UNL     1       3.960  -1.308  -2.174  0.00  0.00    -0.268 OA
ATOM     14  C   UNL     1      -2.009   0.936   0.985  0.00  0.00    +0.044 C 
ATOM     15  C   UNL     1       1.196  -1.998   3.442  0.00  0.00    +0.044 C 
ENDBRANCH   1   2
BRANCH   1  21
ATOM     16  N   UNL     1       4.961  -6.439  -2.179  0.00  0.00    -0.333 N 
ATOM     17  C   UNL     1       6.120  -5.550  -2.343  0.00  0.00    +0.086 C 
ATOM     18  C   UNL     1       6.174  -4.565  -1.173  0.00  0.00    -0.058 C 
ATOM     19  C   UNL     1       3.766  -4.682  -0.962  0.00  0.00    -0.058 C 
ATOM     20  C   UNL     1       3.711  -5.667  -2.133  0.00  0.00    +0.086 C 
ATOM     21  N   UNL     1       4.922  -3.781  -1.151  0.00  0.00    +0.391 N 
ATOM     22  H   UNL     1       4.820  -3.290  -2.048  0.00  0.00    -0.080 HD
BRANCH  16  28
ATOM     23  C   UNL     1       4.680  -7.531  -6.962  0.00  0.00    +0.044 C 
ATOM     24  C   UNL     1       4.783  -7.957  -5.520  0.00  0.00    -0.049 A 
ATOM     25  C   UNL     1       4.837  -9.302  -5.200  0.00  0.00    +0.004 A 
ATOM     26  C   UNL     1       4.932  -9.697  -3.878  0.00  0.00    +0.005 A 
ATOM     27  C   UNL     1       4.978  -8.750  -2.874  0.00  0.00    -0.029 A 
ATOM     28  C   UNL     1       4.919  -7.399  -3.192  0.00  0.00    +0.033 A 
ATOM     29  C   UNL     1       4.824  -7.005  -4.521  0.00  0.00    +0.026 A 
ATOM     30  C   UNL     1       5.088  -9.181  -1.434  0.00  0.00    +0.045 C 
ENDBRANCH  16  28
ENDBRANCH   1  21
BRANCH   1  31
ATOM     31  C   UNL     1       5.176  -3.463   1.268  0.00  0.00    +0.143 A 
ATOM     32  N   UNL     1       4.560  -4.536   1.702  0.00  0.00    -0.115 NA
ATOM     33  N   UNL     1       5.012  -4.805   2.878  0.00  0.00    -0.023 NA
ATOM     34  N   UNL     1       5.900  -3.932   3.205  0.00  0.00    -0.044 NA
ATOM     35  N   UNL     1       6.034  -3.091   2.236  0.00  0.00    -0.223 N 
BRANCH  35  36
ATOM     36  C   UNL     1       6.945  -1.945   2.198  0.00  0.00    +0.221 C 
BRANCH  36  37
ATOM     37  C   UNL     1       6.250  -0.732   2.762  0.00  0.00    +0.126 A 
ATOM     38  C   UNL     1       6.246  -0.358   4.054  0.00  0.00    +0.046 A 
ATOM     39  C   UNL     1       5.481   0.829   4.134  0.00  0.00    +0.041 A 
ATOM     40  C   UNL     1       5.056   1.103   2.888  0.00  0.00    +0.195 A 
ATOM     41  O   UNL     1       5.525   0.155   2.061  0.00  0.00    -0.466 OA
ENDBRANCH  36  37
ENDBRANCH  35  36
ENDBRANCH   1  31
TORSDOF 6
