REMARK  Name = ZINC13223011
REMARK  9 active torsions:
REMARK  status: ('A' for Active; 'I' for Inactive)
REMARK    1  A    between atoms: C_1  and  C_2
REMARK    2  A    between atoms: C_4  and  C_17
REMARK    3  A    between atoms: C_5  and  C_16
REMARK    4  A    between atoms: N_6  and  C_7
REMARK    5  A    between atoms: C_17  and  C_19
REMARK    6  A    between atoms: C_19  and  S_20
REMARK    7  A    between atoms: S_20  and  C_21
REMARK    8  A    between atoms: N_31  and  C_32
REMARK    9  A    between atoms: C_32  and  C_33
REMARK                            x       y       z     vdW  Elec       q    Type
REMARK                         _______ _______ _______ _____ _____    ______ ____
ROOT
ATOM      1  C   UNL     1      -5.219  -2.005   0.040  0.00  0.00    +0.175 C 
ATOM      2  O   UNL     1      -5.434  -3.200   0.035  0.00  0.00    -0.291 OA
ENDROOT
BRANCH   1   6
ATOM      3  C   UNL     1      -7.932   2.307   0.087  0.00  0.00    +0.064 C 
ATOM      4  C   UNL     1      -7.521   0.857   0.076  0.00  0.00    +0.022 A 
ATOM      5  C   UNL     1      -6.255   0.407   0.062  0.00  0.00    +0.034 A 
ATOM      6  C   UNL     1      -6.337  -1.060   0.055  0.00  0.00    +0.039 A 
ATOM      7  C   UNL     1      -7.686  -1.365   0.060  0.00  0.00    +0.031 A 
ATOM      8  N   UNL     1      -8.376  -0.209   0.079  0.00  0.00    -0.317 N 
ATOM      9  C   UNL     1      -8.279  -2.750   0.051  0.00  0.00    +0.064 C 
BRANCH   8  10
ATOM     10  C   UNL     1      -9.776  -0.113   0.093  0.00  0.00    +0.050 A 
ATOM     11  C   UNL     1     -10.514  -0.566  -0.992  0.00  0.00    +0.030 A 
ATOM     12  C   UNL     1     -11.892  -0.473  -0.979  0.00  0.00    +0.051 A 
ATOM     13  C   UNL     1     -12.542   0.074   0.116  0.00  0.00    +0.166 A 
ATOM     14  C   UNL     1     -11.804   0.531   1.206  0.00  0.00    +0.168 A 
ATOM     15  C   UNL     1     -10.422   0.431   1.194  0.00  0.00    +0.075 A 
ATOM     16  O   UNL     1     -12.667   1.018   2.144  0.00  0.00    -0.453 OA
ATOM     17  C   UNL     1     -13.910   1.231   1.450  0.00  0.00    +0.466 C 
ATOM     18  O   UNL     1     -13.868   0.276   0.373  0.00  0.00    -0.453 OA
ENDBRANCH   8  10
ENDBRANCH   1   6
BRANCH   1  19
ATOM     19  C   UNL     1      -3.801  -1.496   0.030  0.00  0.00    +0.157 C 
BRANCH  19  20
ATOM     20  S   UNL     1      -2.656  -2.897   0.012  0.00  0.00    -0.080 S 
BRANCH  20  21
ATOM     21  C   UNL     1      -1.119  -2.036   0.002  0.00  0.00    +0.173 A 
ATOM     22  N   UNL     1      -1.136  -0.726   0.009  0.00  0.00    -0.223 NA
ATOM     23  C   UNL     1       0.002  -0.004   0.002  0.00  0.00    +0.079 A 
ATOM     24  C   UNL     1      -0.017   1.394   0.010  0.00  0.00    +0.028 A 
ATOM     25  C   UNL     1       1.161   2.086   0.002  0.00  0.00    +0.002 A 
ATOM     26  C   UNL     1       2.381   1.422  -0.013  0.00  0.00    +0.001 A 
ATOM     27  C   UNL     1       2.432   0.055  -0.021  0.00  0.00    +0.015 A 
ATOM     28  C   UNL     1       1.245  -0.677  -0.013  0.00  0.00    +0.065 A 
ATOM     29  C   UNL     1       1.239  -2.146  -0.021  0.00  0.00    +0.263 A 
ATOM     30  O   UNL     1       2.277  -2.782  -0.034  0.00  0.00    -0.267 OA
ATOM     31  N   UNL     1       0.036  -2.766  -0.012  0.00  0.00    -0.276 N 
BRANCH  31  32
ATOM     32  C   UNL     1      -0.028  -4.229  -0.019  0.00  0.00    +0.252 C 
BRANCH  32  33
ATOM     33  C   UNL     1      -0.037  -4.738   1.399  0.00  0.00    +0.375 C 
ATOM     34  O   UNL     1       0.007  -3.959   2.321  0.00  0.00    -0.244 OA
ATOM     35  O   UNL     1      -0.092  -6.058   1.639  0.00  0.00    -0.244 OA
ENDBRANCH  32  33
ENDBRANCH  31  32
ENDBRANCH  20  21
ENDBRANCH  19  20
ENDBRANCH   1  19
TORSDOF 7
