REMARK  Name = ZINC08949976
REMARK  12 active torsions:
REMARK  status: ('A' for Active; 'I' for Inactive)
REMARK    1  A    between atoms: C_1  and  C_2
REMARK    2  A    between atoms: C_2  and  C_3
REMARK    3  A    between atoms: C_3  and  C_4
REMARK    4  A    between atoms: C_4  and  O_5
REMARK    5  A    between atoms: O_5  and  C_6
REMARK    6  A    between atoms: C_6  and  C_8
REMARK    7  A    between atoms: C_11  and  N_14
REMARK    8  A    between atoms: C_15  and  C_17
REMARK    9  A    between atoms: C_17  and  S_18
REMARK   10  A    between atoms: S_18  and  C_19
REMARK   11  A    between atoms: C_25  and  C_30
REMARK   12  A    between atoms: C_33  and  C_36
REMARK                            x       y       z     vdW  Elec       q    Type
REMARK                         _______ _______ _______ _____ _____    ______ ____
ROOT
ATOM      1  S   UNL     1      -1.140   1.352  -1.432  0.00  0.00    -0.078 S 
ENDROOT
BRANCH   1   2
ATOM      2  C   UNL     1      -0.116   0.707  -2.713  0.00  0.00    +0.170 A 
ATOM      3  N   UNL     1      -0.525   0.799  -4.012  0.00  0.00    -0.301 N 
ATOM      4  H   UNL     1      -1.375   1.218  -4.215  0.00  0.00    +0.171 HD
ATOM      5  C   UNL     1       0.231   0.317  -5.016  0.00  0.00    +0.261 A 
ATOM      6  O   UNL     1      -0.148   0.407  -6.171  0.00  0.00    -0.267 OA
ATOM      7  C   UNL     1       1.483  -0.300  -4.711  0.00  0.00    +0.080 A 
ATOM      8  C   UNL     1       2.465  -0.889  -5.617  0.00  0.00    +0.004 A 
ATOM      9  C   UNL     1       3.594  -1.423  -5.096  0.00  0.00    +0.056 A 
ATOM     10  S   UNL     1       3.403  -1.164  -3.343  0.00  0.00    -0.076 S 
ATOM     11  C   UNL     1       1.826  -0.352  -3.349  0.00  0.00    +0.117 A 
ATOM     12  N   UNL     1       1.036   0.147  -2.405  0.00  0.00    -0.216 NA
BRANCH   8  13
ATOM     13  C   UNL     1       2.229  -0.902  -7.080  0.00  0.00    -0.017 A 
ATOM     14  C   UNL     1       1.020  -1.373  -7.591  0.00  0.00    +0.009 A 
ATOM     15  C   UNL     1       0.805  -1.379  -8.954  0.00  0.00    +0.004 A 
ATOM     16  C   UNL     1       1.790  -0.927  -9.814  0.00  0.00    -0.050 A 
ATOM     17  C   UNL     1       2.993  -0.463  -9.314  0.00  0.00    +0.004 A 
ATOM     18  C   UNL     1       3.218  -0.448  -7.953  0.00  0.00    +0.009 A 
ATOM     19  C   UNL     1       1.551  -0.942 -11.302  0.00  0.00    +0.044 C 
ENDBRANCH   8  13
ENDBRANCH   1   2
BRANCH   1  20
ATOM     20  C   UNL     1      -0.121   0.959   0.012  0.00  0.00    +0.173 C 
BRANCH  20  22
ATOM     21  N   UNL     1      -0.242   1.246   2.466  0.00  0.00    -0.285 N 
ATOM     22  C   UNL     1      -0.818   1.433   1.262  0.00  0.00    +0.227 C 
ATOM     23  O   UNL     1      -1.896   1.981   1.184  0.00  0.00    -0.275 OA
ATOM     24  H   UNL     1       0.583   0.740   2.536  0.00  0.00    +0.155 HD
BRANCH  21  28
ATOM     25  C   UNL     1      -2.002   2.842   5.887  0.00  0.00    +0.059 A 
ATOM     26  C   UNL     1      -1.312   1.628   5.955  0.00  0.00    +0.017 A 
ATOM     27  C   UNL     1      -0.732   1.103   4.822  0.00  0.00    +0.024 A 
ATOM     28  C   UNL     1      -0.831   1.780   3.611  0.00  0.00    +0.033 A 
ATOM     29  C   UNL     1      -1.512   2.991   3.540  0.00  0.00    +0.024 A 
ATOM     30  C   UNL     1      -2.100   3.519   4.668  0.00  0.00    +0.017 A 
BRANCH  25  31
ATOM     31  C   UNL     1      -2.626   3.407   7.098  0.00  0.00    +0.339 C 
ATOM     32  O   UNL     1      -2.541   2.817   8.157  0.00  0.00    -0.245 OA
BRANCH  31  33
ATOM     33  O   UNL     1      -3.290   4.577   7.030  0.00  0.00    -0.461 OA
BRANCH  33  34
ATOM     34  C   UNL     1      -3.879   5.073   8.261  0.00  0.00    +0.232 C 
BRANCH  34  35
ATOM     35  C   UNL     1      -4.586   6.402   7.990  0.00  0.00    +0.041 C 
BRANCH  35  37
ATOM     36  C   UNL     1      -5.913   8.254   9.015  0.00  0.00    +0.004 C 
ATOM     37  C   UNL     1      -5.206   6.925   9.287  0.00  0.00    -0.000 C 
ENDBRANCH  35  37
ENDBRANCH  34  35
ENDBRANCH  33  34
ENDBRANCH  31  33
ENDBRANCH  25  31
ENDBRANCH  21  28
ENDBRANCH  20  22
ENDBRANCH   1  20
TORSDOF 10
