REMARK  Name = ZINC54201535
REMARK  9 active torsions:
REMARK  status: ('A' for Active; 'I' for Inactive)
REMARK    1  A    between atoms: C_1  and  N_2
REMARK    2  A    between atoms: N_2  and  C_3
REMARK    3  A    between atoms: N_2  and  C_4
REMARK    4  A    between atoms: C_7  and  C_10
REMARK    5  A    between atoms: C_13  and  C_30
REMARK    6  A    between atoms: C_21  and  C_22
REMARK    7  A    between atoms: C_27  and  O_28
REMARK    8  A    between atoms: C_33  and  O_36
REMARK    9  A    between atoms: O_36  and  C_37
REMARK                            x       y       z     vdW  Elec       q    Type
REMARK                         _______ _______ _______ _____ _____    ______ ____
ROOT
ATOM      1  C   UNL     1       0.190  -3.410  -5.170  0.00  0.00    +0.136 C 
ATOM      2  C   UNL     1      -1.194  -3.557  -5.833  0.00  0.00    +0.087 C 
ATOM      3  C   UNL     1      -1.059  -2.795  -7.132  0.00  0.00    +0.069 C 
ATOM      4  N   UNL     1       0.131  -2.308  -7.223  0.00  0.00    -0.182 NA
ATOM      5  N   UNL     1       0.954  -2.603  -6.135  0.00  0.00    -0.195 N 
ATOM      6  C   UNL     1       2.257  -2.208  -5.986  0.00  0.00    +0.174 C 
ATOM      7  N   UNL     1       3.084  -2.462  -4.984  0.00  0.00    -0.152 NA
ATOM      8  C   UNL     1       4.322  -2.021  -4.962  0.00  0.00    +0.276 C 
ATOM      9  O   UNL     1       5.075  -2.261  -4.032  0.00  0.00    -0.267 OA
ATOM     10  C   UNL     1       4.754  -1.216  -6.129  0.00  0.00    +0.080 C 
ATOM     11  C   UNL     1       5.953  -0.635  -6.388  0.00  0.00    +0.032 C 
ATOM     12  S   UNL     1       3.254  -1.234  -7.103  0.00  0.00    -0.050 S 
ENDROOT
BRANCH   1  16
ATOM     13  C   UNL     1      -0.139  -1.369  -1.430  0.00  0.00    +0.029 A 
ATOM     14  C   UNL     1       0.011  -2.750  -1.458  0.00  0.00    +0.023 A 
ATOM     15  C   UNL     1       0.116  -3.406  -2.669  0.00  0.00    +0.007 A 
ATOM     16  C   UNL     1       0.073  -2.691  -3.851  0.00  0.00    -0.025 A 
ATOM     17  C   UNL     1      -0.076  -1.316  -3.826  0.00  0.00    +0.007 A 
ATOM     18  C   UNL     1      -0.188  -0.654  -2.620  0.00  0.00    +0.023 A 
BRANCH  13  20
ATOM     19  C   UNL     1      -0.411   0.753  -0.179  0.00  0.00    +0.129 C 
ATOM     20  N   UNL     1      -0.247  -0.702  -0.207  0.00  0.00    -0.336 N 
ATOM     21  C   UNL     1      -0.196  -1.458   1.047  0.00  0.00    +0.129 C 
ENDBRANCH  13  20
ENDBRANCH   1  16
BRANCH  11  22
ATOM     22  C   UNL     1       6.200  -0.015  -7.695  0.00  0.00    +0.018 A 
ATOM     23  C   UNL     1       5.389  -0.334  -8.791  0.00  0.00    +0.011 A 
ATOM     24  C   UNL     1       5.627   0.253 -10.014  0.00  0.00    +0.001 A 
ATOM     25  C   UNL     1       6.666   1.157 -10.166  0.00  0.00    +0.004 A 
ATOM     26  C   UNL     1       7.475   1.481  -9.094  0.00  0.00    +0.046 A 
ATOM     27  C   UNL     1       7.248   0.907  -7.854  0.00  0.00    +0.124 A 
BRANCH  27  28
ATOM     28  O   UNL     1       8.039   1.228  -6.799  0.00  0.00    -0.506 OA
ATOM     29  H   UNL     1       8.817   0.661  -6.703  0.00  0.00    +0.292 HD
ENDBRANCH  27  28
ENDBRANCH  11  22
BRANCH   3  30
ATOM     30  C   UNL     1      -2.123  -2.635  -8.139  0.00  0.00    -0.002 A 
ATOM     31  C   UNL     1      -3.381  -3.207  -7.927  0.00  0.00    +0.013 A 
ATOM     32  C   UNL     1      -4.373  -3.055  -8.871  0.00  0.00    +0.046 A 
ATOM     33  C   UNL     1      -4.124  -2.334 -10.033  0.00  0.00    +0.120 A 
ATOM     34  C   UNL     1      -2.876  -1.764 -10.248  0.00  0.00    +0.046 A 
ATOM     35  C   UNL     1      -1.880  -1.907  -9.307  0.00  0.00    +0.013 A 
BRANCH  33  36
ATOM     36  O   UNL     1      -5.105  -2.187 -10.961  0.00  0.00    -0.495 OA
ATOM     37  C   UNL     1      -4.782  -1.434 -12.132  0.00  0.00    +0.277 C 
ENDBRANCH  33  36
ENDBRANCH   3  30
TORSDOF 6
