REMARK  Name = ZINC13495916
REMARK  15 active torsions:
REMARK  status: ('A' for Active; 'I' for Inactive)
REMARK    1  A    between atoms: C_1  and  C_2
REMARK    2  A    between atoms: C_2  and  C_3
REMARK    3  A    between atoms: C_3  and  C_5
REMARK    4  A    between atoms: C_3  and  N_17
REMARK    5  A    between atoms: N_9  and  C_10
REMARK    6  A    between atoms: C_10  and  C_11
REMARK    7  A    between atoms: N_17  and  C_18
REMARK    8  A    between atoms: N_17  and  C_27
REMARK    9  A    between atoms: C_18  and  C_19
REMARK   10  A    between atoms: C_19  and  C_20
REMARK   11  A    between atoms: C_25  and  C_26
REMARK   12  A    between atoms: C_27  and  C_28
REMARK   13  A    between atoms: C_32  and  O_40
REMARK   14  A    between atoms: O_40  and  C_41
REMARK   15  A    between atoms: C_41  and  C_42
REMARK                            x       y       z     vdW  Elec       q    Type
REMARK                         _______ _______ _______ _____ _____    ______ ____
ROOT
ATOM      1  N   UNL     1      -1.088   2.823   2.560  0.00  0.00    -0.288 NA
ENDROOT
BRANCH   1   2
ATOM      2  C   UNL     1      -0.925   1.455   2.050  0.00  0.00    +0.126 C 
BRANCH   2   3
ATOM      3  C   UNL     1       0.530   1.198   1.757  0.00  0.00    +0.168 A 
ATOM      4  N   UNL     1       1.369   2.021   1.176  0.00  0.00    -0.112 NA
ATOM      5  N   UNL     1       2.516   1.438   1.107  0.00  0.00    -0.023 NA
ATOM      6  N   UNL     1       2.431   0.264   1.629  0.00  0.00    -0.044 NA
ATOM      7  N   UNL     1       1.223   0.081   2.046  0.00  0.00    -0.225 N 
BRANCH   7   8
ATOM      8  C   UNL     1       0.704  -1.119   2.707  0.00  0.00    +0.179 C 
BRANCH   8   9
ATOM      9  C   UNL     1       0.167  -2.090   1.654  0.00  0.00    +0.140 C 
ATOM     10  C   UNL     1      -0.486  -3.305   2.346  0.00  0.00    +0.035 C 
ATOM     11  C   UNL     1      -0.043  -4.481   1.434  0.00  0.00    +0.031 C 
ATOM     12  C   UNL     1       1.365  -4.002   0.999  0.00  0.00    +0.160 C 
ATOM     13  O   UNL     1       1.247  -2.578   0.849  0.00  0.00    -0.375 OA
ENDBRANCH   8   9
ENDBRANCH   7   8
ENDBRANCH   2   3
BRANCH   2  15
ATOM     14  C   UNL     1      -3.232   1.393   1.092  0.00  0.00    +0.006 C 
ATOM     15  C   UNL     1      -1.741   1.289   0.766  0.00  0.00    +0.023 C 
ENDBRANCH   2  15
ENDBRANCH   1   2
BRANCH   1  16
ATOM     16  C   UNL     1      -2.269   2.924   3.428  0.00  0.00    +0.090 C 
BRANCH  16  17
ATOM     17  C   UNL     1      -1.956   2.301   4.790  0.00  0.00    +0.051 C 
BRANCH  17  18
ATOM     18  C   UNL     1      -3.187   2.349   5.659  0.00  0.00    -0.043 A 
ATOM     19  C   UNL     1      -3.362   3.391   6.551  0.00  0.00    +0.004 A 
ATOM     20  C   UNL     1      -4.493   3.437   7.345  0.00  0.00    +0.000 A 
ATOM     21  C   UNL     1      -5.443   2.438   7.253  0.00  0.00    +0.000 A 
ATOM     22  C   UNL     1      -5.265   1.394   6.365  0.00  0.00    +0.003 A 
ATOM     23  C   UNL     1      -4.137   1.350   5.568  0.00  0.00    -0.047 A 
ATOM     24  C   UNL     1      -3.942   0.211   4.599  0.00  0.00    +0.044 C 
ENDBRANCH  17  18
ENDBRANCH  16  17
ENDBRANCH   1  16
BRANCH   1  25
ATOM     25  C   UNL     1      -1.160   3.791   1.458  0.00  0.00    +0.125 C 
BRANCH  25  26
ATOM     26  C   UNL     1      -0.900   5.177   1.988  0.00  0.00    +0.031 A 
ATOM     27  C   UNL     1       0.352   5.697   1.934  0.00  0.00    +0.020 A 
ATOM     28  C   UNL     1       0.572   7.046   2.457  0.00  0.00    +0.002 A 
ATOM     29  C   UNL     1       1.842   7.633   2.428  0.00  0.00    +0.055 A 
ATOM     30  C   UNL     1       2.015   8.907   2.930  0.00  0.00    +0.121 A 
ATOM     31  C   UNL     1       0.934   9.606   3.463  0.00  0.00    +0.047 A 
ATOM     32  C   UNL     1      -0.320   9.038   3.498  0.00  0.00    +0.030 A 
ATOM     33  C   UNL     1      -0.517   7.755   2.997  0.00  0.00    +0.049 A 
ATOM     34  N   UNL     1      -1.766   7.169   3.023  0.00  0.00    -0.322 N 
ATOM     35  H   UNL     1      -2.621   7.715   3.449  0.00  0.00    +0.169 HD
ATOM     36  C   UNL     1      -1.960   5.932   2.534  0.00  0.00    +0.254 A 
ATOM     37  O   UNL     1      -3.078   5.448   2.569  0.00  0.00    -0.268 OA
BRANCH  30  38
ATOM     38  O   UNL     1       3.246   9.483   2.905  0.00  0.00    -0.492 OA
BRANCH  38  39
ATOM     39  C   UNL     1       3.356  10.803   3.440  0.00  0.00    +0.225 C 
ATOM     40  C   UNL     1       4.805  11.281   3.325  0.00  0.00    +0.048 C 
ENDBRANCH  38  39
ENDBRANCH  30  38
ENDBRANCH  25  26
ENDBRANCH   1  25
TORSDOF 12
