REMARK  Name = ZINC36681330
REMARK  4 active torsions:
REMARK  status: ('A' for Active; 'I' for Inactive)
REMARK    1  A    between atoms: C_3  and  C_8
REMARK    2  A    between atoms: C_14  and  C_16
REMARK    3  A    between atoms: N_22  and  S_23
REMARK    4  A    between atoms: S_23  and  C_26
REMARK                            x       y       z     vdW  Elec       q    Type
REMARK                         _______ _______ _______ _____ _____    ______ ____
ROOT
ATOM      1  C   UNL     1       3.598   2.876  -0.986  0.00  0.00    +0.250 A 
ATOM      2  N   UNL     1       3.777   3.715   0.005  0.00  0.00    -0.106 NA
ATOM      3  N   UNL     1       5.038   3.874   0.208  0.00  0.00    -0.092 NA
ATOM      4  C   UNL     1       5.712   3.143  -0.646  0.00  0.00    +0.314 A 
ATOM      5  O   UNL     1       4.819   2.492  -1.415  0.00  0.00    -0.405 OA
ATOM      6  N   UNL     1       7.092   3.052  -0.737  0.00  0.00    -0.237 N 
ATOM      7  C   UNL     1       7.871   3.759   0.106  0.00  0.00    +0.239 C 
ATOM      8  O   UNL     1       7.364   4.474   0.944  0.00  0.00    -0.274 OA
ATOM      9  H   UNL     1       7.497   2.480  -1.407  0.00  0.00    +0.159 HD
ENDROOT
BRANCH   1  12
ATOM     10  C   UNL     1      -0.103   2.490  -1.498  0.00  0.00    +0.002 A 
ATOM     11  C   UNL     1       1.107   2.912  -0.986  0.00  0.00    +0.013 A 
ATOM     12  C   UNL     1       2.298   2.429  -1.530  0.00  0.00    +0.040 A 
ATOM     13  C   UNL     1       2.257   1.522  -2.591  0.00  0.00    +0.028 A 
ATOM     14  C   UNL     1       1.040   1.109  -3.094  0.00  0.00    +0.019 A 
ATOM     15  C   UNL     1      -0.137   1.592  -2.549  0.00  0.00    +0.015 A 
ATOM     16 BR   UNL     1       0.981  -0.120  -4.530  0.00  0.00    -0.050 Br
ENDBRANCH   1  12
BRANCH   7  17
ATOM     17  C   UNL     1       9.371   3.660   0.007  0.00  0.00    +0.166 C 
ATOM     18  C   UNL     1       9.933   3.065   1.302  0.00  0.00    +0.030 C 
ATOM     19  C   UNL     1      11.462   3.096   1.252  0.00  0.00    +0.003 C 
ATOM     20  C   UNL     1      11.941   4.545   1.138  0.00  0.00    +0.017 C 
ATOM     21  C   UNL     1      11.402   5.157  -0.159  0.00  0.00    +0.110 C 
ATOM     22  N   UNL     1       9.941   5.000  -0.187  0.00  0.00    -0.164 NA
BRANCH  22  23
ATOM     23  S   UNL     1       8.956   6.309  -0.429  0.00  0.00    +0.068 S 
ATOM     24  O   UNL     1       9.726   7.271  -1.137  0.00  0.00    -0.152 OA
ATOM     25  O   UNL     1       7.724   5.804  -0.926  0.00  0.00    -0.152 OA
BRANCH  23  26
ATOM     26  C   UNL     1       8.614   7.003   1.153  0.00  0.00    +0.143 A 
ATOM     27  C   UNL     1       9.291   7.964   1.829  0.00  0.00    +0.036 A 
ATOM     28  C   UNL     1       8.834   8.358   3.072  0.00  0.00    +0.010 A 
ATOM     29  C   UNL     1       7.722   7.773   3.579  0.00  0.00    +0.047 A 
ATOM     30  S   UNL     1       7.281   6.630   2.281  0.00  0.00    -0.077 S 
ENDBRANCH  23  26
ENDBRANCH  22  23
ENDBRANCH   7  17
TORSDOF 4
