REMARK  Name = ZINC00222887
REMARK  5 active torsions:
REMARK  status: ('A' for Active; 'I' for Inactive)
REMARK    1  A    between atoms: C_1  and  C_2
REMARK    2  A    between atoms: C_7  and  C_8
REMARK    3  A    between atoms: C_11  and  C_19
REMARK    4  A    between atoms: C_22  and  O_25
REMARK    5  A    between atoms: O_25  and  C_26
REMARK                            x       y       z     vdW  Elec       q    Type
REMARK                         _______ _______ _______ _____ _____    ______ ____
ROOT
ATOM      1  C   UNL     1       0.243   0.050   2.492  0.00  0.00    +0.145 C 
ATOM      2  C   UNL     1       1.621  -0.212   3.115  0.00  0.00    +0.059 C 
ATOM      3  C   UNL     1       1.646   0.309   4.556  0.00  0.00    +0.106 C 
ATOM      4  N   UNL     1       0.646  -0.437   5.346  0.00  0.00    -0.305 N 
ATOM      5  C   UNL     1      -0.586  -0.639   4.740  0.00  0.00    +0.236 A 
ATOM      6  N   UNL     1      -0.789  -0.412   3.416  0.00  0.00    -0.206 N 
ATOM      7  N   UNL     1      -2.131  -0.715   3.184  0.00  0.00    -0.042 NA
ATOM      8  N   UNL     1      -2.626  -1.085   4.320  0.00  0.00    -0.021 NA
ATOM      9  N   UNL     1      -1.718  -1.047   5.241  0.00  0.00    -0.092 NA
ATOM     10  H   UNL     1       0.840  -0.766   6.237  0.00  0.00    +0.150 HD
ENDROOT
BRANCH   1  17
ATOM     11  C   UNL     1      -0.389   1.473   0.059  0.00  0.00    +0.044 C 
ATOM     12  C   UNL     1      -0.175  -0.018   0.025  0.00  0.00    -0.045 A 
ATOM     13  C   UNL     1      -0.276  -0.704  -1.171  0.00  0.00    +0.004 A 
ATOM     14  C   UNL     1      -0.080  -2.072  -1.202  0.00  0.00    +0.000 A 
ATOM     15  C   UNL     1       0.217  -2.754  -0.036  0.00  0.00    +0.000 A 
ATOM     16  C   UNL     1       0.319  -2.068   1.159  0.00  0.00    +0.006 A 
ATOM     17  C   UNL     1       0.127  -0.699   1.189  0.00  0.00    -0.020 A 
ENDBRANCH   1  17
BRANCH   3  18
ATOM     18  C   UNL     1       3.017   0.102   5.144  0.00  0.00    -0.027 A 
ATOM     19  C   UNL     1       3.383  -1.143   5.621  0.00  0.00    +0.009 A 
ATOM     20  C   UNL     1       4.640  -1.336   6.162  0.00  0.00    +0.046 A 
ATOM     21  C   UNL     1       5.535  -0.278   6.226  0.00  0.00    +0.120 A 
ATOM     22  C   UNL     1       5.166   0.970   5.747  0.00  0.00    +0.046 A 
ATOM     23  C   UNL     1       3.910   1.156   5.202  0.00  0.00    +0.009 A 
BRANCH  21  24
ATOM     24  O   UNL     1       6.772  -0.465   6.757  0.00  0.00    -0.495 OA
ATOM     25  C   UNL     1       7.641   0.669   6.791  0.00  0.00    +0.277 C 
ENDBRANCH  21  24
ENDBRANCH   3  18
TORSDOF 3
