REMARK  Name = ZINC15866237
REMARK  2 active torsions:
REMARK  status: ('A' for Active; 'I' for Inactive)
REMARK    1  A    between atoms: C_6  and  C_7
REMARK    2  A    between atoms: C_10  and  C_18
REMARK                            x       y       z     vdW  Elec       q    Type
REMARK                         _______ _______ _______ _____ _____    ______ ____
ROOT
ATOM      1  C   UNL     1      -0.074   5.619   0.032  0.00  0.00    +0.106 C 
ATOM      2  C   UNL     1      -0.319   6.122   1.458  0.00  0.00    +0.059 C 
ATOM      3  C   UNL     1      -1.633   5.542   1.996  0.00  0.00    +0.144 C 
ATOM      4  N   UNL     1      -2.680   5.746   0.998  0.00  0.00    -0.206 N 
ATOM      5  C   UNL     1      -2.449   6.009  -0.313  0.00  0.00    +0.236 A 
ATOM      6  N   UNL     1      -3.609   6.134  -0.894  0.00  0.00    -0.092 NA
ATOM      7  N   UNL     1      -4.558   5.965  -0.037  0.00  0.00    -0.021 NA
ATOM      8  N   UNL     1      -4.068   5.725   1.136  0.00  0.00    -0.042 NA
ATOM      9  N   UNL     1      -1.167   6.104  -0.835  0.00  0.00    -0.305 N 
ATOM     10  H   UNL     1      -0.998   6.468  -1.718  0.00  0.00    +0.150 HD
ENDROOT
BRANCH   1  16
ATOM     11  C   UNL     1       1.153   3.438   0.009  0.00  0.00    +0.008 A 
ATOM     12  C   UNL     1       1.173   2.056   0.002  0.00  0.00    +0.038 A 
ATOM     13  C   UNL     1      -0.016   1.347   0.009  0.00  0.00    +0.123 A 
ATOM     14  C   UNL     1      -1.224   2.023   0.019  0.00  0.00    +0.038 A 
ATOM     15  C   UNL     1      -1.242   3.405   0.032  0.00  0.00    +0.008 A 
ATOM     16  C   UNL     1      -0.054   4.112   0.024  0.00  0.00    -0.027 A 
ATOM     17  F   UNL     1       0.002  -0.004   0.002  0.00  0.00    -0.205 F 
ENDBRANCH   1  16
BRANCH   3  18
ATOM     18  C   UNL     1      -2.008   6.242   3.277  0.00  0.00    -0.023 A 
ATOM     19  C   UNL     1      -2.216   7.608   3.282  0.00  0.00    +0.007 A 
ATOM     20  C   UNL     1      -2.565   8.250   4.456  0.00  0.00    +0.015 A 
ATOM     21  C   UNL     1      -2.696   7.525   5.627  0.00  0.00    +0.018 A 
ATOM     22  C   UNL     1      -2.482   6.159   5.622  0.00  0.00    +0.015 A 
ATOM     23  C   UNL     1      -2.139   5.517   4.447  0.00  0.00    +0.007 A 
ATOM     24 BR   UNL     1      -3.165   8.404   7.235  0.00  0.00    -0.050 Br
ENDBRANCH   3  18
TORSDOF 2
