REMARK  Name = ZINC40674240
REMARK  5 active torsions:
REMARK  status: ('A' for Active; 'I' for Inactive)
REMARK    1  A    between atoms: C_1  and  C_2
REMARK    2  A    between atoms: C_2  and  C_3
REMARK    3  A    between atoms: C_2  and  C_4
REMARK    4  A    between atoms: C_2  and  N_7
REMARK    5  A    between atoms: N_7  and  C_8
REMARK                            x       y       z     vdW  Elec       q    Type
REMARK                         _______ _______ _______ _____ _____    ______ ____
ROOT
ATOM      1  C   UNL     1       2.003  -0.096  -1.328  0.00  0.00    +0.175 C 
ATOM      2  C   UNL     1       2.493  -0.189  -2.755  0.00  0.00    +0.014 A 
ATOM      3  C   UNL     1       3.514  -1.131  -2.757  0.00  0.00    +0.040 A 
ATOM      4  C   UNL     1       4.158  -1.424  -3.957  0.00  0.00    +0.024 A 
ATOM      5  C   UNL     1       3.783  -0.784  -5.120  0.00  0.00    +0.003 A 
ATOM      6  C   UNL     1       2.765   0.152  -5.106  0.00  0.00    +0.016 A 
ATOM      7  C   UNL     1       2.119   0.449  -3.917  0.00  0.00    +0.025 A 
ATOM      8 BR   UNL     1       0.727   1.728  -3.890  0.00  0.00    -0.050 Br
ATOM      9  N   UNL     1       3.708  -1.634  -1.470  0.00  0.00    -0.284 N 
ATOM     10  C   UNL     1       2.868  -1.082  -0.574  0.00  0.00    +0.239 C 
ATOM     11  O   UNL     1       2.814  -1.328   0.613  0.00  0.00    -0.273 OA
ATOM     12  H   UNL     1       4.373  -2.304  -1.246  0.00  0.00    +0.155 HD
ENDROOT
BRANCH   1  13
ATOM     13  N   UNL     1       0.588  -0.482  -1.244  0.00  0.00    -0.289 NA
ATOM     14  H   UNL     1       0.493  -1.464  -1.034  0.00  0.00    +0.124 HD
BRANCH  13  16
ATOM     15  C   UNL     1      -0.105   1.802  -0.697  0.00  0.00    +0.037 C 
ATOM     16  C   UNL     1      -0.123   0.338  -0.254  0.00  0.00    +0.091 C 
ATOM     17  C   UNL     1       0.566   0.209   1.106  0.00  0.00    +0.037 C 
BRANCH  16  18
ATOM     18  C   UNL     1      -1.550  -0.135  -0.141  0.00  0.00    +0.230 C 
ATOM     19  O   UNL     1      -2.116  -0.105   0.931  0.00  0.00    -0.274 OA
ATOM     20  N   UNL     1      -2.196  -0.592  -1.232  0.00  0.00    -0.328 N 
ATOM     21  H   UNL     1      -1.743  -0.616  -2.090  0.00  0.00    +0.145 HD
ATOM     22  H   UNL     1      -3.114  -0.897  -1.160  0.00  0.00    +0.145 HD
ENDBRANCH  16  18
ENDBRANCH  13  16
ENDBRANCH   1  13
TORSDOF 3
