REMARK  Name = ZINC03019688
REMARK  4 active torsions:
REMARK  status: ('A' for Active; 'I' for Inactive)
REMARK    1  A    between atoms: C_1  and  C_2
REMARK    2  A    between atoms: C_5  and  C_8
REMARK    3  A    between atoms: C_21  and  N_25
REMARK    4  A    between atoms: C_22  and  C_23
REMARK                            x       y       z     vdW  Elec       q    Type
REMARK                         _______ _______ _______ _____ _____    ______ ____
ROOT
ATOM      1  C   UNL     1      -2.717   2.951   4.762  0.00  0.00    +0.105 C 
ATOM      2  C   UNL     1      -3.377   4.272   4.475  0.00  0.00    +0.089 A 
ATOM      3  C   UNL     1      -2.592   5.442   4.415  0.00  0.00    +0.262 A 
ATOM      4  O   UNL     1      -1.388   5.386   4.594  0.00  0.00    -0.267 OA
ATOM      5  N   UNL     1      -3.185   6.625   4.158  0.00  0.00    -0.275 N 
ATOM      6  H   UNL     1      -2.634   7.458   4.114  0.00  0.00    +0.173 HD
ATOM      7  C   UNL     1      -4.514   6.691   3.961  0.00  0.00    +0.329 A 
ATOM      8  O   UNL     1      -5.033   7.767   3.731  0.00  0.00    -0.247 OA
ATOM      9  N   UNL     1      -5.279   5.586   4.014  0.00  0.00    -0.278 N 
ATOM     10  H   UNL     1      -6.265   5.657   3.865  0.00  0.00    +0.173 HD
ATOM     11  C   UNL     1      -4.715   4.359   4.273  0.00  0.00    +0.214 A 
ATOM     12  O   UNL     1      -5.500   3.266   4.322  0.00  0.00    -0.425 OA
ATOM     13  C   UNL     1      -5.066   2.152   4.937  0.00  0.00    +0.200 C 
ATOM     14  C   UNL     1      -3.750   1.940   5.177  0.00  0.00    +0.098 C 
ENDROOT
BRANCH   1  19
ATOM     15  C   UNL     1      -0.013   1.086   0.008  0.00  0.00    +0.044 C 
ATOM     16  C   UNL     1      -0.718   1.572   1.248  0.00  0.00    -0.050 A 
ATOM     17  C   UNL     1      -2.083   1.789   1.226  0.00  0.00    +0.003 A 
ATOM     18  C   UNL     1      -2.731   2.231   2.365  0.00  0.00    +0.005 A 
ATOM     19  C   UNL     1      -2.012   2.464   3.522  0.00  0.00    -0.034 A 
ATOM     20  C   UNL     1      -0.646   2.251   3.543  0.00  0.00    +0.005 A 
ATOM     21  C   UNL     1       0.001   1.806   2.405  0.00  0.00    +0.003 A 
ENDBRANCH   1  19
BRANCH  13  22
ATOM     22  N   UNL     1      -5.980   1.207   5.331  0.00  0.00    -0.328 N 
ATOM     23  H   UNL     1      -5.680   0.399   5.776  0.00  0.00    +0.145 HD
ATOM     24  H   UNL     1      -6.925   1.347   5.165  0.00  0.00    +0.145 HD
ENDBRANCH  13  22
BRANCH  14  25
ATOM     25  C   UNL     1      -3.337   0.737   5.836  0.00  0.00    +0.101 C 
ATOM     26  N   UNL     1      -3.010  -0.217   6.358  0.00  0.00    -0.191 NA
ENDBRANCH  14  25
TORSDOF 3
