REMARK  Name = ZINC10001138
REMARK  11 active torsions:
REMARK  status: ('A' for Active; 'I' for Inactive)
REMARK    1  A    between atoms: C_1  and  C_2
REMARK    2  A    between atoms: C_2  and  C_3
REMARK    3  A    between atoms: C_2  and  C_4
REMARK    4  A    between atoms: C_4  and  C_6
REMARK    5  A    between atoms: C_4  and  N_22
REMARK    6  A    between atoms: N_8  and  N_9
REMARK    7  A    between atoms: C_10  and  C_11
REMARK    8  A    between atoms: C_14  and  O_18
REMARK    9  A    between atoms: O_18  and  C_19
REMARK   10  A    between atoms: C_19  and  C_20
REMARK   11  A    between atoms: C_23  and  C_25
REMARK                            x       y       z     vdW  Elec       q    Type
REMARK                         _______ _______ _______ _____ _____    ______ ____
ROOT
ATOM      1  C   UNL     1      -3.869   6.184   0.054  0.00  0.00    +0.163 C 
ENDROOT
BRANCH   1   2
ATOM      2  C   UNL     1      -2.555   5.446   0.044  0.00  0.00    +0.253 C 
ATOM      3  O   UNL     1      -1.512   6.065   0.042  0.00  0.00    -0.272 OA
ATOM      4  N   UNL     1      -2.539   4.099   0.036  0.00  0.00    -0.205 N 
ATOM      5  H   UNL     1      -3.373   3.604   0.038  0.00  0.00    +0.177 HD
BRANCH   4   6
ATOM      6  N   UNL     1      -1.318   3.413   0.027  0.00  0.00    -0.188 NA
ATOM      7  C   UNL     1      -1.302   2.115   0.020  0.00  0.00    +0.138 C 
BRANCH   7   8
ATOM      8  C   UNL     1      -0.017   1.393   0.010  0.00  0.00    -0.004 A 
ATOM      9  C   UNL     1       1.186   2.104   0.002  0.00  0.00    +0.013 A 
ATOM     10  C   UNL     1       2.385   1.426  -0.013  0.00  0.00    +0.047 A 
ATOM     11  C   UNL     1       2.400   0.037  -0.021  0.00  0.00    +0.135 A 
ATOM     12  C   UNL     1       1.207  -0.675  -0.013  0.00  0.00    +0.060 A 
ATOM     13  C   UNL     1       0.002  -0.004   0.002  0.00  0.00    +0.028 A 
ATOM     14 BR   UNL     1       1.235  -2.566  -0.024  0.00  0.00    -0.046 Br
BRANCH  11  15
ATOM     15  O   UNL     1       3.585  -0.628  -0.036  0.00  0.00    -0.487 OA
BRANCH  15  16
ATOM     16  C   UNL     1       4.774   0.165  -0.043  0.00  0.00    +0.256 C 
BRANCH  16  17
ATOM     17  C   UNL     1       5.980  -0.738  -0.060  0.00  0.00    +0.006 C 
ATOM     18  C   UNL     1       6.977  -0.484  -0.871  0.00  0.00    +0.007 C 
ENDBRANCH  16  17
ENDBRANCH  15  16
ENDBRANCH  11  15
ENDBRANCH   7   8
ENDBRANCH   4   6
ENDBRANCH   1   2
BRANCH   1  19
ATOM     19  N   UNL     1      -3.619   7.628   0.061  0.00  0.00    -0.300 N 
ATOM     20  C   UNL     1      -4.548   8.475  -0.424  0.00  0.00    +0.245 C 
ATOM     21  O   UNL     1      -5.594   8.042  -0.866  0.00  0.00    -0.270 OA
ATOM     22  H   UNL     1      -2.784   7.973   0.414  0.00  0.00    +0.150 HD
BRANCH  20  23
ATOM     23  C   UNL     1      -4.295   9.929  -0.417  0.00  0.00    +0.040 A 
ATOM     24  C   UNL     1      -3.096  10.430   0.096  0.00  0.00    +0.017 A 
ATOM     25  C   UNL     1      -2.860  11.787   0.097  0.00  0.00    +0.050 A 
ATOM     26  C   UNL     1      -3.816  12.663  -0.401  0.00  0.00    +0.166 A 
ATOM     27  C   UNL     1      -5.018  12.170  -0.910  0.00  0.00    +0.167 A 
ATOM     28  C   UNL     1      -5.258  10.809  -0.918  0.00  0.00    +0.062 A 
ATOM     29  O   UNL     1      -5.777  13.224  -1.331  0.00  0.00    -0.453 OA
ATOM     30  C   UNL     1      -5.204  14.385  -0.702  0.00  0.00    +0.466 C 
ATOM     31  O   UNL     1      -3.824  14.022  -0.505  0.00  0.00    -0.453 OA
ENDBRANCH  20  23
ENDBRANCH   1  19
BRANCH   1  33
ATOM     32  C   UNL     1      -3.915   6.282   2.550  0.00  0.00    +0.009 C 
ATOM     33  C   UNL     1      -4.661   5.798   1.305  0.00  0.00    +0.012 C 
ATOM     34  C   UNL     1      -6.045   6.449   1.254  0.00  0.00    +0.009 C 
ENDBRANCH   1  33
TORSDOF 9
