REMARK  Name = ZINC08995170
REMARK  5 active torsions:
REMARK  status: ('A' for Active; 'I' for Inactive)
REMARK    1  A    between atoms: C_4  and  C_7
REMARK    2  A    between atoms: C_7  and  N_8
REMARK    3  A    between atoms: C_23  and  C_29
REMARK    4  A    between atoms: C_29  and  C_31
REMARK    5  A    between atoms: C_34  and  N_37
REMARK                            x       y       z     vdW  Elec       q    Type
REMARK                         _______ _______ _______ _____ _____    ______ ____
ROOT
ATOM      1  N   UNL     1      -3.982   4.247   1.258  0.00  0.00    -0.237 N 
ATOM      2  C   UNL     1      -2.961   4.594   0.458  0.00  0.00    +0.228 C 
ATOM      3  O   UNL     1      -2.214   5.534   0.626  0.00  0.00    -0.275 OA
ATOM      4  C   UNL     1      -2.903   3.610  -0.691  0.00  0.00    +0.113 C 
ATOM      5  C   UNL     1      -1.486   3.073  -0.877  0.00  0.00    +0.100 C 
ATOM      6  C   UNL     1      -0.447   4.083  -0.468  0.00  0.00    -0.021 A 
ATOM      7  C   UNL     1      -0.647   5.431  -0.656  0.00  0.00    +0.006 A 
ATOM      8  C   UNL     1       0.322   6.337  -0.259  0.00  0.00    +0.000 A 
ATOM      9  C   UNL     1       1.495   5.892   0.325  0.00  0.00    +0.001 A 
ATOM     10  C   UNL     1       1.710   4.543   0.517  0.00  0.00    +0.008 A 
ATOM     11  C   UNL     1       0.739   3.623   0.120  0.00  0.00    -0.019 A 
ATOM     12  C   UNL     1       0.960   2.175   0.316  0.00  0.00    +0.022 C 
ATOM     13  C   UNL     1      -0.092   1.334   0.272  0.00  0.00    +0.054 C 
ATOM     14  C   UNL     1      -2.622   1.555   0.591  0.00  0.00    +0.141 C 
ATOM     15  C   UNL     1      -3.700   2.398  -0.119  0.00  0.00    +0.116 C 
ATOM     16  C   UNL     1      -4.549   3.072   0.947  0.00  0.00    +0.228 C 
ATOM     17  O   UNL     1      -5.565   2.623   1.433  0.00  0.00    -0.275 OA
ATOM     18  N   UNL     1      -1.437   1.757  -0.289  0.00  0.00    -0.384 NA
ATOM     19  H   UNL     1      -1.586   1.117  -1.077  0.00  0.00    +0.127 HD
ENDROOT
BRANCH  14  20
ATOM     20  C   UNL     1      -2.894   0.089   0.372  0.00  0.00    +0.183 C 
ATOM     21  O   UNL     1      -2.320  -0.509  -0.513  0.00  0.00    -0.290 OA
BRANCH  20  22
ATOM     22  C   UNL     1      -3.856  -0.618   1.233  0.00  0.00    +0.019 A 
ATOM     23  C   UNL     1      -4.420   0.031   2.336  0.00  0.00    +0.013 A 
ATOM     24  C   UNL     1      -5.325  -0.636   3.135  0.00  0.00    +0.033 A 
ATOM     25  C   UNL     1      -5.667  -1.947   2.853  0.00  0.00    +0.126 A 
ATOM     26  C   UNL     1      -5.109  -2.598   1.766  0.00  0.00    +0.033 A 
ATOM     27  C   UNL     1      -4.207  -1.943   0.955  0.00  0.00    +0.013 A 
BRANCH  25  28
ATOM     28  N   UNL     1      -6.635  -2.658   3.719  0.00  0.00    +0.056 N 
ATOM     29  O   UNL     1      -6.938  -3.812   3.474  0.00  0.00    -0.126 OA
ATOM     30  O   UNL     1      -7.128  -2.088   4.676  0.00  0.00    -0.126 OA
ENDBRANCH  25  28
ENDBRANCH  20  22
ENDBRANCH  14  20
BRANCH   1  31
ATOM     31  C   UNL     1      -4.437   5.080   2.374  0.00  0.00    +0.151 C 
BRANCH  31  35
ATOM     32  C   UNL     1      -7.449   7.780   1.002  0.00  0.00    +0.000 A 
ATOM     33  C   UNL     1      -7.805   6.534   1.482  0.00  0.00    +0.000 A 
ATOM     34  C   UNL     1      -6.831   5.660   1.927  0.00  0.00    +0.005 A 
ATOM     35  C   UNL     1      -5.500   6.032   1.890  0.00  0.00    -0.030 A 
ATOM     36  C   UNL     1      -5.144   7.280   1.413  0.00  0.00    +0.005 A 
ATOM     37  C   UNL     1      -6.119   8.152   0.965  0.00  0.00    +0.000 A 
ENDBRANCH  31  35
ENDBRANCH   1  31
TORSDOF 5
