REMARK  Name = ZINC19791188
REMARK  6 active torsions:
REMARK  status: ('A' for Active; 'I' for Inactive)
REMARK    1  A    between atoms: C_1  and  C_2
REMARK    2  A    between atoms: C_5  and  C_9
REMARK    3  A    between atoms: C_6  and  C_8
REMARK    4  A    between atoms: C_9  and  N_10
REMARK    5  A    between atoms: N_13  and  N_16
REMARK    6  A    between atoms: C_17  and  C_18
REMARK                            x       y       z     vdW  Elec       q    Type
REMARK                         _______ _______ _______ _____ _____    ______ ____
ROOT
ATOM      1  N   UNL     1       5.822   7.303  -1.113  0.00  0.00    -0.295 NA
ATOM      2  C   UNL     1       4.582   8.059  -0.898  0.00  0.00    +0.105 C 
ATOM      3  C   UNL     1       3.957   7.640   0.436  0.00  0.00    +0.141 C 
ATOM      4  N   UNL     1       3.802   6.178   0.442  0.00  0.00    -0.253 N 
ATOM      5  C   UNL     1       4.973   5.353   0.107  0.00  0.00    +0.141 C 
ATOM      6  C   UNL     1       5.556   5.862  -1.221  0.00  0.00    +0.105 C 
ENDROOT
BRANCH   4   7
ATOM      7  N   UNL     1       2.574   5.586   0.764  0.00  0.00    -0.192 NA
ATOM      8  C   UNL     1       1.536   6.329   0.993  0.00  0.00    +0.139 C 
BRANCH   8   9
ATOM      9  C   UNL     1       0.215   5.707   1.204  0.00  0.00    +0.008 A 
ATOM     10  C   UNL     1      -0.905   6.504   1.451  0.00  0.00    +0.010 A 
ATOM     11  C   UNL     1      -2.137   5.915   1.647  0.00  0.00    +0.001 A 
ATOM     12  C   UNL     1      -2.264   4.538   1.604  0.00  0.00    +0.001 A 
ATOM     13  C   UNL     1      -1.161   3.742   1.355  0.00  0.00    +0.016 A 
ATOM     14  C   UNL     1       0.078   4.317   1.157  0.00  0.00    +0.027 A 
ATOM     15 BR   UNL     1       1.587   3.227   0.824  0.00  0.00    -0.050 Br
ENDBRANCH   8   9
ENDBRANCH   4   7
BRANCH   1  16
ATOM     16  C   UNL     1       6.542   7.795  -2.295  0.00  0.00    +0.120 C 
BRANCH  16  21
ATOM     17  C   UNL     1      11.216   4.523  -3.211  0.00  0.00    +0.044 C 
ATOM     18  C   UNL     1       9.997   5.376  -2.972  0.00  0.00    -0.050 A 
ATOM     19  C   UNL     1       8.905   5.273  -3.814  0.00  0.00    +0.004 A 
ATOM     20  C   UNL     1       7.787   6.056  -3.595  0.00  0.00    +0.005 A 
ATOM     21  C   UNL     1       7.760   6.942  -2.534  0.00  0.00    -0.030 A 
ATOM     22  C   UNL     1       8.854   7.049  -1.695  0.00  0.00    -0.046 A 
ATOM     23  C   UNL     1       9.970   6.262  -1.911  0.00  0.00    +0.007 A 
ATOM     24  C   UNL     1       8.827   8.019  -0.542  0.00  0.00    +0.044 C 
ENDBRANCH  16  21
ENDBRANCH   1  16
TORSDOF 4
