REMARK  Name = ZINC40735284
REMARK  10 active torsions:
REMARK  status: ('A' for Active; 'I' for Inactive)
REMARK    1  A    between atoms: C_1  and  C_2
REMARK    2  A    between atoms: C_7  and  C_9
REMARK    3  A    between atoms: C_7  and  C_10
REMARK    4  A    between atoms: C_14  and  N_31
REMARK    5  A    between atoms: C_15  and  N_19
REMARK    6  A    between atoms: N_19  and  C_20
REMARK    7  A    between atoms: C_23  and  O_28
REMARK    8  A    between atoms: C_25  and  O_26
REMARK    9  A    between atoms: O_26  and  C_27
REMARK   10  A    between atoms: O_28  and  C_29
REMARK                            x       y       z     vdW  Elec       q    Type
REMARK                         _______ _______ _______ _____ _____    ______ ____
ROOT
ATOM      1  C   UNL     1       0.686   0.860   0.037  0.00  0.00    +0.013 C 
ATOM      2  C   UNL     1       0.480  -0.660  -0.046  0.00  0.00    -0.014 C 
ATOM      3  C   UNL     1       0.978  -1.251  -1.394  0.00  0.00    +0.030 C 
ATOM      4  C   UNL     1       0.216  -2.600  -1.381  0.00  0.00    +0.076 C 
ATOM      5  C   UNL     1       0.933  -3.515  -0.390  0.00  0.00    +0.029 C 
ATOM      6  C   UNL     1       1.077  -2.924   1.000  0.00  0.00    -0.033 C 
ATOM      7  C   UNL     1       1.197  -1.414   1.072  0.00  0.00    +0.014 C 
ATOM      8  C   UNL     1       2.371  -3.515   1.614  0.00  0.00    +0.011 C 
ATOM      9  C   UNL     1      -0.081  -3.403   1.890  0.00  0.00    +0.011 C 
ATOM     10  N   UNL     1      -1.125  -2.275  -0.856  0.00  0.00    -0.310 N 
ATOM     11  C   UNL     1      -1.015  -1.051  -0.047  0.00  0.00    +0.113 C 
ATOM     12  C   UNL     1      -2.291  -2.992  -1.092  0.00  0.00    +0.147 A 
ATOM     13  C   UNL     1      -3.509  -2.557  -0.566  0.00  0.00    +0.106 A 
ATOM     14  C   UNL     1      -4.651  -3.315  -0.833  0.00  0.00    +0.149 A 
ATOM     15  N   UNL     1      -4.535  -4.415  -1.574  0.00  0.00    -0.219 NA
ATOM     16  C   UNL     1      -3.366  -4.790  -2.051  0.00  0.00    +0.225 A 
ATOM     17  N   UNL     1      -2.266  -4.101  -1.827  0.00  0.00    -0.219 NA
ENDROOT
BRANCH  13  18
ATOM     18  N   UNL     1      -3.584  -1.390   0.212  0.00  0.00    -0.353 N 
ATOM     19  H   UNL     1      -2.815  -0.803   0.280  0.00  0.00    +0.143 HD
ATOM     20  H   UNL     1      -4.405  -1.171   0.680  0.00  0.00    +0.143 HD
ENDBRANCH  13  18
BRANCH  14  21
ATOM     21  N   UNL     1      -5.888  -2.928  -0.333  0.00  0.00    -0.295 N 
ATOM     22  H   UNL     1      -5.979  -2.083   0.136  0.00  0.00    +0.154 HD
BRANCH  21  23
ATOM     23  C   UNL     1      -7.006  -3.757  -0.507  0.00  0.00    +0.076 A 
ATOM     24  C   UNL     1      -6.835  -5.119  -0.706  0.00  0.00    +0.050 A 
ATOM     25  C   UNL     1      -7.937  -5.937  -0.878  0.00  0.00    +0.084 A 
ATOM     26  C   UNL     1      -9.215  -5.396  -0.851  0.00  0.00    +0.142 A 
ATOM     27  C   UNL     1      -9.390  -4.035  -0.652  0.00  0.00    +0.094 A 
ATOM     28  C   UNL     1      -8.288  -3.215  -0.474  0.00  0.00    +0.145 A 
ATOM     29 CL   UNL     1      -7.721  -7.641  -1.127  0.00  0.00    -0.080 Cl
BRANCH  28  30
ATOM     30  O   UNL     1      -8.458  -1.880  -0.273  0.00  0.00    -0.493 OA
ATOM     31  C   UNL     1      -9.802  -1.394  -0.251  0.00  0.00    +0.277 C 
ENDBRANCH  28  30
BRANCH  26  32
ATOM     32  O   UNL     1     -10.297  -6.203  -1.020  0.00  0.00    -0.494 OA
ATOM     33  C   UNL     1     -11.583  -5.580  -0.981  0.00  0.00    +0.277 C 
ENDBRANCH  26  32
ENDBRANCH  21  23
ENDBRANCH  14  21
TORSDOF 5
