REMARK  Name = ZINC63390269
REMARK  9 active torsions:
REMARK  status: ('A' for Active; 'I' for Inactive)
REMARK    1  A    between atoms: C_1  and  C_2
REMARK    2  A    between atoms: C_2  and  C_3
REMARK    3  A    between atoms: C_2  and  C_4
REMARK    4  A    between atoms: C_7  and  C_10
REMARK    5  A    between atoms: C_16  and  C_17
REMARK    6  A    between atoms: N_19  and  CA_20
REMARK    7  A    between atoms: CA_20  and  CB_22
REMARK    8  A    between atoms: CA_20  and  C_32
REMARK    9  A    between atoms: CB_22  and  CG_23
REMARK                            x       y       z     vdW  Elec       q    Type
REMARK                         _______ _______ _______ _____ _____    ______ ____
ROOT
ATOM      1  C   UNK A   0      -5.984  -2.941  -4.020  0.00  0.00    +0.239 C 
ATOM      2  O   UNK A   0      -5.740  -1.783  -3.733  0.00  0.00    -0.271 OA
ATOM      3  N   TRP A   1      -6.084  -3.308  -5.313  0.00  0.00    -0.298 N 
ATOM      4  H   TRP A   1      -6.279  -4.230  -5.542  0.00  0.00    +0.150 HD
ENDROOT
BRANCH   1  10
ATOM      5  C   UNK A   0      -5.677  -1.868   0.007  0.00  0.00    +0.159 C 
ATOM      6  N   UNK A   0      -6.164  -2.216  -1.341  0.00  0.00    -0.331 N 
ATOM      7  C   UNK A   0      -6.181  -3.515  -1.705  0.00  0.00    +0.020 C 
ATOM      8  C   UNK A   0      -6.220  -4.516  -0.556  0.00  0.00    +0.121 C 
ATOM      9  S   UNK A   0      -5.368  -3.524   0.754  0.00  0.00    -0.128 S 
ATOM     10  C   UNK A   0      -6.164  -3.901  -2.997  0.00  0.00    +0.086 C 
ATOM     11  H   UNK A   0      -6.465  -1.526  -1.953  0.00  0.00    +0.147 HD
BRANCH   5  15
ATOM     12  C   UNK A   0      -2.063   0.397  -0.215  0.00  0.00    -0.045 A 
ATOM     13  C   UNK A   0      -2.907   0.547   0.869  0.00  0.00    +0.004 A 
ATOM     14  C   UNK A   0      -4.077  -0.186   0.941  0.00  0.00    +0.006 A 
ATOM     15  C   UNK A   0      -4.402  -1.068  -0.072  0.00  0.00    -0.017 A 
ATOM     16  C   UNK A   0      -3.559  -1.218  -1.156  0.00  0.00    +0.006 A 
ATOM     17  C   UNK A   0      -2.391  -0.482  -1.230  0.00  0.00    +0.004 A 
BRANCH  12  19
ATOM     18  C   UNK A   0      -1.120   2.690  -0.281  0.00  0.00    +0.012 C 
ATOM     19  C   UNK A   0      -0.787   1.196  -0.293  0.00  0.00    +0.013 C 
ATOM     20  C   UNK A   0       0.099   0.861   0.908  0.00  0.00    +0.012 C 
ENDBRANCH  12  19
ENDBRANCH   5  15
ENDBRANCH   1  10
BRANCH   3  21
ATOM     21  CA  TRP A   1      -5.899  -2.313  -6.373  0.00  0.00    +0.191 C 
BRANCH  21  22
ATOM     22  C   TRP A   1      -7.201  -1.599  -6.625  0.00  0.00    +0.376 C 
ATOM     23  O   TRP A   1      -8.193  -1.893  -5.979  0.00  0.00    -0.244 OA
ATOM     24  OXT TRP A   1      -7.263  -0.727  -7.475  0.00  0.00    -0.244 OA
ENDBRANCH  21  22
BRANCH  21  25
ATOM     25  CB  TRP A   1      -5.444  -3.014  -7.655  0.00  0.00    +0.067 C 
BRANCH  25  26
ATOM     26  CG  TRP A   1      -4.084  -3.625  -7.439  0.00  0.00    -0.039 C 
ATOM     27  CD2 TRP A   1      -3.813  -4.901  -7.082  0.00  0.00    -0.001 A 
ATOM     28  CE3 TRP A   1      -4.671  -6.057  -6.798  0.00  0.00    +0.010 A 
ATOM     29  CZ3 TRP A   1      -4.096  -7.233  -6.457  0.00  0.00    +0.001 A 
ATOM     30  CH2 TRP A   1      -2.704  -7.374  -6.367  0.00  0.00    +0.002 A 
ATOM     31  CZ2 TRP A   1      -1.851  -6.357  -6.614  0.00  0.00    +0.026 A 
ATOM     32  CE2 TRP A   1      -2.347  -5.076  -6.981  0.00  0.00    +0.043 A 
ATOM     33  NE1 TRP A   1      -1.735  -3.952  -7.265  0.00  0.00    -0.380 N 
ATOM     34  CD1 TRP A   1      -2.745  -2.937  -7.584  0.00  0.00    +0.144 C 
ATOM     35  HE1 TRP A   1      -0.774  -3.815  -7.268  0.00  0.00    +0.160 HD
ENDBRANCH  25  26
ENDBRANCH  21  25
ENDBRANCH   3  21
TORSDOF 7
