REMARK  Name = ZINC39665672
REMARK  13 active torsions:
REMARK  status: ('A' for Active; 'I' for Inactive)
REMARK    1  A    between atoms: C_1  and  C_2
REMARK    2  A    between atoms: C_2  and  C_3
REMARK    3  A    between atoms: C_3  and  C_4
REMARK    4  A    between atoms: C_3  and  C_6
REMARK    5  A    between atoms: C_4  and  C_5
REMARK    6  A    between atoms: C_10  and  C_19
REMARK    7  A    between atoms: N_21  and  C_22
REMARK    8  A    between atoms: C_22  and  C_23
REMARK    9  A    between atoms: C_23  and  C_25
REMARK   10  A    between atoms: C_23  and  O_26
REMARK   11  A    between atoms: O_26  and  C_27
REMARK   12  A    between atoms: C_30  and  O_33
REMARK   13  A    between atoms: O_33  and  C_34
REMARK                            x       y       z     vdW  Elec       q    Type
REMARK                         _______ _______ _______ _____ _____    ______ ____
ROOT
ATOM      1  C   UNL     1      -0.836  -2.517   0.518  0.00  0.00    +0.219 C 
ATOM      2  O   UNL     1      -1.376  -3.309  -0.225  0.00  0.00    -0.275 OA
ATOM      3  N   UNL     1      -0.369  -2.925   1.714  0.00  0.00    -0.300 N 
ATOM      4  C   UNL     1       0.308  -2.111   2.751  0.00  0.00    +0.121 C 
ATOM      5  C   UNL     1      -0.255  -2.638   4.090  0.00  0.00    +0.100 C 
ATOM      6  C   UNL     1      -0.727  -4.069   3.781  0.00  0.00    -0.004 C 
ATOM      7  C   UNL     1      -0.422  -4.289   2.293  0.00  0.00    +0.115 C 
ATOM      8  C   UNL     1      -2.227  -4.196   4.031  0.00  0.00    -0.010 C 
ATOM      9  C   UNL     1      -2.662  -5.641   3.772  0.00  0.00    -0.082 C 
ATOM     10  N   UNL     1      -1.919  -6.544   4.660  0.00  0.00    +0.379 N 
ATOM     11  C   UNL     1      -0.486  -6.484   4.351  0.00  0.00    -0.082 C 
ATOM     12  C   UNL     1       0.041  -5.075   4.634  0.00  0.00    -0.010 C 
ATOM     13  H   UNL     1      -2.067  -6.267   5.619  0.00  0.00    -0.086 HD
ATOM     14  H   UNL     1      -2.251  -7.488   4.531  0.00  0.00    -0.086 HD
ENDROOT
BRANCH   5  15
ATOM     15  C   UNL     1      -1.413  -1.787   4.543  0.00  0.00    +0.218 C 
ATOM     16  O   UNL     1      -2.164  -1.299   3.725  0.00  0.00    -0.275 OA
ATOM     17  N   UNL     1      -1.615  -1.569   5.858  0.00  0.00    -0.312 N 
ATOM     18  H   UNL     1      -1.015  -1.960   6.512  0.00  0.00    +0.149 HD
BRANCH  17  19
ATOM     19  C   UNL     1      -2.741  -0.742   6.298  0.00  0.00    +0.148 C 
BRANCH  19  20
ATOM     20  C   UNL     1      -2.743  -0.654   7.826  0.00  0.00    +0.187 C 
ATOM     21  C   UNL     1      -3.918   0.210   8.286  0.00  0.00    +0.053 C 
BRANCH  20  22
ATOM     22  O   UNL     1      -2.870  -1.966   8.378  0.00  0.00    -0.488 OA
BRANCH  22  23
ATOM     23  C   UNL     1      -2.383  -2.157   9.633  0.00  0.00    +0.121 A 
ATOM     24  C   UNL     1      -2.365  -3.431  10.183  0.00  0.00    +0.049 A 
ATOM     25  C   UNL     1      -1.870  -3.625  11.458  0.00  0.00    +0.049 A 
ATOM     26  C   UNL     1      -1.391  -2.547  12.188  0.00  0.00    +0.120 A 
ATOM     27  C   UNL     1      -1.409  -1.274  11.638  0.00  0.00    +0.049 A 
ATOM     28  C   UNL     1      -1.899  -1.081  10.361  0.00  0.00    +0.049 A 
BRANCH  26  29
ATOM     29  O   UNL     1      -0.905  -2.739  13.444  0.00  0.00    -0.495 OA
ATOM     30  C   UNL     1      -0.428  -1.584  14.138  0.00  0.00    +0.277 C 
ENDBRANCH  26  29
ENDBRANCH  22  23
ENDBRANCH  20  22
ENDBRANCH  19  20
ENDBRANCH  17  19
ENDBRANCH   5  15
BRANCH   1  31
ATOM     31  C   UNL     1      -0.686  -1.076   0.103  0.00  0.00    +0.075 C 
BRANCH  31  33
ATOM     32  C   UNL     1       0.945   0.790  -0.217  0.00  0.00    +0.004 C 
ATOM     33  C   UNL     1       0.798  -0.707   0.066  0.00  0.00    +0.009 C 
ENDBRANCH  31  33
BRANCH  31  34
ATOM     34  C   UNL     1      -1.296  -0.879  -1.287  0.00  0.00    +0.009 C 
ATOM     35  C   UNL     1      -2.809  -1.089  -1.214  0.00  0.00    +0.004 C 
ENDBRANCH  31  34
ENDBRANCH   1  31
TORSDOF 9
