REMARK  Name = ZINC36021267
REMARK  11 active torsions:
REMARK  status: ('A' for Active; 'I' for Inactive)
REMARK    1  A    between atoms: C_1  and  C_2
REMARK    2  A    between atoms: C_2  and  O_3
REMARK    3  A    between atoms: O_3  and  C_4
REMARK    4  A    between atoms: C_4  and  C_6
REMARK    5  A    between atoms: C_7  and  C_20
REMARK    6  A    between atoms: C_12  and  C_14
REMARK    7  A    between atoms: C_20  and  N_21
REMARK    8  A    between atoms: N_21  and  C_22
REMARK    9  A    between atoms: N_21  and  C_28
REMARK   10  A    between atoms: C_22  and  C_23
REMARK   11  A    between atoms: C_28  and  C_29
REMARK                            x       y       z     vdW  Elec       q    Type
REMARK                         _______ _______ _______ _____ _____    ______ ____
ROOT
ATOM      1  C   UNL     1      -3.147  -2.769   1.706  0.00  0.00    +0.076 C 
ATOM      2  C   UNL     1      -3.066  -3.650   0.685  0.00  0.00    +0.008 C 
ATOM      3  N   UNL     1      -4.149  -3.917  -0.103  0.00  0.00    -0.274 N 
ATOM      4  C   UNL     1      -5.348  -3.344   0.064  0.00  0.00    +0.304 C 
ATOM      5  O   UNL     1      -6.253  -3.646  -0.689  0.00  0.00    -0.252 OA
ATOM      6  N   UNL     1      -5.584  -2.445   1.040  0.00  0.00    -0.288 N 
ATOM      7  C   UNL     1      -4.481  -2.092   1.950  0.00  0.00    +0.143 C 
ATOM      8  H   UNL     1      -4.044  -4.557  -0.824  0.00  0.00    +0.156 HD
ATOM      9  H   UNL     1      -6.460  -2.042   1.143  0.00  0.00    +0.151 HD
ENDROOT
BRANCH   7  10
ATOM     10  C   UNL     1      -4.913  -2.411   3.357  0.00  0.00    -0.023 A 
ATOM     11  C   UNL     1      -5.492  -3.634   3.642  0.00  0.00    +0.006 A 
ATOM     12  C   UNL     1      -5.889  -3.926   4.934  0.00  0.00    +0.000 A 
ATOM     13  C   UNL     1      -5.706  -2.997   5.941  0.00  0.00    +0.000 A 
ATOM     14  C   UNL     1      -5.125  -1.775   5.656  0.00  0.00    +0.000 A 
ATOM     15  C   UNL     1      -4.725  -1.484   4.365  0.00  0.00    +0.006 A 
ENDBRANCH   7  10
BRANCH   1  16
ATOM     16  C   UNL     1      -2.026  -2.492   2.523  0.00  0.00    +0.339 C 
ATOM     17  O   UNL     1      -1.000  -3.132   2.386  0.00  0.00    -0.245 OA
BRANCH  16  18
ATOM     18  O   UNL     1      -2.094  -1.518   3.454  0.00  0.00    -0.462 OA
BRANCH  18  20
ATOM     19  C   UNL     1      -1.191  -0.159   5.237  0.00  0.00    +0.048 C 
ATOM     20  C   UNL     1      -0.925  -1.292   4.244  0.00  0.00    +0.229 C 
ENDBRANCH  18  20
ENDBRANCH  16  18
ENDBRANCH   1  16
BRANCH   2  21
ATOM     21  C   UNL     1      -1.760  -4.349   0.411  0.00  0.00    -0.026 C 
BRANCH  21  22
ATOM     22  N   UNL     1      -1.665  -5.554   1.246  0.00  0.00    +0.388 N 
ATOM     23  H   UNL     1      -1.758  -5.298   2.218  0.00  0.00    -0.081 HD
BRANCH  22  24
ATOM     24  C   UNL     1      -2.737  -6.489   0.880  0.00  0.00    -0.035 C 
BRANCH  24  25
ATOM     25  C   UNL     1      -2.736  -7.653   1.837  0.00  0.00    -0.027 A 
ATOM     26  C   UNL     1      -3.442  -7.817   2.983  0.00  0.00    +0.009 A 
ATOM     27  C   UNL     1      -3.281  -8.982   3.709  0.00  0.00    +0.008 A 
ATOM     28  C   UNL     1      -2.422  -9.926   3.254  0.00  0.00    +0.045 A 
ATOM     29  S   UNL     1      -1.812  -9.178   1.753  0.00  0.00    -0.103 S 
ENDBRANCH  24  25
ENDBRANCH  22  24
BRANCH  22  30
ATOM     30  C   UNL     1      -0.361  -6.196   1.033  0.00  0.00    -0.046 C 
BRANCH  30  31
ATOM     31  C   UNL     1       0.749  -5.284   1.560  0.00  0.00    +0.102 C 
ATOM     32  C   UNL     1       2.128  -5.910   1.259  0.00  0.00    +0.032 C 
ATOM     33  C   UNL     1       2.927  -5.583   2.551  0.00  0.00    +0.030 C 
ATOM     34  C   UNL     1       1.809  -5.678   3.620  0.00  0.00    +0.160 C 
ATOM     35  O   UNL     1       0.633  -5.150   2.982  0.00  0.00    -0.378 OA
ENDBRANCH  30  31
ENDBRANCH  22  30
ENDBRANCH  21  22
ENDBRANCH   2  21
TORSDOF 10
