REMARK  Name = ZINC62833895
REMARK  6 active torsions:
REMARK  status: ('A' for Active; 'I' for Inactive)
REMARK    1  A    between atoms: C_1  and  C_2
REMARK    2  A    between atoms: C_5  and  C_7
REMARK    3  A    between atoms: C_7  and  C_9
REMARK    4  A    between atoms: C_7  and  N_10
REMARK    5  A    between atoms: C_11  and  C_13
REMARK    6  A    between atoms: C_19  and  N_23
REMARK                            x       y       z     vdW  Elec       q    Type
REMARK                         _______ _______ _______ _____ _____    ______ ____
ROOT
ATOM      1  C   UNL     1       3.724  -5.414   2.291  0.00  0.00    +0.103 A 
ATOM      2  C   UNL     1       4.171  -6.545   2.899  0.00  0.00    +0.041 A 
ATOM      3  C   UNL     1       5.316  -6.202   3.658  0.00  0.00    +0.002 A 
ATOM      4  C   UNL     1       6.183  -6.939   4.479  0.00  0.00    +0.010 A 
ATOM      5  C   UNL     1       7.228  -6.318   5.097  0.00  0.00    +0.002 A 
ATOM      6  C   UNL     1       7.447  -4.958   4.925  0.00  0.00    +0.025 A 
ATOM      7  C   UNL     1       6.608  -4.207   4.122  0.00  0.00    +0.049 A 
ATOM      8  C   UNL     1       5.531  -4.824   3.478  0.00  0.00    +0.068 A 
ATOM      9  N   UNL     1       4.548  -4.361   2.633  0.00  0.00    -0.349 N 
ATOM     10  H   UNL     1       4.450  -3.445   2.330  0.00  0.00    +0.166 HD
ENDROOT
BRANCH   1  12
ATOM     11  N   UNL     1       2.210  -4.147   0.855  0.00  0.00    -0.303 N 
ATOM     12  C   UNL     1       2.553  -5.328   1.406  0.00  0.00    +0.261 C 
ATOM     13  O   UNL     1       1.894  -6.324   1.171  0.00  0.00    -0.269 OA
ATOM     14  H   UNL     1       2.735  -3.354   1.042  0.00  0.00    +0.150 HD
BRANCH  11  15
ATOM     15  C   UNL     1       1.043  -4.062  -0.027  0.00  0.00    +0.107 C 
ATOM     16  C   UNL     1       1.452  -4.441  -1.452  0.00  0.00    +0.033 C 
BRANCH  15  21
ATOM     17  C   UNL     1      -0.018   1.503   0.010  0.00  0.00    +0.051 C 
ATOM     18  C   UNL     1       0.002  -0.004   0.002  0.00  0.00    -0.013 A 
ATOM     19  C   UNL     1      -1.039  -0.872   0.002  0.00  0.00    +0.011 A 
ATOM     20  C   UNL     1      -0.780  -2.230  -0.007  0.00  0.00    +0.013 A 
ATOM     21  C   UNL     1       0.507  -2.653  -0.016  0.00  0.00    +0.010 A 
ATOM     22  S   UNL     1       1.404  -1.109  -0.018  0.00  0.00    -0.097 S 
ENDBRANCH  15  21
ENDBRANCH  11  15
ENDBRANCH   1  12
BRANCH   7  23
ATOM     23  N   UNL     1       6.836  -2.837   3.955  0.00  0.00    -0.356 N 
ATOM     24  H   UNL     1       7.584  -2.412   4.403  0.00  0.00    +0.142 HD
ATOM     25  H   UNL     1       6.246  -2.313   3.391  0.00  0.00    +0.142 HD
ENDBRANCH   7  23
TORSDOF 4
