REMARK  Name = ZINC12417467
REMARK  5 active torsions:
REMARK  status: ('A' for Active; 'I' for Inactive)
REMARK    1  A    between atoms: C_1  and  C_2
REMARK    2  A    between atoms: C_2  and  C_7
REMARK    3  A    between atoms: N_3  and  N_4
REMARK    4  A    between atoms: N_4  and  C_5
REMARK    5  A    between atoms: N_4  and  C_6
REMARK                            x       y       z     vdW  Elec       q    Type
REMARK                         _______ _______ _______ _____ _____    ______ ____
ROOT
ATOM      1  C   UNL     1       0.135   1.256  -2.425  0.00  0.00    -0.002 A 
ATOM      2  C   UNL     1      -0.804   2.024  -3.119  0.00  0.00    +0.011 A 
ATOM      3  C   UNL     1      -0.645   3.391  -3.203  0.00  0.00    +0.020 A 
ATOM      4  C   UNL     1       0.448   4.002  -2.611  0.00  0.00    +0.041 A 
ATOM      5  C   UNL     1       1.386   3.246  -1.928  0.00  0.00    +0.020 A 
ATOM      6  C   UNL     1       1.236   1.878  -1.831  0.00  0.00    +0.011 A 
ATOM      7 CL   UNL     1       0.644   5.723  -2.727  0.00  0.00    -0.084 Cl
ENDROOT
BRANCH   1   9
ATOM      8  C   UNL     1      -0.576  -0.983  -3.497  0.00  0.00    +0.068 C 
ATOM      9  C   UNL     1      -0.032  -0.206  -2.326  0.00  0.00    +0.063 C 
ATOM     10  N   UNL     1       0.290  -0.823  -1.231  0.00  0.00    -0.189 NA
BRANCH  10  11
ATOM     11  N   UNL     1       0.651  -0.089  -0.094  0.00  0.00    -0.261 N 
ATOM     12  C   UNL     1      -0.329   0.785   0.556  0.00  0.00    +0.151 C 
ATOM     13  C   UNL     1       2.009  -0.195   0.445  0.00  0.00    +0.151 C 
ENDBRANCH  10  11
ENDBRANCH   1   9
TORSDOF 2
