REMARK  Name = ZINC43737070
REMARK  9 active torsions:
REMARK  status: ('A' for Active; 'I' for Inactive)
REMARK    1  A    between atoms: C_1  and  C_2
REMARK    2  A    between atoms: C_2  and  C_4
REMARK    3  A    between atoms: C_4  and  O_41
REMARK    4  A    between atoms: C_9  and  C_40
REMARK    5  A    between atoms: N_21  and  O_22
REMARK    6  A    between atoms: O_22  and  C_23
REMARK    7  A    between atoms: C_23  and  C_24
REMARK    8  A    between atoms: N_26  and  C_27
REMARK    9  A    between atoms: C_38  and  C_39
REMARK                            x       y       z     vdW  Elec       q    Type
REMARK                         _______ _______ _______ _____ _____    ______ ____
ROOT
ATOM      1  C   UNL     1      -0.185  -0.882  -1.377  0.00  0.00    +0.129 C 
ATOM      2  C   UNL     1      -1.533  -1.482  -1.850  0.00  0.00    +0.043 C 
ATOM      3  C   UNL     1      -1.311  -3.014  -1.972  0.00  0.00    +0.008 C 
ATOM      4  C   UNL     1       0.204  -3.127  -2.174  0.00  0.00    +0.002 C 
ATOM      5  C   UNL     1       0.735  -2.079  -1.159  0.00  0.00    +0.007 C 
ATOM      6  C   UNL     1       2.205  -1.865  -1.464  0.00  0.00    +0.010 C 
ATOM      7  C   UNL     1       2.926  -3.193  -1.183  0.00  0.00    +0.005 C 
ATOM      8  C   UNL     1       2.342  -4.336  -2.009  0.00  0.00    +0.002 C 
ATOM      9  C   UNL     1       0.820  -4.468  -1.821  0.00  0.00    -0.003 C 
ATOM     10  C   UNL     1       0.261  -5.559  -2.735  0.00  0.00    +0.008 C 
ATOM     11  C   UNL     1       0.865  -6.917  -2.360  0.00  0.00    +0.031 C 
ATOM     12  C   UNL     1       2.377  -6.779  -2.417  0.00  0.00    -0.062 C 
ATOM     13  C   UNL     1       3.069  -7.635  -3.156  0.00  0.00    +0.026 C 
ATOM     14  C   UNL     1       4.535  -7.478  -3.249  0.00  0.00    +0.080 C 
ATOM     15  N   UNL     1       5.316  -8.475  -3.519  0.00  0.00    -0.089 NA
ATOM     16  C   UNL     1       5.069  -6.078  -3.009  0.00  0.00    +0.059 C 
ATOM     17  C   UNL     1       4.501  -5.590  -1.677  0.00  0.00    +0.017 C 
ATOM     18  C   UNL     1       3.001  -5.653  -1.599  0.00  0.00    -0.007 C 
ATOM     19  C   UNL     1       2.636  -5.880  -0.131  0.00  0.00    +0.016 C 
ATOM     20  C   UNL     1       0.569  -2.607   0.267  0.00  0.00    +0.015 C 
ENDROOT
BRANCH   1  22
ATOM     21  C   UNL     1       0.628   0.920   0.327  0.00  0.00    +0.089 C 
ATOM     22  C   UNL     1      -0.374  -0.127  -0.087  0.00  0.00    +0.162 C 
ATOM     23  O   UNL     1      -1.329  -0.360   0.615  0.00  0.00    -0.295 OA
ENDBRANCH   1  22
BRANCH   1  24
ATOM     24  O   UNL     1       0.354  -0.019  -2.381  0.00  0.00    -0.381 OA
ATOM     25  H   UNL     1      -0.199   0.750  -2.577  0.00  0.00    +0.211 HD
ENDBRANCH   1  24
BRANCH  15  26
ATOM     26  O   UNL     1       4.771  -9.764  -3.735  0.00  0.00    -0.384 OA
BRANCH  26  27
ATOM     27  C   UNL     1       5.747 -10.767  -4.023  0.00  0.00    +0.358 C 
BRANCH  27  28
ATOM     28  C   UNL     1       5.059 -12.091  -4.235  0.00  0.00    +0.254 C 
ATOM     29  O   UNL     1       3.852 -12.168  -4.148  0.00  0.00    -0.272 OA
ATOM     30  N   UNL     1       5.786 -13.190  -4.521  0.00  0.00    -0.301 N 
ATOM     31  H   UNL     1       6.751 -13.128  -4.591  0.00  0.00    +0.150 HD
BRANCH  30  32
ATOM     32  C   UNL     1       5.117 -14.477  -4.727  0.00  0.00    +0.159 C 
ATOM     33  C   UNL     1       5.994 -15.378  -5.600  0.00  0.00    +0.032 C 
ATOM     34  C   UNL     1       5.150 -16.413  -6.321  0.00  0.00    +0.004 C 
ATOM     35  C   UNL     1       4.508 -17.433  -5.397  0.00  0.00    +0.019 C 
ATOM     36  C   UNL     1       3.457 -16.773  -4.502  0.00  0.00    +0.104 C 
ATOM     37  N   UNL     1       4.126 -16.238  -3.305  0.00  0.00    -0.314 N 
ATOM     38  C   UNL     1       4.902 -15.158  -3.391  0.00  0.00    +0.233 C 
ATOM     39  O   UNL     1       5.441 -14.721  -2.396  0.00  0.00    -0.274 OA
ATOM     40  H   UNL     1       3.999 -16.673  -2.447  0.00  0.00    +0.149 HD
ENDBRANCH  30  32
ENDBRANCH  27  28
ENDBRANCH  26  27
ENDBRANCH  15  26
TORSDOF 6
