REMARK  Name = ZINC32217035
REMARK  7 active torsions:
REMARK  status: ('A' for Active; 'I' for Inactive)
REMARK    1  A    between atoms: C_4  and  C_7
REMARK    2  A    between atoms: C_7  and  C_9
REMARK    3  A    between atoms: C_7  and  N_27
REMARK    4  A    between atoms: C_9  and  N_10
REMARK    5  A    between atoms: C_11  and  C_13
REMARK    6  A    between atoms: C_16  and  N_22
REMARK    7  A    between atoms: C_17  and  N_19
REMARK                            x       y       z     vdW  Elec       q    Type
REMARK                         _______ _______ _______ _____ _____    ______ ____
ROOT
ATOM      1  N   UNL     1       3.605   3.183   0.142  0.00  0.00    -0.313 N 
ATOM      2  C   UNL     1       2.365   3.562  -0.228  0.00  0.00    +0.244 C 
ATOM      3  O   UNL     1       2.184   4.665  -0.706  0.00  0.00    -0.270 OA
ATOM      4  H   UNL     1       3.769   2.185   0.574  0.00  0.00    +0.149 HD
ENDROOT
BRANCH   2   5
ATOM      5  C   UNL     1       1.229   2.638  -0.054  0.00  0.00    +0.039 A 
ATOM      6  C   UNL     1       1.435   1.369   0.496  0.00  0.00    +0.015 A 
ATOM      7  C   UNL     1       0.373   0.510   0.657  0.00  0.00    +0.026 A 
ATOM      8  C   UNL     1      -0.905   0.900   0.269  0.00  0.00    +0.060 A 
ATOM      9  C   UNL     1      -1.115   2.165  -0.273  0.00  0.00    +0.148 A 
ATOM     10  C   UNL     1      -0.057   3.029  -0.437  0.00  0.00    +0.047 A 
BRANCH   8  11
ATOM     11  N   UNL     1      -1.976   0.027   0.428  0.00  0.00    -0.328 N 
ATOM     12  C   UNL     1      -1.676  -1.297  -0.174  0.00  0.00    +0.105 C 
ATOM     13  C   UNL     1      -2.681  -2.243   0.531  0.00  0.00    +0.020 C 
ATOM     14  C   UNL     1      -2.722  -1.690   1.974  0.00  0.00    +0.020 C 
ATOM     15  C   UNL     1      -2.240  -0.232   1.860  0.00  0.00    +0.105 C 
ENDBRANCH   8  11
BRANCH   9  16
ATOM     16  N   UNL     1      -2.478   2.578  -0.679  0.00  0.00    +0.058 N 
ATOM     17  O   UNL     1      -2.647   3.641  -1.250  0.00  0.00    -0.126 OA
ATOM     18  O   UNL     1      -3.429   1.856  -0.443  0.00  0.00    -0.126 OA
ENDBRANCH   9  16
ENDBRANCH   2   5
BRANCH   1  19
ATOM     19  C   UNL     1       4.734   4.101  -0.032  0.00  0.00    +0.094 C 
BRANCH  19  20
ATOM     20  C   UNL     1       6.038   3.374   0.303  0.00  0.00    -0.020 C 
BRANCH  20  24
ATOM     21  C   UNL     1       9.304   6.115   0.040  0.00  0.00    +0.000 A 
ATOM     22  C   UNL     1       8.854   5.693   1.277  0.00  0.00    +0.000 A 
ATOM     23  C   UNL     1       7.797   4.806   1.362  0.00  0.00    +0.002 A 
ATOM     24  C   UNL     1       7.190   4.341   0.210  0.00  0.00    -0.059 A 
ATOM     25  C   UNL     1       7.643   4.760  -1.027  0.00  0.00    +0.002 A 
ATOM     26  C   UNL     1       8.697   5.650  -1.112  0.00  0.00    +0.000 A 
ENDBRANCH  20  24
BRANCH  20  27
ATOM     27  N   UNL     1       6.244   2.274  -0.648  0.00  0.00    +0.385 N 
ATOM     28  C   UNL     1       7.616   1.718  -0.529  0.00  0.00    -0.078 C 
ATOM     29  C   UNL     1       7.486   0.313  -1.167  0.00  0.00    -0.020 C 
ATOM     30  C   UNL     1       6.084  -0.148  -0.706  0.00  0.00    -0.020 C 
ATOM     31  C   UNL     1       5.327   1.149  -0.363  0.00  0.00    -0.078 C 
ATOM     32  H   UNL     1       6.060   2.702  -1.644  0.00  0.00    -0.081 HD
ENDBRANCH  20  27
ENDBRANCH  19  20
ENDBRANCH   1  19
TORSDOF 7
