REMARK  Name = ZINC59294010
REMARK  7 active torsions:
REMARK  status: ('A' for Active; 'I' for Inactive)
REMARK    1  A    between atoms: C_1  and  C_2
REMARK    2  A    between atoms: C_2  and  C_34
REMARK    3  A    between atoms: C_6  and  C_22
REMARK    4  A    between atoms: C_8  and  C_20
REMARK    5  A    between atoms: C_9  and  N_19
REMARK    6  A    between atoms: N_10  and  C_11
REMARK    7  A    between atoms: C_25  and  N_28
REMARK                            x       y       z     vdW  Elec       q    Type
REMARK                         _______ _______ _______ _____ _____    ______ ____
ROOT
ATOM      1  C   UNL     1      -0.019   1.526   0.010  0.00  0.00    +0.011 C 
ATOM      2  C   UNL     1       0.002  -0.004   0.002  0.00  0.00    -0.023 C 
ATOM      3  C   UNL     1       0.741  -0.502  -1.243  0.00  0.00    +0.058 C 
ATOM      4  C   UNL     1       2.167  -0.011  -1.215  0.00  0.00    +0.025 C 
ATOM      5  C   UNL     1       2.812   0.187  -0.045  0.00  0.00    +0.025 C 
ATOM      6  C   UNL     1       4.237   0.677  -0.019  0.00  0.00    +0.097 C 
ATOM      7  C   UNL     1       4.902   0.483  -1.350  0.00  0.00    +0.077 C 
ATOM      8  C   UNL     1       4.172   0.272  -2.475  0.00  0.00    +0.107 C 
ATOM      9  N   UNL     1       2.798   0.225  -2.408  0.00  0.00    -0.259 N 
ATOM     10  C   UNL     1       2.172  -0.053   1.184  0.00  0.00    +0.162 C 
ATOM     11  O   UNL     1       2.787   0.118   2.219  0.00  0.00    -0.292 OA
ATOM     12  C   UNL     1       0.743  -0.516   1.242  0.00  0.00    +0.086 C 
ATOM     13  C   UNL     1      -1.432  -0.538   0.002  0.00  0.00    +0.011 C 
ENDROOT
BRANCH   9  14
ATOM     14  C   UNL     1       2.038   0.421  -3.568  0.00  0.00    +0.058 A 
ATOM     15  C   UNL     1       1.636   1.700  -3.929  0.00  0.00    +0.027 A 
ATOM     16  C   UNL     1       0.887   1.890  -5.074  0.00  0.00    +0.022 A 
ATOM     17  C   UNL     1       0.537   0.808  -5.861  0.00  0.00    +0.042 A 
ATOM     18  C   UNL     1       0.935  -0.469  -5.505  0.00  0.00    +0.042 A 
ATOM     19  C   UNL     1       1.690  -0.664  -4.364  0.00  0.00    +0.064 A 
ATOM     20 CL   UNL     1       2.197  -2.264  -3.921  0.00  0.00    -0.082 Cl
ATOM     21 CL   UNL     1      -0.405   1.051  -7.299  0.00  0.00    -0.083 Cl
ENDBRANCH   9  14
BRANCH   6  22
ATOM     22  C   UNL     1       4.249   2.144   0.328  0.00  0.00    -0.035 A 
ATOM     23  C   UNL     1       3.589   3.050  -0.479  0.00  0.00    +0.007 A 
ATOM     24  C   UNL     1       3.599   4.396  -0.161  0.00  0.00    +0.033 A 
ATOM     25  C   UNL     1       4.270   4.834   0.966  0.00  0.00    +0.126 A 
ATOM     26  C   UNL     1       4.930   3.927   1.774  0.00  0.00    +0.033 A 
ATOM     27  C   UNL     1       4.916   2.581   1.458  0.00  0.00    +0.007 A 
BRANCH  25  28
ATOM     28  N   UNL     1       4.283   6.274   1.306  0.00  0.00    +0.056 N 
ATOM     29  O   UNL     1       3.706   7.067   0.599  0.00  0.00    -0.126 OA
ATOM     30  O   UNL     1       4.870   6.657   2.291  0.00  0.00    -0.126 OA
ENDBRANCH  25  28
ENDBRANCH   6  22
BRANCH   8  31
ATOM     31  N   UNL     1       4.806   0.105  -3.683  0.00  0.00    -0.345 N 
ATOM     32  H   UNL     1       5.774   0.138  -3.732  0.00  0.00    +0.144 HD
ATOM     33  H   UNL     1       4.285  -0.045  -4.488  0.00  0.00    +0.144 HD
ENDBRANCH   8  31
BRANCH   7  34
ATOM     34  C   UNL     1       6.331   0.520  -1.435  0.00  0.00    +0.099 C 
ATOM     35  N   UNL     1       7.465   0.550  -1.502  0.00  0.00    -0.191 NA
ENDBRANCH   7  34
TORSDOF 5
