REMARK  Name = ZINC16545274
REMARK  8 active torsions:
REMARK  status: ('A' for Active; 'I' for Inactive)
REMARK    1  A    between atoms: C_1  and  C_2
REMARK    2  A    between atoms: C_5  and  C_9
REMARK    3  A    between atoms: C_9  and  O_11
REMARK    4  A    between atoms: O_11  and  C_12
REMARK    5  A    between atoms: C_12  and  C_13
REMARK    6  A    between atoms: C_19  and  S_26
REMARK    7  A    between atoms: C_23  and  C_25
REMARK    8  A    between atoms: S_26  and  N_29
REMARK                            x       y       z     vdW  Elec       q    Type
REMARK                         _______ _______ _______ _____ _____    ______ ____
ROOT
ATOM      1  C   UNL     1      -2.869   3.010  -1.337  0.00  0.00    +0.258 C 
ATOM      2  O   UNL     1      -2.836   2.987  -2.549  0.00  0.00    -0.271 OA
ATOM      3  N   UNL     1      -1.920   2.372  -0.624  0.00  0.00    -0.265 N 
ATOM      4  C   UNL     1      -1.859   2.331   0.772  0.00  0.00    +0.040 A 
ATOM      5  C   UNL     1      -2.714   2.907   1.713  0.00  0.00    +0.026 A 
ATOM      6  C   UNL     1      -2.474   2.746   3.061  0.00  0.00    +0.030 A 
ATOM      7  C   UNL     1      -1.384   2.011   3.491  0.00  0.00    +0.105 A 
ATOM      8  C   UNL     1      -0.533   1.438   2.566  0.00  0.00    +0.034 A 
ATOM      9  C   UNL     1      -0.767   1.596   1.215  0.00  0.00    -0.022 A 
ATOM     10  C   UNL     1      -0.013   1.086   0.008  0.00  0.00    +0.059 C 
ATOM     11  C   UNL     1      -0.803   1.618  -1.199  0.00  0.00    +0.083 C 
ATOM     12  C   UNL     1      -1.326   0.456  -2.045  0.00  0.00    +0.029 C 
ENDROOT
BRANCH   7  13
ATOM     13  S   UNL     1      -1.081   1.807   5.215  0.00  0.00    +0.056 S 
ATOM     14  O   UNL     1       0.306   1.536   5.354  0.00  0.00    -0.153 OA
ATOM     15  O   UNL     1      -1.714   2.898   5.870  0.00  0.00    -0.153 OA
BRANCH  13  16
ATOM     16  N   UNL     1      -1.882   0.439   5.694  0.00  0.00    -0.204 NA
ATOM     17  H   UNL     1      -1.536  -0.093   6.428  0.00  0.00    +0.144 HD
ATOM     18  H   UNL     1      -2.696   0.170   5.242  0.00  0.00    +0.144 HD
ENDBRANCH  13  16
ENDBRANCH   7  13
BRANCH   1  19
ATOM     19  C   UNL     1      -3.971   3.754  -0.628  0.00  0.00    +0.328 C 
BRANCH  19  20
ATOM     20  O   UNL     1      -4.860   4.352  -1.609  0.00  0.00    -0.452 OA
BRANCH  20  21
ATOM     21  C   UNL     1      -5.906   5.057  -1.136  0.00  0.00    +0.340 C 
ATOM     22  O   UNL     1      -6.071   5.170   0.062  0.00  0.00    -0.245 OA
BRANCH  21  27
ATOM     23  C   UNL     1      -9.591   7.535  -4.798  0.00  0.00    +0.047 C 
ATOM     24  C   UNL     1      -8.626   6.887  -3.838  0.00  0.00    -0.015 A 
ATOM     25  C   UNL     1      -7.552   6.163  -4.325  0.00  0.00    +0.007 A 
ATOM     26  C   UNL     1      -6.662   5.571  -3.453  0.00  0.00    +0.015 A 
ATOM     27  C   UNL     1      -6.852   5.694  -2.075  0.00  0.00    +0.062 A 
ATOM     28  C   UNL     1      -7.937   6.426  -1.588  0.00  0.00    +0.053 A 
ATOM     29  C   UNL     1      -8.818   7.018  -2.473  0.00  0.00    +0.127 A 
ATOM     30  F   UNL     1      -9.869   7.727  -2.005  0.00  0.00    -0.205 F 
ENDBRANCH  21  27
ENDBRANCH  20  21
ENDBRANCH  19  20
ENDBRANCH   1  19
TORSDOF 6
