REMARK  Name = ZINC08856483
REMARK  8 active torsions:
REMARK  status: ('A' for Active; 'I' for Inactive)
REMARK    1  A    between atoms: C_1  and  O_2
REMARK    2  A    between atoms: O_2  and  C_3
REMARK    3  A    between atoms: C_14  and  C_27
REMARK    4  A    between atoms: N_16  and  C_19
REMARK    5  A    between atoms: C_19  and  C_20
REMARK    6  A    between atoms: C_20  and  C_21
REMARK    7  A    between atoms: C_21  and  N_60
REMARK    8  A    between atoms: C_31  and  N_33
REMARK                            x       y       z     vdW  Elec       q    Type
REMARK                         _______ _______ _______ _____ _____    ______ ____
ROOT
ATOM      1  C   UNL     1       3.921  -1.293   5.934  0.00  0.00    +0.124 A 
ATOM      2  C   UNL     1       3.863   0.087   6.120  0.00  0.00    +0.046 A 
ATOM      3  C   UNL     1       3.580   0.912   5.069  0.00  0.00    +0.019 A 
ATOM      4  C   UNL     1       3.349   0.367   3.805  0.00  0.00    +0.065 A 
ATOM      5  C   UNL     1       3.406  -1.025   3.605  0.00  0.00    +0.143 A 
ATOM      6  C   UNL     1       3.694  -1.848   4.687  0.00  0.00    +0.092 A 
ATOM      7  O   UNL     1       3.184  -1.548   2.386  0.00  0.00    -0.449 OA
ATOM      8  C   UNL     1       2.900  -0.809   1.296  0.00  0.00    +0.199 A 
ATOM      9  C   UNL     1       2.819   0.542   1.365  0.00  0.00    +0.072 A 
ATOM     10  C   UNL     1       3.043   1.223   2.644  0.00  0.00    +0.199 A 
ATOM     11  O   UNL     1       2.977   2.436   2.743  0.00  0.00    -0.287 OA
ATOM     12  C   UNL     1       2.490   1.048  -0.016  0.00  0.00    +0.145 C 
ATOM     13  N   UNL     1       2.394  -0.142  -0.870  0.00  0.00    -0.284 N 
ATOM     14  C   UNL     1       2.632  -1.222  -0.104  0.00  0.00    +0.283 C 
ATOM     15  O   UNL     1       2.630  -2.370  -0.502  0.00  0.00    -0.267 OA
ENDROOT
BRANCH  12  16
ATOM     16  C   UNL     1       1.175   1.783   0.000  0.00  0.00    -0.020 A 
ATOM     17  C   UNL     1      -0.013   1.076   0.008  0.00  0.00    +0.006 A 
ATOM     18  C   UNL     1      -1.219   1.750   0.017  0.00  0.00    +0.003 A 
ATOM     19  C   UNL     1      -1.238   3.133   0.029  0.00  0.00    +0.033 A 
ATOM     20  C   UNL     1      -0.050   3.840   0.023  0.00  0.00    +0.127 A 
ATOM     21  C   UNL     1       1.157   3.165   0.008  0.00  0.00    +0.038 A 
BRANCH  20  22
ATOM     22  N   UNL     1      -0.070   5.320   0.032  0.00  0.00    +0.056 N 
ATOM     23  O   UNL     1       0.976   5.944   0.026  0.00  0.00    -0.126 OA
ATOM     24  O   UNL     1      -1.133   5.915   0.044  0.00  0.00    -0.126 OA
ENDBRANCH  20  22
ENDBRANCH  12  16
BRANCH   1  26
ATOM     25  C   UNL     1       4.427  -1.468   8.249  0.00  0.00    +0.277 C 
ATOM     26  O   UNL     1       4.203  -2.101   6.988  0.00  0.00    -0.495 OA
ENDBRANCH   1  26
BRANCH  13  27
ATOM     27  C   UNL     1       2.090  -0.153  -2.303  0.00  0.00    +0.107 C 
BRANCH  27  28
ATOM     28  C   UNL     1       3.391  -0.056  -3.101  0.00  0.00    +0.000 C 
BRANCH  28  29
ATOM     29  C   UNL     1       3.074  -0.066  -4.598  0.00  0.00    -0.077 C 
BRANCH  29  35
ATOM     30  C   UNL     1       4.971   1.331  -5.160  0.00  0.00    -0.050 C 
ATOM     31  C   UNL     1       6.296   1.362  -5.926  0.00  0.00    +0.141 C 
ATOM     32  O   UNL     1       6.047   1.092  -7.309  0.00  0.00    -0.383 OA
ATOM     33  C   UNL     1       5.418  -0.171  -7.544  0.00  0.00    +0.141 C 
ATOM     34  C   UNL     1       4.084  -0.218  -6.794  0.00  0.00    -0.050 C 
ATOM     35  N   UNL     1       4.341   0.008  -5.356  0.00  0.00    +0.383 N 
ATOM     36  H   UNL     1       4.979  -0.720  -5.012  0.00  0.00    -0.082 HD
ENDBRANCH  29  35
ENDBRANCH  28  29
ENDBRANCH  27  28
ENDBRANCH  13  27
TORSDOF 7
