REMARK  Name = ZINC48301588
REMARK  8 active torsions:
REMARK  status: ('A' for Active; 'I' for Inactive)
REMARK    1  A    between atoms: C_4  and  N_7
REMARK    2  A    between atoms: C_8  and  C_12
REMARK    3  A    between atoms: C_12  and  C_13
REMARK    4  A    between atoms: C_13  and  C_14
REMARK    5  A    between atoms: C_14  and  N_15
REMARK    6  A    between atoms: C_18  and  N_21
REMARK    7  A    between atoms: N_21  and  S_22
REMARK    8  A    between atoms: S_22  and  C_25
REMARK                            x       y       z     vdW  Elec       q    Type
REMARK                         _______ _______ _______ _____ _____    ______ ____
ROOT
ATOM      1  N   UNL     1       0.721  -5.487   0.970  0.00  0.00    +0.380 N 
ATOM      2  C   UNL     1       1.724  -6.502   0.627  0.00  0.00    -0.077 C 
ATOM      3  C   UNL     1       1.075  -7.605  -0.212  0.00  0.00    +0.002 C 
ATOM      4  C   UNL     1      -0.055  -8.253   0.593  0.00  0.00    +0.073 C 
ATOM      5  C   UNL     1      -1.058  -7.173   1.008  0.00  0.00    +0.002 C 
ATOM      6  C   UNL     1      -0.330  -6.087   1.802  0.00  0.00    -0.077 C 
ATOM      7  H   UNL     1       0.310  -5.124   0.122  0.00  0.00    -0.082 HD
ENDROOT
BRANCH   4   8
ATOM      8  N   UNL     1      -0.730  -9.258  -0.233  0.00  0.00    -0.187 NA
ATOM      9  H   UNL     1      -0.834  -9.112  -1.186  0.00  0.00    +0.148 HD
BRANCH   8  10
ATOM     10  S   UNL     1      -1.317 -10.642   0.462  0.00  0.00    +0.065 S 
ATOM     11  O   UNL     1      -1.931 -11.390  -0.579  0.00  0.00    -0.153 OA
ATOM     12  O   UNL     1      -0.269 -11.169   1.263  0.00  0.00    -0.153 OA
BRANCH  10  13
ATOM     13  C   UNL     1      -2.604 -10.165   1.566  0.00  0.00    +0.142 A 
ATOM     14  C   UNL     1      -3.931 -10.033   1.324  0.00  0.00    +0.036 A 
ATOM     15  C   UNL     1      -4.765  -9.643   2.355  0.00  0.00    +0.010 A 
ATOM     16  C   UNL     1      -4.231  -9.404   3.578  0.00  0.00    +0.047 A 
ATOM     17  S   UNL     1      -2.501  -9.739   3.297  0.00  0.00    -0.077 S 
ENDBRANCH  10  13
ENDBRANCH   8  10
ENDBRANCH   4   8
BRANCH   1  18
ATOM     18  C   UNL     1       1.365  -4.394   1.709  0.00  0.00    -0.078 C 
BRANCH  18  19
ATOM     19  C   UNL     1       2.373  -3.688   0.799  0.00  0.00    -0.011 C 
BRANCH  19  20
ATOM     20  C   UNL     1       3.044  -2.548   1.569  0.00  0.00    +0.076 C 
BRANCH  20  22
ATOM     21  N   UNL     1       3.628  -0.652  -0.034  0.00  0.00    -0.197 N 
ATOM     22  C   UNL     1       3.946  -1.778   0.640  0.00  0.00    +0.157 A 
ATOM     23  N   UNL     1       5.183  -2.076   0.338  0.00  0.00    -0.113 NA
ATOM     24  N   UNL     1       5.669  -1.215  -0.482  0.00  0.00    -0.023 NA
ATOM     25  N   UNL     1       4.784  -0.319  -0.763  0.00  0.00    -0.039 NA
BRANCH  21  29
ATOM     26  C   UNL     1      -0.006   1.391   0.019  0.00  0.00    +0.000 A 
ATOM     27  C   UNL     1       0.541   0.925   1.200  0.00  0.00    +0.002 A 
ATOM     28  C   UNL     1       1.745   0.248   1.186  0.00  0.00    +0.028 A 
ATOM     29  C   UNL     1       2.406   0.035  -0.016  0.00  0.00    +0.069 A 
ATOM     30  C   UNL     1       1.854   0.504  -1.201  0.00  0.00    +0.028 A 
ATOM     31  C   UNL     1       0.650   1.180  -1.180  0.00  0.00    +0.002 A 
ENDBRANCH  21  29
ENDBRANCH  20  22
ENDBRANCH  19  20
ENDBRANCH  18  19
ENDBRANCH   1  18
TORSDOF 8
