REMARK  Name = ZINC09861083
REMARK  8 active torsions:
REMARK  status: ('A' for Active; 'I' for Inactive)
REMARK    1  A    between atoms: C_1  and  C_2
REMARK    2  A    between atoms: C_2  and  O_3
REMARK    3  A    between atoms: O_3  and  C_4
REMARK    4  A    between atoms: C_6  and  C_11
REMARK    5  A    between atoms: C_9  and  O_10
REMARK    6  A    between atoms: C_15  and  C_25
REMARK    7  A    between atoms: C_20  and  N_24
REMARK    8  A    between atoms: C_21  and  C_22
REMARK                            x       y       z     vdW  Elec       q    Type
REMARK                         _______ _______ _______ _____ _____    ______ ____
ROOT
ATOM      1  C   UNL     1      -0.217  -4.963  -0.535  0.00  0.00    +0.082 C 
ATOM      2  C   UNL     1       0.893  -5.832  -1.140  0.00  0.00    +0.140 C 
ATOM      3  C   UNL     1       2.198  -5.072  -1.198  0.00  0.00    +0.084 C 
ATOM      4  N   UNL     1       3.023  -5.707  -0.409  0.00  0.00    -0.150 NA
ATOM      5  N   UNL     1       2.420  -6.799   0.217  0.00  0.00    -0.115 NA
ATOM      6  C   UNL     1       1.170  -6.927  -0.114  0.00  0.00    +0.227 C 
ATOM      7  O   UNL     1       0.186  -7.740   0.326  0.00  0.00    -0.425 OA
ATOM      8  C   UNL     1      -1.012  -7.126   0.497  0.00  0.00    +0.200 C 
ATOM      9  C   UNL     1      -1.246  -5.853   0.108  0.00  0.00    +0.095 C 
ENDROOT
BRANCH   3  10
ATOM     10  C   UNL     1       2.483  -3.863  -1.986  0.00  0.00    -0.001 A 
ATOM     11  C   UNL     1       1.473  -3.297  -2.789  0.00  0.00    +0.010 A 
ATOM     12  C   UNL     1       1.712  -2.182  -3.524  0.00  0.00    +0.009 A 
ATOM     13  C   UNL     1       2.982  -1.575  -3.491  0.00  0.00    -0.018 A 
ATOM     14  C   UNL     1       3.251  -0.420  -4.244  0.00  0.00    +0.008 A 
ATOM     15  C   UNL     1       4.489   0.146  -4.192  0.00  0.00    +0.001 A 
ATOM     16  C   UNL     1       5.497  -0.403  -3.403  0.00  0.00    +0.001 A 
ATOM     17  C   UNL     1       5.274  -1.522  -2.660  0.00  0.00    +0.008 A 
ATOM     18  C   UNL     1       4.008  -2.134  -2.687  0.00  0.00    -0.017 A 
ATOM     19  C   UNL     1       3.743  -3.284  -1.929  0.00  0.00    +0.018 A 
ENDBRANCH   3  10
BRANCH   1  22
ATOM     20  C   UNL     1       0.802  -1.825   1.306  0.00  0.00    +0.162 A 
ATOM     21  C   UNL     1       0.261  -2.673   0.353  0.00  0.00    +0.053 A 
ATOM     22  C   UNL     1       0.372  -4.043   0.502  0.00  0.00    -0.034 A 
ATOM     23  C   UNL     1       1.024  -4.570   1.602  0.00  0.00    +0.008 A 
ATOM     24  C   UNL     1       1.566  -3.730   2.557  0.00  0.00    +0.049 A 
ATOM     25  C   UNL     1       1.462  -2.356   2.410  0.00  0.00    +0.158 A 
BRANCH  25  26
ATOM     26  O   UNL     1       2.000  -1.528   3.345  0.00  0.00    -0.503 OA
ATOM     27  H   UNL     1       1.395  -1.301   4.064  0.00  0.00    +0.292 HD
ENDBRANCH  25  26
BRANCH  20  28
ATOM     28  O   UNL     1       0.693  -0.477   1.160  0.00  0.00    -0.489 OA
BRANCH  28  30
ATOM     29  C   UNL     1      -0.019   1.526   0.010  0.00  0.00    +0.048 C 
ATOM     30  C   UNL     1       0.002  -0.004   0.002  0.00  0.00    +0.226 C 
ENDBRANCH  28  30
ENDBRANCH  20  28
ENDBRANCH   1  22
BRANCH   8  31
ATOM     31  N   UNL     1      -2.032  -7.827   1.091  0.00  0.00    -0.328 N 
ATOM     32  H   UNL     1      -1.888  -8.743   1.378  0.00  0.00    +0.145 HD
ATOM     33  H   UNL     1      -2.897  -7.408   1.223  0.00  0.00    +0.145 HD
ENDBRANCH   8  31
BRANCH   9  34
ATOM     34  C   UNL     1      -2.556  -5.316   0.322  0.00  0.00    +0.100 C 
ATOM     35  N   UNL     1      -3.595  -4.889   0.491  0.00  0.00    -0.191 NA
ENDBRANCH   9  34
TORSDOF 7
