REMARK  Name = ZINC64986809
REMARK  7 active torsions:
REMARK  status: ('A' for Active; 'I' for Inactive)
REMARK    1  A    between atoms: C_1  and  C_2
REMARK    2  A    between atoms: C_13  and  S_25
REMARK    3  A    between atoms: C_14  and  O_18
REMARK    4  A    between atoms: O_18  and  C_19
REMARK    5  A    between atoms: S_25  and  N_28
REMARK    6  A    between atoms: N_28  and  C_29
REMARK    7  A    between atoms: N_28  and  C_30
REMARK                            x       y       z     vdW  Elec       q    Type
REMARK                         _______ _______ _______ _____ _____    ______ ____
ROOT
ATOM      1  C   UNL     1      -2.338  -0.184   0.509  0.00  0.00    +0.044 C 
ATOM      2  C   UNL     1      -1.844  -1.607   0.475  0.00  0.00    -0.048 A 
ATOM      3  C   UNL     1      -1.736  -2.272  -0.732  0.00  0.00    +0.007 A 
ATOM      4  C   UNL     1      -1.271  -3.573  -0.765  0.00  0.00    +0.048 A 
ATOM      5  C   UNL     1      -0.917  -4.219   0.412  0.00  0.00    +0.150 A 
ATOM      6  C   UNL     1      -1.045  -3.560   1.628  0.00  0.00    +0.077 A 
ATOM      7  C   UNL     1      -1.494  -2.243   1.650  0.00  0.00    +0.030 A 
ATOM      8  N   UNL     1      -0.763  -4.196   2.836  0.00  0.00    -0.278 N 
ATOM      9  C   UNL     1       0.239  -5.033   3.066  0.00  0.00    +0.252 C 
ATOM     10  O   UNL     1       0.348  -5.484   4.190  0.00  0.00    -0.270 OA
ATOM     11  C   UNL     1       1.226  -5.457   2.067  0.00  0.00    +0.081 A 
ATOM     12  C   UNL     1       2.565  -5.620   2.439  0.00  0.00    +0.049 A 
ATOM     13  C   UNL     1       3.490  -6.049   1.517  0.00  0.00    +0.148 A 
ATOM     14  C   UNL     1       3.100  -6.326   0.210  0.00  0.00    +0.158 A 
ATOM     15  C   UNL     1       1.778  -6.156  -0.173  0.00  0.00    +0.095 A 
ATOM     16  C   UNL     1       0.841  -5.708   0.743  0.00  0.00    +0.144 A 
ATOM     17  O   UNL     1      -0.433  -5.484   0.346  0.00  0.00    -0.453 OA
ATOM     18  H   UNL     1      -1.356  -4.008   3.580  0.00  0.00    +0.155 HD
ENDROOT
BRANCH  13  19
ATOM     19  S   UNL     1       5.176  -6.248   1.991  0.00  0.00    +0.064 S 
ATOM     20  O   UNL     1       5.956  -5.585   1.005  0.00  0.00    -0.153 OA
ATOM     21  O   UNL     1       5.252  -5.919   3.371  0.00  0.00    -0.153 OA
BRANCH  19  22
ATOM     22  N   UNL     1       5.531  -7.861   1.869  0.00  0.00    -0.176 NA
ATOM     23  C   UNL     1       6.047  -8.405   0.610  0.00  0.00    +0.132 C 
BRANCH  22  24
ATOM     24  C   UNL     1       5.330  -8.744   3.020  0.00  0.00    +0.080 C 
ATOM     25  C   UNL     1       6.663  -9.383   3.413  0.00  0.00    +0.020 C 
ATOM     26  C   UNL     1       6.453 -10.306   4.615  0.00  0.00    +0.002 C 
ATOM     27  C   UNL     1       5.451 -11.402   4.247  0.00  0.00    +0.000 C 
ATOM     28  C   UNL     1       4.117 -10.763   3.855  0.00  0.00    +0.002 C 
ATOM     29  C   UNL     1       4.328  -9.841   2.652  0.00  0.00    +0.020 C 
ENDBRANCH  22  24
ENDBRANCH  19  22
ENDBRANCH  13  19
BRANCH  14  30
ATOM     30  O   UNL     1       4.015  -6.763  -0.691  0.00  0.00    -0.452 OA
BRANCH  30  31
ATOM     31  C   UNL     1       3.600  -6.982  -1.967  0.00  0.00    +0.147 A 
ATOM     32  C   UNL     1       3.654  -5.962  -2.912  0.00  0.00    +0.049 A 
ATOM     33  C   UNL     1       3.220  -6.233  -4.199  0.00  0.00    +0.023 A 
ATOM     34  C   UNL     1       2.751  -7.498  -4.501  0.00  0.00    +0.111 A 
ATOM     35  N   UNL     1       2.713  -8.443  -3.582  0.00  0.00    -0.260 NA
ATOM     36  C   UNL     1       3.122  -8.228  -2.347  0.00  0.00    +0.156 A 
ENDBRANCH  30  31
ENDBRANCH  14  30
TORSDOF 5
