REMARK  Name = ZINC09152290
REMARK  4 active torsions:
REMARK  status: ('A' for Active; 'I' for Inactive)
REMARK    1  A    between atoms: C_1  and  C_2
REMARK    2  A    between atoms: C_6  and  N_8
REMARK    3  A    between atoms: C_9  and  C_11
REMARK    4  A    between atoms: C_12  and  C_23
REMARK                            x       y       z     vdW  Elec       q    Type
REMARK                         _______ _______ _______ _____ _____    ______ ____
ROOT
ATOM      1  C   UNL     1      -0.130   1.828   2.426  0.00  0.00    +0.067 C 
ATOM      2  C   UNL     1      -0.719   1.567   1.250  0.00  0.00    +0.045 C 
ATOM      3  C   UNL     1      -2.161   1.833   1.360  0.00  0.00    +0.336 C 
ATOM      4  O   UNL     1      -2.965   1.698   0.460  0.00  0.00    -0.245 OA
ATOM      5  O   UNL     1      -2.458   2.243   2.604  0.00  0.00    -0.450 OA
ATOM      6  C   UNL     1      -1.219   2.287   3.378  0.00  0.00    +0.144 C 
ATOM      7  C   UNL     1      -0.939   3.771   3.720  0.00  0.00    +0.053 C 
ATOM      8  C   UNL     1      -2.210   4.417   4.193  0.00  0.00    +0.004 C 
ATOM      9  C   UNL     1      -2.358   4.394   5.728  0.00  0.00    +0.000 C 
ATOM     10  C   UNL     1      -1.935   3.049   6.348  0.00  0.00    +0.000 C 
ATOM     11  C   UNL     1      -2.414   1.876   5.535  0.00  0.00    +0.004 C 
ATOM     12  C   UNL     1      -1.285   1.458   4.577  0.00  0.00    +0.053 C 
ATOM     13  C   UNL     1      -0.014   1.082   0.009  0.00  0.00    +0.052 C 
ENDROOT
BRANCH   1  15
ATOM     14  N   UNL     1       1.760   1.994   3.969  0.00  0.00    -0.266 N 
ATOM     15  C   UNL     1       1.306   1.694   2.736  0.00  0.00    +0.250 C 
ATOM     16  O   UNL     1       2.080   1.314   1.880  0.00  0.00    -0.270 OA
ATOM     17  H   UNL     1       1.157   2.368   4.630  0.00  0.00    +0.157 HD
BRANCH  14  23
ATOM     18  C   UNL     1       6.127   0.661   2.524  0.00  0.00    +0.065 C 
ATOM     19  C   UNL     1       5.209   1.128   3.625  0.00  0.00    +0.040 A 
ATOM     20  C   UNL     1       5.710   1.312   4.898  0.00  0.00    +0.023 A 
ATOM     21  C   UNL     1       4.861   1.742   5.908  0.00  0.00    +0.005 A 
ATOM     22  C   UNL     1       3.533   1.978   5.597  0.00  0.00    +0.044 A 
ATOM     23  C   UNL     1       3.095   1.766   4.295  0.00  0.00    +0.125 A 
ATOM     24  N   UNL     1       3.937   1.355   3.359  0.00  0.00    -0.237 NA
ENDBRANCH  14  23
ENDBRANCH   1  15
TORSDOF 2
