REMARK  Name = ZINC23201972
REMARK  9 active torsions:
REMARK  status: ('A' for Active; 'I' for Inactive)
REMARK    1  A    between atoms: C_1  and  C_2
REMARK    2  A    between atoms: C_3  and  C_30
REMARK    3  A    between atoms: C_11  and  C_13
REMARK    4  A    between atoms: C_13  and  C_15
REMARK    5  A    between atoms: C_13  and  S_16
REMARK    6  A    between atoms: S_16  and  C_17
REMARK    7  A    between atoms: C_20  and  C_25
REMARK    8  A    between atoms: N_21  and  C_22
REMARK    9  A    between atoms: C_22  and  C_23
REMARK                            x       y       z     vdW  Elec       q    Type
REMARK                         _______ _______ _______ _____ _____    ______ ____
ROOT
ATOM      1  C   UNL     1       0.090  -3.432   4.547  0.00  0.00    +0.117 C 
ATOM      2  C   UNL     1       1.535  -3.832   4.850  0.00  0.00    +0.027 C 
ENDROOT
BRANCH   1  13
ATOM      3  C   UNL     1      -0.018   1.503   0.010  0.00  0.00    +0.045 C 
ATOM      4  C   UNL     1       0.002  -0.004   0.002  0.00  0.00    -0.026 A 
ATOM      5  C   UNL     1       0.006  -0.677  -1.160  0.00  0.00    -0.008 A 
ATOM      6  S   UNL     1       0.032  -2.385  -0.648  0.00  0.00    -0.073 S 
ATOM      7  C   UNL     1       0.037  -2.144   1.110  0.00  0.00    +0.116 A 
ATOM      8  C   UNL     1       0.024  -0.745   1.250  0.00  0.00    +0.075 A 
ATOM      9  C   UNL     1       0.029  -0.257   2.597  0.00  0.00    +0.260 A 
ATOM     10  O   UNL     1       0.014   0.942   2.821  0.00  0.00    -0.267 OA
ATOM     11  N   UNL     1       0.051  -1.142   3.611  0.00  0.00    -0.309 N 
ATOM     12  H   UNL     1       0.054  -0.817   4.525  0.00  0.00    +0.170 HD
ATOM     13  C   UNL     1       0.067  -2.480   3.380  0.00  0.00    +0.124 A 
ATOM     14  N   UNL     1       0.053  -2.956   2.163  0.00  0.00    -0.225 NA
ATOM     15  C   UNL     1      -0.009  -0.122  -2.561  0.00  0.00    +0.052 C 
ENDBRANCH   1  13
BRANCH   1  16
ATOM     16  S   UNL     1      -0.875  -4.913   4.139  0.00  0.00    -0.075 S 
BRANCH  16  17
ATOM     17  C   UNL     1      -0.876  -5.847   5.633  0.00  0.00    +0.193 A 
ATOM     18  N   UNL     1      -0.301  -5.506   6.765  0.00  0.00    -0.122 NA
ATOM     19  N   UNL     1      -0.497  -6.415   7.652  0.00  0.00    -0.125 NA
ATOM     20  C   UNL     1      -1.210  -7.395   7.140  0.00  0.00    +0.201 A 
ATOM     21  N   UNL     1      -1.479  -7.057   5.832  0.00  0.00    -0.296 N 
BRANCH  20  22
ATOM     22  C   UNL     1      -1.643  -8.617   7.835  0.00  0.00    +0.172 A 
ATOM     23  C   UNL     1      -1.638  -8.816   9.183  0.00  0.00    +0.053 A 
ATOM     24  C   UNL     1      -2.132 -10.116   9.403  0.00  0.00    +0.042 A 
ATOM     25  C   UNL     1      -2.412 -10.643   8.195  0.00  0.00    +0.196 A 
ATOM     26  O   UNL     1      -2.120  -9.733   7.250  0.00  0.00    -0.460 OA
ENDBRANCH  20  22
BRANCH  21  27
ATOM     27  C   UNL     1      -2.249  -7.833   4.857  0.00  0.00    +0.152 C 
BRANCH  27  28
ATOM     28  C   UNL     1      -1.324  -8.761   4.112  0.00  0.00    -0.013 C 
ATOM     29  C   UNL     1      -1.571 -10.047   4.081  0.00  0.00    +0.005 C 
ENDBRANCH  27  28
ENDBRANCH  21  27
ENDBRANCH  16  17
ENDBRANCH   1  16
TORSDOF 6
