REMARK  Name = ZINC03051776
REMARK  8 active torsions:
REMARK  status: ('A' for Active; 'I' for Inactive)
REMARK    1  A    between atoms: C_1  and  C_2
REMARK    2  A    between atoms: C_3  and  C_29
REMARK    3  A    between atoms: C_4  and  C_28
REMARK    4  A    between atoms: C_17  and  C_27
REMARK    5  A    between atoms: C_20  and  O_23
REMARK    6  A    between atoms: O_23  and  C_24
REMARK    7  A    between atoms: C_24  and  C_26
REMARK    8  A    between atoms: C_29  and  C_31
REMARK                            x       y       z     vdW  Elec       q    Type
REMARK                         _______ _______ _______ _____ _____    ______ ____
ROOT
ATOM      1  C   UNL     1      -0.416   1.795   1.312  0.00  0.00    +0.039 C 
ATOM      2  C   UNL     1      -0.293   0.309   1.094  0.00  0.00    -0.065 C 
ATOM      3  C   UNL     1      -0.267  -0.291  -0.100  0.00  0.00    -0.000 C 
ATOM      4  C   UNL     1      -0.119  -1.801   0.083  0.00  0.00    -0.000 C 
ATOM      5  C   UNL     1       1.384  -2.091   0.037  0.00  0.00    +0.012 C 
ATOM      6  C   UNL     1       1.683  -3.472   0.610  0.00  0.00    +0.005 C 
ATOM      7  C   UNL     1       1.287  -3.486   2.092  0.00  0.00    +0.003 C 
ATOM      8  C   UNL     1      -0.225  -3.273   2.189  0.00  0.00    +0.001 C 
ATOM      9  C   UNL     1      -0.675  -2.012   1.502  0.00  0.00    +0.007 C 
ATOM     10  C   UNL     1      -0.173  -0.728   2.200  0.00  0.00    +0.035 C 
ATOM     11  C   UNL     1      -0.606  -3.208   3.675  0.00  0.00    +0.031 C 
ATOM     12  C   UNL     1      -0.076  -4.415   4.390  0.00  0.00    -0.027 C 
ATOM     13  C   UNL     1       0.910  -5.132   3.953  0.00  0.00    -0.064 C 
ATOM     14  C   UNL     1       1.679  -4.834   2.686  0.00  0.00    -0.008 C 
ATOM     15  C   UNL     1       1.437  -5.965   1.690  0.00  0.00    +0.015 C 
ATOM     16  C   UNL     1       1.165  -7.270   2.437  0.00  0.00    +0.046 C 
ATOM     17  C   UNL     1       1.973  -7.342   3.731  0.00  0.00    +0.180 C 
ATOM     18  C   UNL     1       1.357  -6.356   4.736  0.00  0.00    +0.075 C 
ATOM     19  C   UNL     1       3.176  -4.802   3.001  0.00  0.00    +0.016 C 
ATOM     20  C   UNL     1      -0.901  -2.594  -0.967  0.00  0.00    +0.016 C 
ENDROOT
BRANCH   3  21
ATOM     21  C   UNL     1      -0.367   0.394  -1.389  0.00  0.00    +0.157 C 
ATOM     22  O   UNL     1      -1.394   0.963  -1.695  0.00  0.00    -0.293 OA
ATOM     23  C   UNL     1       0.806   0.394  -2.335  0.00  0.00    +0.091 C 
ENDBRANCH   3  21
BRANCH  17  24
ATOM     24  O   UNL     1       3.337  -7.016   3.459  0.00  0.00    -0.461 OA
BRANCH  24  25
ATOM     25  C   UNL     1       4.268  -7.590   4.239  0.00  0.00    +0.304 C 
ATOM     26  O   UNL     1       3.934  -8.343   5.123  0.00  0.00    -0.251 OA
ATOM     27  C   UNL     1       5.728  -7.294   4.011  0.00  0.00    +0.136 C 
ENDBRANCH  24  25
ENDBRANCH  17  24
TORSDOF 3
