REMARK  Name = ZINC57992207
REMARK  8 active torsions:
REMARK  status: ('A' for Active; 'I' for Inactive)
REMARK    1  A    between atoms: C_1  and  C_2
REMARK    2  A    between atoms: C_2  and  N_3
REMARK    3  A    between atoms: N_3  and  C_4
REMARK    4  A    between atoms: N_3  and  C_6
REMARK    5  A    between atoms: C_4  and  C_5
REMARK    6  A    between atoms: C_9  and  N_13
REMARK    7  A    between atoms: C_10  and  C_12
REMARK    8  A    between atoms: C_14  and  C_16
REMARK                            x       y       z     vdW  Elec       q    Type
REMARK                         _______ _______ _______ _____ _____    ______ ____
ROOT
ATOM      1  C   UNL     1      -3.813  -1.473   7.431  0.00  0.00    +0.111 C 
ATOM      2  C   UNL     1      -5.069  -0.584   7.641  0.00  0.00    +0.034 C 
ATOM      3  C   UNL     1      -5.095  -0.435   9.181  0.00  0.00    +0.059 C 
ATOM      4  C   UNL     1      -5.778   0.891   9.550  0.00  0.00    +0.020 C 
ATOM      5  C   UNL     1      -4.670   1.751  10.198  0.00  0.00    +0.017 C 
ATOM      6  C   UNL     1      -3.372   1.133   9.624  0.00  0.00    +0.086 C 
ATOM      7  N   UNL     1      -3.666  -0.340   9.578  0.00  0.00    -0.282 NA
ATOM      8  C   UNL     1      -2.859  -0.992   8.535  0.00  0.00    +0.137 C 
ATOM      9  C   UNL     1      -2.061  -2.140   9.092  0.00  0.00    +0.004 A 
ATOM     10  C   UNL     1      -2.408  -3.310   9.729  0.00  0.00    +0.008 A 
ATOM     11  C   UNL     1      -1.425  -4.194  10.137  0.00  0.00    +0.000 A 
ATOM     12  C   UNL     1      -0.094  -3.899   9.902  0.00  0.00    +0.002 A 
ATOM     13  C   UNL     1       0.258  -2.728   9.263  0.00  0.00    +0.023 A 
ATOM     14  C   UNL     1      -0.727  -1.833   8.849  0.00  0.00    +0.039 A 
ATOM     15  N   UNL     1      -0.625  -0.604   8.195  0.00  0.00    -0.283 N 
ATOM     16  C   UNL     1      -1.829  -0.045   7.973  0.00  0.00    +0.243 C 
ATOM     17  O   UNL     1      -2.045   1.016   7.427  0.00  0.00    -0.273 OA
ATOM     18  H   UNL     1       0.216  -0.199   7.931  0.00  0.00    +0.155 HD
ENDROOT
BRANCH   1  20
ATOM     19  N   UNL     1      -2.523  -2.221   5.457  0.00  0.00    -0.285 N 
ATOM     20  C   UNL     1      -3.214  -1.238   6.068  0.00  0.00    +0.223 C 
ATOM     21  O   UNL     1      -3.354  -0.165   5.521  0.00  0.00    -0.275 OA
ATOM     22  H   UNL     1      -2.462  -3.098   5.867  0.00  0.00    +0.155 HD
BRANCH  19  26
ATOM     23  C   UNL     1      -0.647  -1.490   1.805  0.00  0.00    +0.030 A 
ATOM     24  C   UNL     1      -1.854  -0.870   2.102  0.00  0.00    +0.025 A 
ATOM     25  C   UNL     1      -2.474  -1.112   3.311  0.00  0.00    +0.025 A 
ATOM     26  C   UNL     1      -1.893  -1.975   4.230  0.00  0.00    +0.036 A 
ATOM     27  C   UNL     1      -0.686  -2.594   3.933  0.00  0.00    -0.028 A 
ATOM     28  C   UNL     1      -0.068  -2.357   2.721  0.00  0.00    +0.028 A 
ATOM     29  C   UNL     1      -0.054  -3.530   4.931  0.00  0.00    +0.046 C 
BRANCH  23  30
ATOM     30  N   UNL     1      -0.017  -1.245   0.580  0.00  0.00    -0.330 N 
BRANCH  30  32
ATOM     31  C   UNL     1      -1.559  -1.114  -1.314  0.00  0.00    +0.024 C 
ATOM     32  C   UNL     1      -0.628  -0.329  -0.388  0.00  0.00    +0.102 C 
ENDBRANCH  30  32
BRANCH  30  33
ATOM     33  C   UNL     1       1.253  -1.903   0.264  0.00  0.00    +0.102 C 
ATOM     34  C   UNL     1       2.413  -1.029   0.744  0.00  0.00    +0.024 C 
ENDBRANCH  30  33
ENDBRANCH  23  30
ENDBRANCH  19  26
ENDBRANCH   1  20
TORSDOF 5
