REMARK  Name = ZINC39657098
REMARK  10 active torsions:
REMARK  status: ('A' for Active; 'I' for Inactive)
REMARK    1  A    between atoms: C_1  and  C_2
REMARK    2  A    between atoms: C_4  and  C_11
REMARK    3  A    between atoms: N_5  and  C_7
REMARK    4  A    between atoms: C_7  and  C_8
REMARK    5  A    between atoms: C_7  and  C_9
REMARK    6  A    between atoms: C_7  and  C_10
REMARK    7  A    between atoms: C_15  and  C_24
REMARK    8  A    between atoms: N_26  and  C_27
REMARK    9  A    between atoms: C_27  and  C_29
REMARK   10  A    between atoms: C_27  and  C_30
REMARK                            x       y       z     vdW  Elec       q    Type
REMARK                         _______ _______ _______ _____ _____    ______ ____
ROOT
ATOM      1  C   UNL     1      -0.565  -3.704  -1.497  0.00  0.00    +0.265 C 
ATOM      2  O   UNL     1      -0.782  -3.751  -2.692  0.00  0.00    -0.268 OA
ATOM      3  N   UNL     1      -0.485  -4.843  -0.780  0.00  0.00    -0.295 N 
ATOM      4  C   UNL     1      -0.362  -4.985   0.690  0.00  0.00    +0.121 C 
ATOM      5  C   UNL     1      -1.262  -6.191   1.042  0.00  0.00    +0.100 C 
ATOM      6  C   UNL     1      -1.347  -7.009  -0.258  0.00  0.00    -0.004 C 
ATOM      7  C   UNL     1      -0.508  -6.237  -1.285  0.00  0.00    +0.115 C 
ATOM      8  C   UNL     1      -2.795  -7.100  -0.730  0.00  0.00    -0.010 C 
ATOM      9  C   UNL     1      -2.862  -7.966  -1.992  0.00  0.00    -0.082 C 
ATOM     10  N   UNL     1      -2.337  -9.305  -1.696  0.00  0.00    +0.379 N 
ATOM     11  C   UNL     1      -0.918  -9.218  -1.332  0.00  0.00    -0.082 C 
ATOM     12  C   UNL     1      -0.769  -8.405  -0.043  0.00  0.00    -0.010 C 
ATOM     13  H   UNL     1      -2.856  -9.707  -0.930  0.00  0.00    -0.086 HD
ATOM     14  H   UNL     1      -2.438  -9.892  -2.511  0.00  0.00    -0.086 HD
ENDROOT
BRANCH   1  18
ATOM     15  C   UNL     1       0.400  -0.050   1.885  0.00  0.00    +0.067 C 
ATOM     16  C   UNL     1       0.028  -0.797   0.631  0.00  0.00    +0.061 A 
ATOM     17  C   UNL     1       0.012  -2.185   0.475  0.00  0.00    +0.057 A 
ATOM     18  C   UNL     1      -0.389  -2.403  -0.832  0.00  0.00    +0.124 A 
ATOM     19  N   UNL     1      -0.588  -1.168  -1.381  0.00  0.00    -0.254 N 
ATOM     20  N   UNL     1      -0.342  -0.262  -0.504  0.00  0.00    -0.175 NA
BRANCH  19  21
ATOM     21  C   UNL     1      -1.022  -0.916  -2.757  0.00  0.00    +0.056 C 
ATOM     22  C   UNL     1      -2.327  -1.668  -3.027  0.00  0.00    +0.036 C 
ATOM     23  C   UNL     1      -1.248   0.585  -2.954  0.00  0.00    +0.036 C 
ATOM     24  C   UNL     1       0.056  -1.401  -3.728  0.00  0.00    +0.036 C 
ENDBRANCH  19  21
ENDBRANCH   1  18
BRANCH   5  25
ATOM     25  C   UNL     1      -2.631  -5.720   1.459  0.00  0.00    +0.219 C 
ATOM     26  O   UNL     1      -3.092  -4.702   0.987  0.00  0.00    -0.275 OA
ATOM     27  N   UNL     1      -3.343  -6.430   2.357  0.00  0.00    -0.308 N 
ATOM     28  H   UNL     1      -2.945  -7.199   2.793  0.00  0.00    +0.149 HD
BRANCH  27  29
ATOM     29  C   UNL     1      -4.719  -6.039   2.675  0.00  0.00    +0.100 C 
ATOM     30  C   UNL     1      -4.705  -4.959   3.759  0.00  0.00    +0.033 C 
BRANCH  29  31
ATOM     31  C   UNL     1      -5.480  -7.240   3.172  0.00  0.00    -0.027 A 
ATOM     32  C   UNL     1      -4.868  -8.143   4.022  0.00  0.00    +0.006 A 
ATOM     33  C   UNL     1      -5.566  -9.245   4.479  0.00  0.00    +0.015 A 
ATOM     34  C   UNL     1      -6.878  -9.444   4.086  0.00  0.00    +0.018 A 
ATOM     35  C   UNL     1      -7.489  -8.541   3.235  0.00  0.00    +0.015 A 
ATOM     36  C   UNL     1      -6.792  -7.437   2.783  0.00  0.00    +0.006 A 
ATOM     37 BR   UNL     1      -7.833 -10.952   4.710  0.00  0.00    -0.050 Br
ENDBRANCH  29  31
ENDBRANCH  27  29
ENDBRANCH   5  25
TORSDOF 5
