REMARK  Name = ZINC03669144
REMARK  7 active torsions:
REMARK  status: ('A' for Active; 'I' for Inactive)
REMARK    1  A    between atoms: C_1  and  C_2
REMARK    2  A    between atoms: C_2  and  C_3
REMARK    3  A    between atoms: C_3  and  O_4
REMARK    4  A    between atoms: O_4  and  C_5
REMARK    5  A    between atoms: C_8  and  C_11
REMARK    6  A    between atoms: N_13  and  N_14
REMARK    7  A    between atoms: C_15  and  C_17
REMARK                            x       y       z     vdW  Elec       q    Type
REMARK                         _______ _______ _______ _____ _____    ______ ____
ROOT
ATOM      1  N   UNL     1       1.234  -4.944  -0.035  0.00  0.00    -0.230 N 
ATOM      2  C   UNL     1       0.071  -4.263  -0.021  0.00  0.00    +0.267 C 
ATOM      3  O   UNL     1      -0.986  -4.864  -0.015  0.00  0.00    -0.268 OA
ATOM      4  H   UNL     1       2.077  -4.464  -0.040  0.00  0.00    +0.173 HD
ENDROOT
BRANCH   2   5
ATOM      5  C   UNL     1       0.080  -2.790  -0.013  0.00  0.00    +0.123 A 
ATOM      6  C   UNL     1       1.276  -2.093  -0.020  0.00  0.00    +0.031 A 
ATOM      7  C   UNL     1       1.238  -0.675  -0.013  0.00  0.00    +0.019 A 
ATOM      8  C   UNL     1       2.431   0.062  -0.021  0.00  0.00    +0.026 A 
ATOM      9  C   UNL     1       2.387   1.427  -0.013  0.00  0.00    +0.019 A 
ATOM     10  C   UNL     1       1.167   2.092   0.002  0.00  0.00    +0.019 A 
ATOM     11  C   UNL     1      -0.017   1.387   0.010  0.00  0.00    +0.048 A 
ATOM     12  C   UNL     1       0.002  -0.004   0.002  0.00  0.00    +0.139 A 
ATOM     13  O   UNL     1      -1.160  -0.692   0.009  0.00  0.00    -0.422 OA
ATOM     14  C   UNL     1      -1.178  -2.036   0.002  0.00  0.00    +0.350 A 
ATOM     15  O   UNL     1      -2.241  -2.628   0.008  0.00  0.00    -0.244 OA
ATOM     16 BR   UNL     1       3.997   2.419  -0.023  0.00  0.00    -0.050 Br
ENDBRANCH   2   5
BRANCH   1  19
ATOM     17  C   UNL     1       2.389  -7.026  -0.056  0.00  0.00    +0.260 C 
ATOM     18  O   UNL     1       3.445  -6.424  -0.062  0.00  0.00    -0.269 OA
ATOM     19  N   UNL     1       1.226  -6.345  -0.042  0.00  0.00    -0.230 N 
ATOM     20  H   UNL     1       0.383  -6.824  -0.037  0.00  0.00    +0.173 HD
BRANCH  17  24
ATOM     21  C   UNL     1       2.363 -11.272  -0.077  0.00  0.00    +0.121 A 
ATOM     22  C   UNL     1       3.572 -10.586  -0.085  0.00  0.00    +0.046 A 
ATOM     23  C   UNL     1       3.584  -9.209  -0.078  0.00  0.00    +0.016 A 
ATOM     24  C   UNL     1       2.380  -8.502  -0.064  0.00  0.00    +0.038 A 
ATOM     25  C   UNL     1       1.167  -9.195  -0.051  0.00  0.00    +0.016 A 
ATOM     26  C   UNL     1       1.162 -10.572  -0.064  0.00  0.00    +0.046 A 
BRANCH  21  27
ATOM     27  O   UNL     1       2.354 -12.629  -0.084  0.00  0.00    -0.492 OA
BRANCH  27  28
ATOM     28  C   UNL     1       1.077 -13.270  -0.076  0.00  0.00    +0.229 C 
BRANCH  28  30
ATOM     29  C   UNL     1      -0.099 -15.474  -0.076  0.00  0.00    +0.007 C 
ATOM     30  C   UNL     1       1.269 -14.788  -0.085  0.00  0.00    +0.038 C 
ENDBRANCH  28  30
ENDBRANCH  27  28
ENDBRANCH  21  27
ENDBRANCH  17  24
ENDBRANCH   1  19
TORSDOF 6
