REMARK  Name = ZINC01882464
REMARK  13 active torsions:
REMARK  status: ('A' for Active; 'I' for Inactive)
REMARK    1  A    between atoms: C_1  and  C_2
REMARK    2  A    between atoms: C_3  and  C_34
REMARK    3  A    between atoms: C_4  and  C_24
REMARK    4  A    between atoms: C_10  and  C_11
REMARK    5  A    between atoms: C_14  and  O_17
REMARK    6  A    between atoms: O_17  and  C_18
REMARK    7  A    between atoms: C_18  and  C_20
REMARK    8  A    between atoms: C_27  and  O_30
REMARK    9  A    between atoms: O_30  and  C_31
REMARK   10  A    between atoms: C_31  and  C_33
REMARK   11  A    between atoms: C_34  and  O_36
REMARK   12  A    between atoms: O_36  and  C_37
REMARK   13  A    between atoms: C_37  and  C_38
REMARK                            x       y       z     vdW  Elec       q    Type
REMARK                         _______ _______ _______ _____ _____    ______ ____
ROOT
ATOM      1  C   UNL     1      -0.118   1.180   2.114  0.00  0.00    +0.066 C 
ATOM      2  C   UNL     1      -0.105  -0.277   1.728  0.00  0.00    +0.053 C 
ATOM      3  C   UNL     1      -1.271  -0.989   1.732  0.00  0.00    +0.085 C 
ATOM      4  C   UNL     1      -1.215  -2.447   1.337  0.00  0.00    +0.162 C 
ATOM      5  N   UNL     1       0.118  -3.002   0.970  0.00  0.00    -0.275 N 
ATOM      6  C   UNL     1       0.370  -4.262   0.595  0.00  0.00    +0.268 A 
ATOM      7  O   UNL     1      -0.524  -5.086   0.524  0.00  0.00    -0.266 OA
ATOM      8  C   UNL     1       1.758  -4.622   0.270  0.00  0.00    +0.081 A 
ATOM      9  C   UNL     1       2.269  -5.814  -0.131  0.00  0.00    +0.028 C 
ATOM     10  S   UNL     1       2.588  -3.065   0.544  0.00  0.00    -0.046 S 
ATOM     11  C   UNL     1       1.165  -2.111   1.033  0.00  0.00    +0.178 A 
ATOM     12  N   UNL     1       1.038  -0.855   1.381  0.00  0.00    -0.228 NA
ENDROOT
BRANCH   9  13
ATOM     13  C   UNL     1       3.723  -5.992  -0.235  0.00  0.00    -0.024 A 
ATOM     14  C   UNL     1       4.588  -5.075   0.374  0.00  0.00    +0.011 A 
ATOM     15  C   UNL     1       5.950  -5.247   0.274  0.00  0.00    +0.047 A 
ATOM     16  C   UNL     1       6.467  -6.327  -0.431  0.00  0.00    +0.132 A 
ATOM     17  C   UNL     1       5.613  -7.241  -1.038  0.00  0.00    +0.047 A 
ATOM     18  C   UNL     1       4.249  -7.082  -0.939  0.00  0.00    +0.011 A 
BRANCH  16  19
ATOM     19  O   UNL     1       7.812  -6.491  -0.527  0.00  0.00    -0.426 OA
BRANCH  19  20
ATOM     20  C   UNL     1       8.465  -6.984   0.538  0.00  0.00    +0.309 C 
ATOM     21  O   UNL     1       7.872  -7.183   1.571  0.00  0.00    -0.251 OA
ATOM     22  C   UNL     1       9.938  -7.288   0.444  0.00  0.00    +0.136 C 
ENDBRANCH  19  20
ENDBRANCH  16  19
ENDBRANCH   9  13
BRANCH   4  23
ATOM     23  C   UNL     1      -2.137  -2.645   0.162  0.00  0.00    -0.020 A 
ATOM     24  C   UNL     1      -1.717  -2.304  -1.111  0.00  0.00    +0.009 A 
ATOM     25  C   UNL     1      -2.561  -2.484  -2.189  0.00  0.00    +0.047 A 
ATOM     26  C   UNL     1      -3.831  -3.007  -1.995  0.00  0.00    +0.132 A 
ATOM     27  C   UNL     1      -4.250  -3.348  -0.718  0.00  0.00    +0.047 A 
ATOM     28  C   UNL     1      -3.401  -3.171   0.357  0.00  0.00    +0.009 A 
BRANCH  26  29
ATOM     29  O   UNL     1      -4.663  -3.185  -3.055  0.00  0.00    -0.426 OA
BRANCH  29  30
ATOM     30  C   UNL     1      -4.443  -4.236  -3.861  0.00  0.00    +0.309 C 
ATOM     31  O   UNL     1      -3.566  -5.024  -3.599  0.00  0.00    -0.251 OA
ATOM     32  C   UNL     1      -5.289  -4.431  -5.093  0.00  0.00    +0.136 C 
ENDBRANCH  29  30
ENDBRANCH  26  29
ENDBRANCH   4  23
BRANCH   3  33
ATOM     33  C   UNL     1      -2.486  -0.385   2.093  0.00  0.00    +0.340 C 
ATOM     34  O   UNL     1      -2.511   0.792   2.408  0.00  0.00    -0.245 OA
BRANCH  33  35
ATOM     35  O   UNL     1      -3.627  -1.107   2.090  0.00  0.00    -0.457 OA
BRANCH  35  36
ATOM     36  C   UNL     1      -4.826  -0.428   2.468  0.00  0.00    +0.259 C 
BRANCH  36  37
ATOM     37  C   UNL     1      -5.987  -1.387   2.406  0.00  0.00    +0.006 C 
ATOM     38  C   UNL     1      -6.861  -1.421   3.382  0.00  0.00    +0.007 C 
ENDBRANCH  36  37
ENDBRANCH  35  36
ENDBRANCH  33  35
ENDBRANCH   3  33
TORSDOF 10
