REMARK  Name = ZINC14478695
REMARK  8 active torsions:
REMARK  status: ('A' for Active; 'I' for Inactive)
REMARK    1  A    between atoms: C_1  and  C_2
REMARK    2  A    between atoms: C_7  and  C_8
REMARK    3  A    between atoms: C_19  and  S_24
REMARK    4  A    between atoms: S_24  and  N_27
REMARK    5  A    between atoms: N_27  and  C_28
REMARK    6  A    between atoms: C_28  and  C_29
REMARK    7  A    between atoms: C_28  and  C_30
REMARK    8  A    between atoms: C_28  and  C_31
REMARK                            x       y       z     vdW  Elec       q    Type
REMARK                         _______ _______ _______ _____ _____    ______ ____
ROOT
ATOM      1  C   UNL     1       0.496  -1.763  -1.094  0.00  0.00    +0.105 C 
ATOM      2  C   UNL     1      -0.391  -0.544  -0.921  0.00  0.00    +0.029 C 
ATOM      3  C   UNL     1      -1.372  -0.397  -2.107  0.00  0.00    +0.033 C 
ATOM      4  C   UNL     1      -1.635   1.098  -2.146  0.00  0.00    -0.030 C 
ATOM      5  C   UNL     1      -0.665   1.749  -1.553  0.00  0.00    -0.023 C 
ATOM      6  C   UNL     1       0.389   0.778  -1.038  0.00  0.00    +0.049 C 
ATOM      7  C   UNL     1       1.493   0.703  -2.058  0.00  0.00    -0.018 A 
ATOM      8  C   UNL     1       2.161   1.877  -2.383  0.00  0.00    +0.034 A 
ATOM      9  C   UNL     1       3.181   1.866  -3.313  0.00  0.00    +0.106 A 
ATOM     10  C   UNL     1       3.549   0.685  -3.932  0.00  0.00    +0.030 A 
ATOM     11  C   UNL     1       2.892  -0.487  -3.615  0.00  0.00    +0.025 A 
ATOM     12  C   UNL     1       1.866  -0.476  -2.678  0.00  0.00    +0.031 A 
ATOM     13  N   UNL     1       1.214  -1.675  -2.367  0.00  0.00    -0.336 N 
ATOM     14  H   UNL     1       1.229  -2.427  -2.979  0.00  0.00    +0.147 HD
ENDROOT
BRANCH   1  21
ATOM     15  C   UNL     1      -0.261  -2.744   1.516  0.00  0.00    +0.044 C 
ATOM     16  C   UNL     1       1.150  -2.276   1.266  0.00  0.00    -0.045 A 
ATOM     17  C   UNL     1       2.083  -2.317   2.286  0.00  0.00    +0.004 A 
ATOM     18  C   UNL     1       3.376  -1.888   2.058  0.00  0.00    +0.000 A 
ATOM     19  C   UNL     1       3.738  -1.418   0.809  0.00  0.00    +0.000 A 
ATOM     20  C   UNL     1       2.808  -1.383  -0.213  0.00  0.00    +0.006 A 
ATOM     21  C   UNL     1       1.512  -1.807   0.018  0.00  0.00    -0.024 A 
ENDBRANCH   1  21
BRANCH   9  22
ATOM     22  S   UNL     1       4.018   3.364  -3.713  0.00  0.00    +0.059 S 
ATOM     23  O   UNL     1       4.108   4.113  -2.509  0.00  0.00    -0.153 OA
ATOM     24  O   UNL     1       5.164   2.999  -4.471  0.00  0.00    -0.153 OA
BRANCH  22  25
ATOM     25  N   UNL     1       3.031   4.220  -4.731  0.00  0.00    -0.185 NA
ATOM     26  H   UNL     1       2.649   5.064  -4.440  0.00  0.00    +0.149 HD
BRANCH  25  27
ATOM     27  C   UNL     1       2.734   3.704  -6.069  0.00  0.00    +0.032 C 
ATOM     28  C   UNL     1       2.224   2.266  -5.959  0.00  0.00    +0.029 C 
ATOM     29  C   UNL     1       1.662   4.576  -6.726  0.00  0.00    +0.029 C 
ATOM     30  C   UNL     1       4.005   3.732  -6.920  0.00  0.00    +0.029 C 
ENDBRANCH  25  27
ENDBRANCH  22  25
ENDBRANCH   9  22
TORSDOF 4
