REMARK  Name = ZINC09356383
REMARK  9 active torsions:
REMARK  status: ('A' for Active; 'I' for Inactive)
REMARK    1  A    between atoms: C_1  and  C_2
REMARK    2  A    between atoms: C_5  and  C_8
REMARK    3  A    between atoms: C_13  and  C_17
REMARK    4  A    between atoms: C_13  and  C_18
REMARK    5  A    between atoms: N_26  and  C_27
REMARK    6  A    between atoms: C_27  and  C_28
REMARK    7  A    between atoms: N_30  and  C_31
REMARK    8  A    between atoms: C_31  and  C_32
REMARK    9  A    between atoms: C_32  and  C_33
REMARK                            x       y       z     vdW  Elec       q    Type
REMARK                         _______ _______ _______ _____ _____    ______ ____
ROOT
ATOM      1  C   UNL     1       0.059  -4.275  -0.021  0.00  0.00    +0.139 C 
ATOM      2  C   UNL     1       1.497  -4.736   0.034  0.00  0.00    +0.037 C 
ATOM      3  C   UNL     1       2.094  -5.330   1.080  0.00  0.00    +0.017 C 
ATOM      4  C   UNL     1       3.562  -5.721   1.008  0.00  0.00    +0.058 C 
ATOM      5  C   UNL     1       3.929  -6.108  -0.423  0.00  0.00    -0.023 C 
ATOM      6  C   UNL     1       3.656  -4.894  -1.319  0.00  0.00    +0.086 C 
ATOM      7  C   UNL     1       2.221  -4.493  -1.157  0.00  0.00    +0.163 C 
ATOM      8  O   UNL     1       1.659  -3.939  -2.082  0.00  0.00    -0.292 OA
ATOM      9  C   UNL     1       3.070  -7.290  -0.877  0.00  0.00    +0.011 C 
ATOM     10  C   UNL     1       5.410  -6.484  -0.495  0.00  0.00    +0.011 C 
ATOM     11  N   UNL     1       1.486  -5.628   2.256  0.00  0.00    -0.316 N 
ATOM     12  C   UNL     1       0.677  -4.754   2.974  0.00  0.00    +0.052 A 
ATOM     13  C   UNL     1       1.023  -4.289   4.231  0.00  0.00    +0.025 A 
ATOM     14  C   UNL     1       0.151  -3.456   4.910  0.00  0.00    +0.002 A 
ATOM     15  C   UNL     1      -1.056  -3.094   4.338  0.00  0.00    +0.002 A 
ATOM     16  C   UNL     1      -1.395  -3.545   3.075  0.00  0.00    +0.025 A 
ATOM     17  C   UNL     1      -0.515  -4.362   2.384  0.00  0.00    +0.052 A 
ATOM     18  N   UNL     1      -0.762  -4.751   1.072  0.00  0.00    -0.308 N 
ATOM     19  H   UNL     1       1.625  -6.515   2.622  0.00  0.00    +0.152 HD
ENDROOT
BRANCH   1  24
ATOM     20  C   UNL     1      -0.012   1.503   0.009  0.00  0.00    +0.044 C 
ATOM     21  C   UNL     1       0.006  -0.004   0.001  0.00  0.00    -0.050 A 
ATOM     22  C   UNL     1       0.469  -0.695   1.105  0.00  0.00    +0.004 A 
ATOM     23  C   UNL     1       0.486  -2.078   1.098  0.00  0.00    +0.006 A 
ATOM     24  C   UNL     1       0.040  -2.768  -0.013  0.00  0.00    -0.023 A 
ATOM     25  C   UNL     1      -0.423  -2.077  -1.117  0.00  0.00    +0.006 A 
ATOM     26  C   UNL     1      -0.445  -0.695  -1.108  0.00  0.00    +0.004 A 
ENDBRANCH   1  24
BRANCH  18  27
ATOM     27  C   UNL     1      -1.878  -5.657   0.792  0.00  0.00    +0.201 C 
BRANCH  27  28
ATOM     28  C   UNL     1      -1.396  -7.084   0.860  0.00  0.00    +0.230 C 
ATOM     29  O   UNL     1      -0.235  -7.320   1.117  0.00  0.00    -0.274 OA
ATOM     30  N   UNL     1      -2.256  -8.097   0.636  0.00  0.00    -0.314 N 
ATOM     31  H   UNL     1      -3.185  -7.908   0.430  0.00  0.00    +0.149 HD
BRANCH  30  32
ATOM     32  C   UNL     1      -1.788  -9.483   0.702  0.00  0.00    +0.110 C 
BRANCH  32  33
ATOM     33  C   UNL     1      -2.954 -10.430   0.410  0.00  0.00    +0.073 C 
BRANCH  33  34
ATOM     34  C   UNL     1      -2.472 -11.857   0.478  0.00  0.00    +0.035 A 
ATOM     35  C   UNL     1      -1.886 -12.542  -0.522  0.00  0.00    +0.105 A 
ATOM     36  N   UNL     1      -1.609 -13.792  -0.036  0.00  0.00    -0.352 N 
ATOM     37  H   UNL     1      -1.186 -14.517  -0.521  0.00  0.00    +0.166 HD
ATOM     38  C   UNL     1      -2.036 -13.826   1.244  0.00  0.00    +0.171 A 
ATOM     39  N   UNL     1      -2.546 -12.663   1.546  0.00  0.00    -0.350 N 
ATOM     40  H   UNL     1      -2.922 -12.422   2.408  0.00  0.00    +0.166 HD
ENDBRANCH  33  34
ENDBRANCH  32  33
ENDBRANCH  30  32
ENDBRANCH  27  28
ENDBRANCH  18  27
TORSDOF 6
