REMARK  Name = ZINC35971855
REMARK  12 active torsions:
REMARK  status: ('A' for Active; 'I' for Inactive)
REMARK    1  A    between atoms: C_1  and  C_2
REMARK    2  A    between atoms: C_5  and  C_9
REMARK    3  A    between atoms: C_6  and  C_8
REMARK    4  A    between atoms: N_14  and  C_17
REMARK    5  A    between atoms: C_17  and  C_18
REMARK    6  A    between atoms: N_20  and  C_21
REMARK    7  A    between atoms: C_21  and  C_22
REMARK    8  A    between atoms: C_22  and  N_23
REMARK    9  A    between atoms: N_23  and  C_24
REMARK   10  A    between atoms: N_23  and  C_25
REMARK   11  A    between atoms: N_26  and  C_30
REMARK   12  A    between atoms: C_30  and  C_31
REMARK                            x       y       z     vdW  Elec       q    Type
REMARK                         _______ _______ _______ _____ _____    ______ ____
ROOT
ATOM      1  C   UNL     1       0.108  -4.234  -0.485  0.00  0.00    +0.142 C 
ATOM      2  C   UNL     1      -1.302  -4.773  -0.354  0.00  0.00    +0.058 C 
ATOM      3  C   UNL     1      -1.830  -5.414  -1.417  0.00  0.00    +0.043 C 
ATOM      4  C   UNL     1      -3.223  -5.837  -1.010  0.00  0.00    +0.160 C 
ATOM      5  N   UNL     1      -3.377  -5.355   0.371  0.00  0.00    -0.283 N 
ATOM      6  C   UNL     1      -2.229  -4.740   0.708  0.00  0.00    +0.247 C 
ATOM      7  O   UNL     1      -2.017  -4.223   1.790  0.00  0.00    -0.270 OA
ATOM      8  N   UNL     1      -1.119  -5.574  -2.572  0.00  0.00    -0.253 N 
ATOM      9  C   UNL     1       0.130  -5.119  -2.742  0.00  0.00    +0.307 C 
ATOM     10  O   UNL     1       0.685  -5.308  -3.807  0.00  0.00    -0.252 OA
ATOM     11  N   UNL     1       0.790  -4.458  -1.771  0.00  0.00    -0.288 N 
ATOM     12  H   UNL     1       1.693  -4.136  -1.916  0.00  0.00    +0.151 HD
ENDROOT
BRANCH   1  17
ATOM     13  C   UNL     1      -0.064   1.461   0.477  0.00  0.00    +0.044 C 
ATOM     14  C   UNL     1      -0.019  -0.024   0.226  0.00  0.00    -0.050 A 
ATOM     15  C   UNL     1      -1.152  -0.686  -0.212  0.00  0.00    +0.004 A 
ATOM     16  C   UNL     1      -1.110  -2.048  -0.442  0.00  0.00    +0.006 A 
ATOM     17  C   UNL     1       0.063  -2.749  -0.235  0.00  0.00    -0.020 A 
ATOM     18  C   UNL     1       1.195  -2.087   0.202  0.00  0.00    -0.045 A 
ATOM     19  C   UNL     1       1.155  -0.724   0.428  0.00  0.00    +0.007 A 
ATOM     20  C   UNL     1       2.474  -2.851   0.428  0.00  0.00    +0.044 C 
ENDBRANCH   1  17
BRANCH   5  21
ATOM     21  C   UNL     1      -4.560  -5.514   1.220  0.00  0.00    +0.204 C 
BRANCH  21  22
ATOM     22  C   UNL     1      -4.450  -6.799   1.999  0.00  0.00    +0.230 C 
ATOM     23  O   UNL     1      -3.479  -7.512   1.858  0.00  0.00    -0.274 OA
ATOM     24  N   UNL     1      -5.430  -7.157   2.852  0.00  0.00    -0.316 N 
ATOM     25  H   UNL     1      -6.207  -6.586   2.965  0.00  0.00    +0.149 HD
BRANCH  24  26
ATOM     26  C   UNL     1      -5.323  -8.406   3.609  0.00  0.00    +0.085 C 
BRANCH  26  27
ATOM     27  C   UNL     1      -6.558  -8.572   4.497  0.00  0.00    -0.061 C 
BRANCH  27  28
ATOM     28  N   UNL     1      -6.451  -9.825   5.256  0.00  0.00    +0.377 N 
ATOM     29  C   UNL     1      -5.315  -9.740   6.183  0.00  0.00    -0.097 C 
ATOM     30  C   UNL     1      -7.689 -10.045   6.016  0.00  0.00    -0.097 C 
ATOM     31  H   UNL     1      -6.308 -10.594   4.618  0.00  0.00    -0.083 HD
ENDBRANCH  27  28
ENDBRANCH  26  27
ENDBRANCH  24  26
ENDBRANCH  21  22
ENDBRANCH   5  21
BRANCH   8  32
ATOM     32  C   UNL     1      -1.756  -6.282  -3.685  0.00  0.00    +0.141 C 
BRANCH  32  33
ATOM     33  C   UNL     1      -2.490  -5.293  -4.554  0.00  0.00    -0.015 C 
ATOM     34  C   UNL     1      -2.231  -5.230  -5.837  0.00  0.00    +0.005 C 
ENDBRANCH  32  33
ENDBRANCH   8  32
TORSDOF 8
