REMARK  Name = ZINC09547240
REMARK  9 active torsions:
REMARK  status: ('A' for Active; 'I' for Inactive)
REMARK    1  A    between atoms: C_1  and  C_2
REMARK    2  A    between atoms: C_5  and  C_9
REMARK    3  A    between atoms: C_7  and  C_8
REMARK    4  A    between atoms: C_9  and  C_32
REMARK    5  A    between atoms: N_12  and  C_16
REMARK    6  A    between atoms: C_16  and  C_17
REMARK    7  A    between atoms: N_19  and  C_20
REMARK    8  A    between atoms: N_19  and  C_21
REMARK    9  A    between atoms: C_21  and  C_22
REMARK                            x       y       z     vdW  Elec       q    Type
REMARK                         _______ _______ _______ _____ _____    ______ ____
ROOT
ATOM      1  C   UNL     1      -3.217  -5.937   4.356  0.00  0.00    +0.164 C 
ATOM      2  C   UNL     1      -4.564  -5.244   4.419  0.00  0.00    +0.256 C 
ATOM      3  O   UNL     1      -5.648  -5.764   4.575  0.00  0.00    -0.272 OA
ATOM      4  N   UNL     1      -4.306  -3.931   4.262  0.00  0.00    -0.215 N 
ATOM      5  C   UNL     1      -2.996  -3.699   4.119  0.00  0.00    +0.310 C 
ATOM      6  O   UNL     1      -2.519  -2.592   3.967  0.00  0.00    -0.252 OA
ATOM      7  N   UNL     1      -2.267  -4.829   4.161  0.00  0.00    -0.278 N 
ATOM      8  H   UNL     1      -1.303  -4.899   4.079  0.00  0.00    +0.152 HD
ENDROOT
BRANCH   1  13
ATOM      9  C   UNL     1      -2.994  -9.614  -0.096  0.00  0.00    +0.044 C 
ATOM     10  C   UNL     1      -3.053  -8.655   1.065  0.00  0.00    -0.048 A 
ATOM     11  C   UNL     1      -4.111  -8.708   1.953  0.00  0.00    +0.004 A 
ATOM     12  C   UNL     1      -4.164  -7.828   3.018  0.00  0.00    +0.007 A 
ATOM     13  C   UNL     1      -3.159  -6.896   3.195  0.00  0.00    -0.010 A 
ATOM     14  C   UNL     1      -2.103  -6.840   2.305  0.00  0.00    +0.010 A 
ATOM     15  C   UNL     1      -2.048  -7.723   1.242  0.00  0.00    -0.047 A 
ATOM     16  C   UNL     1      -0.894  -7.666   0.275  0.00  0.00    +0.044 C 
ENDBRANCH   1  13
BRANCH   1  17
ATOM     17  C   UNL     1      -2.935  -6.656   5.650  0.00  0.00    -0.011 A 
ATOM     18  C   UNL     1      -1.710  -6.502   6.273  0.00  0.00    +0.006 A 
ATOM     19  C   UNL     1      -1.453  -7.157   7.463  0.00  0.00    +0.000 A 
ATOM     20  C   UNL     1      -2.416  -7.975   8.024  0.00  0.00    +0.000 A 
ATOM     21  C   UNL     1      -3.639  -8.132   7.399  0.00  0.00    +0.000 A 
ATOM     22  C   UNL     1      -3.898  -7.473   6.212  0.00  0.00    +0.006 A 
ENDBRANCH   1  17
BRANCH   4  23
ATOM     23  C   UNL     1      -5.332  -2.886   4.256  0.00  0.00    +0.213 C 
BRANCH  23  24
ATOM     24  C   UNL     1      -5.815  -2.663   2.846  0.00  0.00    +0.234 C 
ATOM     25  O   UNL     1      -5.348  -3.314   1.936  0.00  0.00    -0.274 OA
ATOM     26  N   UNL     1      -6.766  -1.742   2.597  0.00  0.00    -0.299 N 
ATOM     27  C   UNL     1      -7.331  -0.956   3.697  0.00  0.00    +0.132 C 
BRANCH  26  28
ATOM     28  C   UNL     1      -7.235  -1.526   1.226  0.00  0.00    +0.142 C 
BRANCH  28  29
ATOM     29  C   UNL     1      -6.391  -0.465   0.567  0.00  0.00    -0.026 A 
ATOM     30  C   UNL     1      -6.759   0.864   0.657  0.00  0.00    +0.009 A 
ATOM     31  C   UNL     1      -5.990   1.839   0.050  0.00  0.00    +0.050 A 
ATOM     32  C   UNL     1      -4.842   1.486  -0.645  0.00  0.00    +0.162 A 
ATOM     33  C   UNL     1      -4.471   0.150  -0.733  0.00  0.00    +0.162 A 
ATOM     34  C   UNL     1      -5.250  -0.824  -0.125  0.00  0.00    +0.054 A 
ATOM     35  O   UNL     1      -3.349  -0.218  -1.409  0.00  0.00    -0.485 OA
ATOM     36  C   UNL     1      -2.802   0.743  -2.319  0.00  0.00    +0.270 C 
ATOM     37  C   UNL     1      -2.759   2.103  -1.611  0.00  0.00    +0.270 C 
ATOM     38  O   UNL     1      -4.095   2.457  -1.238  0.00  0.00    -0.485 OA
ENDBRANCH  28  29
ENDBRANCH  26  28
ENDBRANCH  23  24
ENDBRANCH   4  23
TORSDOF 6
