REMARK  Name = ZINC39929002
REMARK  14 active torsions:
REMARK  status: ('A' for Active; 'I' for Inactive)
REMARK    1  A    between atoms: C_1  and  C_2
REMARK    2  A    between atoms: C_5  and  N_9
REMARK    3  A    between atoms: C_7  and  C_8
REMARK    4  A    between atoms: N_9  and  C_10
REMARK    5  A    between atoms: C_10  and  C_11
REMARK    6  A    between atoms: C_17  and  O_23
REMARK    7  A    between atoms: O_23  and  C_24
REMARK    8  A    between atoms: C_25  and  C_27
REMARK    9  A    between atoms: C_29  and  O_37
REMARK   10  A    between atoms: C_30  and  O_35
REMARK   11  A    between atoms: C_31  and  O_33
REMARK   12  A    between atoms: O_33  and  C_34
REMARK   13  A    between atoms: O_35  and  C_36
REMARK   14  A    between atoms: O_37  and  C_38
REMARK                            x       y       z     vdW  Elec       q    Type
REMARK                         _______ _______ _______ _____ _____    ______ ____
ROOT
ATOM      1  N   UNL     1       2.007  -4.370  -0.088  0.00  0.00    -0.266 N 
ATOM      2  C   UNL     1       2.016  -5.071   1.063  0.00  0.00    +0.251 C 
ATOM      3  O   UNL     1       2.669  -4.676   2.010  0.00  0.00    -0.270 OA
ENDROOT
BRANCH   1   8
ATOM      4  C   UNL     1       4.149   0.880  -0.231  0.00  0.00    +0.044 C 
ATOM      5  C   UNL     1       3.580  -0.515  -0.193  0.00  0.00    -0.047 A 
ATOM      6  C   UNL     1       3.133  -1.110  -1.359  0.00  0.00    +0.005 A 
ATOM      7  C   UNL     1       2.611  -2.388  -1.328  0.00  0.00    +0.024 A 
ATOM      8  C   UNL     1       2.536  -3.076  -0.123  0.00  0.00    +0.037 A 
ATOM      9  C   UNL     1       2.985  -2.476   1.045  0.00  0.00    +0.027 A 
ATOM     10  C   UNL     1       3.511  -1.199   1.006  0.00  0.00    -0.046 A 
ATOM     11  C   UNL     1       4.004  -0.549   2.273  0.00  0.00    +0.044 C 
ENDBRANCH   1   8
BRANCH   2  12
ATOM     12  C   UNL     1       1.233  -6.317   1.175  0.00  0.00    +0.044 A 
ATOM     13  C   UNL     1       0.966  -7.080   0.036  0.00  0.00    +0.062 A 
ATOM     14  C   UNL     1       0.233  -8.247   0.143  0.00  0.00    +0.166 A 
ATOM     15  C   UNL     1      -0.239  -8.662   1.385  0.00  0.00    +0.204 A 
ATOM     16  C   UNL     1       0.025  -7.903   2.522  0.00  0.00    +0.166 A 
ATOM     17  C   UNL     1       0.763  -6.739   2.421  0.00  0.00    +0.062 A 
BRANCH  16  18
ATOM     18  O   UNL     1      -0.438  -8.311   3.734  0.00  0.00    -0.491 OA
ATOM     19  C   UNL     1      -0.129  -7.484   4.858  0.00  0.00    +0.277 C 
ENDBRANCH  16  18
BRANCH  15  20
ATOM     20  O   UNL     1      -0.961  -9.809   1.488  0.00  0.00    -0.488 OA
ATOM     21  C   UNL     1      -0.231 -11.015   1.726  0.00  0.00    +0.277 C 
ENDBRANCH  15  20
BRANCH  14  22
ATOM     22  O   UNL     1      -0.028  -8.990  -0.966  0.00  0.00    -0.491 OA
ATOM     23  C   UNL     1       0.128  -8.344  -2.231  0.00  0.00    +0.277 C 
ENDBRANCH  14  22
ENDBRANCH   2  12
BRANCH   1  24
ATOM     24  C   UNL     1       1.444  -4.965  -1.303  0.00  0.00    +0.131 C 
BRANCH  24  25
ATOM     25  C   UNL     1       2.558  -5.645  -2.101  0.00  0.00    +0.116 C 
ATOM     26  C   UNL     1       1.950  -6.183  -3.382  0.00  0.00    -0.003 C 
ATOM     27  C   UNL     1       2.476  -5.744  -4.557  0.00  0.00    -0.007 A 
ATOM     28  C   UNL     1       1.944  -6.216  -5.837  0.00  0.00    +0.013 A 
ATOM     29  C   UNL     1       2.494  -5.756  -6.987  0.00  0.00    +0.046 A 
ATOM     30  C   UNL     1       3.557  -4.841  -6.972  0.00  0.00    +0.122 A 
ATOM     31  C   UNL     1       4.098  -4.362  -5.800  0.00  0.00    +0.069 A 
ATOM     32  C   UNL     1       3.594  -4.782  -4.562  0.00  0.00    +0.044 A 
ATOM     33  N   UNL     1       4.127  -4.311  -3.432  0.00  0.00    -0.284 N 
ATOM     34  C   UNL     1       3.700  -4.663  -2.233  0.00  0.00    +0.226 C 
ATOM     35  O   UNL     1       4.224  -4.199  -1.238  0.00  0.00    -0.275 OA
ATOM     36  H   UNL     1       4.862  -3.681  -3.495  0.00  0.00    +0.155 HD
BRANCH  30  37
ATOM     37  O   UNL     1       4.069  -4.414  -8.151  0.00  0.00    -0.495 OA
ATOM     38  C   UNL     1       3.477  -4.937  -9.343  0.00  0.00    +0.277 C 
ENDBRANCH  30  37
ENDBRANCH  24  25
ENDBRANCH   1  24
TORSDOF 8
