REMARK  Name = ZINC22938722
REMARK  6 active torsions:
REMARK  status: ('A' for Active; 'I' for Inactive)
REMARK    1  A    between atoms: C_6  and  C_7
REMARK    2  A    between atoms: N_9  and  N_10
REMARK    3  A    between atoms: C_11  and  C_13
REMARK    4  A    between atoms: C_13  and  N_14
REMARK    5  A    between atoms: N_17  and  C_20
REMARK    6  A    between atoms: C_20  and  C_21
REMARK                            x       y       z     vdW  Elec       q    Type
REMARK                         _______ _______ _______ _____ _____    ______ ____
ROOT
ATOM      1  N   UNL     1      -3.427  -6.392   0.000  0.00  0.00    -0.298 NA
ATOM      2  C   UNL     1      -2.770  -6.806   1.248  0.00  0.00    +0.066 C 
ATOM      3  C   UNL     1      -2.430  -8.296   1.173  0.00  0.00    -0.063 C 
ATOM      4  N   UNL     1      -3.662  -9.069   0.969  0.00  0.00    +0.384 N 
ATOM      5  C   UNL     1      -4.294  -8.662  -0.293  0.00  0.00    -0.063 C 
ATOM      6  C   UNL     1      -4.649  -7.175  -0.230  0.00  0.00    +0.066 C 
ATOM      7  H   UNL     1      -4.298  -8.897   1.733  0.00  0.00    -0.081 HD
ENDROOT
BRANCH   1   8
ATOM      8  C   UNL     1      -3.718  -4.952   0.011  0.00  0.00    +0.181 C 
BRANCH   8  10
ATOM      9  N   UNL     1      -2.446  -2.831   0.010  0.00  0.00    -0.233 N 
ATOM     10  C   UNL     1      -2.425  -4.178   0.003  0.00  0.00    +0.243 C 
ATOM     11  O   UNL     1      -1.365  -4.768  -0.011  0.00  0.00    -0.273 OA
ATOM     12  H   UNL     1      -3.294  -2.359   0.021  0.00  0.00    +0.173 HD
BRANCH   9  15
ATOM     13  C   UNL     1      -1.266  -0.763   0.010  0.00  0.00    +0.260 C 
ATOM     14  O   UNL     1      -2.328  -0.172   0.023  0.00  0.00    -0.269 OA
ATOM     15  N   UNL     1      -1.244  -2.111   0.003  0.00  0.00    -0.230 N 
ATOM     16  H   UNL     1      -0.397  -2.583  -0.008  0.00  0.00    +0.173 HD
BRANCH  13  22
ATOM     17  C   UNL     1      -0.017   1.392   0.010  0.00  0.00    +0.014 A 
ATOM     18  C   UNL     1       1.170   2.095   0.002  0.00  0.00    +0.016 A 
ATOM     19  C   UNL     1       2.378   1.419  -0.013  0.00  0.00    +0.018 A 
ATOM     20  C   UNL     1       2.403   0.034  -0.021  0.00  0.00    +0.016 A 
ATOM     21  C   UNL     1       1.224  -0.680  -0.013  0.00  0.00    +0.014 A 
ATOM     22  C   UNL     1       0.002  -0.004   0.002  0.00  0.00    +0.038 A 
ATOM     23 BR   UNL     1       4.000   2.390  -0.025  0.00  0.00    -0.050 Br
ENDBRANCH  13  22
ENDBRANCH   9  15
ENDBRANCH   8  10
ENDBRANCH   1   8
BRANCH   4  24
ATOM     24  C   UNL     1      -3.338 -10.501   0.914  0.00  0.00    -0.043 C 
BRANCH  24  25
ATOM     25  C   UNL     1      -4.612 -11.302   0.828  0.00  0.00    -0.060 A 
ATOM     26  C   UNL     1      -5.244 -11.719   1.985  0.00  0.00    +0.005 A 
ATOM     27  C   UNL     1      -6.413 -12.453   1.911  0.00  0.00    +0.050 A 
ATOM     28  C   UNL     1      -6.954 -12.773   0.676  0.00  0.00    +0.166 A 
ATOM     29  C   UNL     1      -6.317 -12.352  -0.489  0.00  0.00    +0.166 A 
ATOM     30  C   UNL     1      -5.149 -11.612  -0.407  0.00  0.00    +0.051 A 
ATOM     31  O   UNL     1      -7.039 -12.789  -1.563  0.00  0.00    -0.453 OA
ATOM     32  C   UNL     1      -7.898 -13.825  -1.052  0.00  0.00    +0.466 C 
ATOM     33  O   UNL     1      -8.075 -13.473   0.332  0.00  0.00    -0.453 OA
ENDBRANCH  24  25
ENDBRANCH   4  24
TORSDOF 6
