REMARK  Name = ZINC49483808
REMARK  6 active torsions:
REMARK  status: ('A' for Active; 'I' for Inactive)
REMARK    1  A    between atoms: C_3  and  C_6
REMARK    2  A    between atoms: C_8  and  C_11
REMARK    3  A    between atoms: N_13  and  S_15
REMARK    4  A    between atoms: S_15  and  C_18
REMARK    5  A    between atoms: C_18  and  C_19
REMARK    6  A    between atoms: C_19  and  N_20
REMARK                            x       y       z     vdW  Elec       q    Type
REMARK                         _______ _______ _______ _____ _____    ______ ____
ROOT
ATOM      1  C   UNL     1       7.333   1.324  -0.070  0.00  0.00    +0.109 C 
ATOM      2  C   UNL     1       8.277   2.199  -0.914  0.00  0.00    +0.123 C 
ATOM      3  N   UNL     1       9.251   2.031   0.182  0.00  0.00    -0.180 NA
ATOM      4  C   UNL     1       8.162   1.777   1.146  0.00  0.00    +0.123 C 
ENDROOT
BRANCH   1   7
ATOM      5  C   UNL     1       3.738   1.826  -0.024  0.00  0.00    +0.209 A 
ATOM      6  N   UNL     1       4.846   1.060  -0.044  0.00  0.00    -0.191 NA
ATOM      7  C   UNL     1       5.908   1.813  -0.049  0.00  0.00    +0.233 A 
ATOM      8  O   UNL     1       5.522   3.095  -0.032  0.00  0.00    -0.337 OA
ATOM      9  N   UNL     1       4.102   3.087  -0.022  0.00  0.00    -0.056 NA
BRANCH   5  12
ATOM     10  C   UNL     1      -0.016   1.355   0.009  0.00  0.00    +0.008 A 
ATOM     11  C   UNL     1       1.176   2.042   0.002  0.00  0.00    +0.019 A 
ATOM     12  C   UNL     1       2.346   1.330  -0.013  0.00  0.00    +0.060 A 
ATOM     13  S   UNL     1       1.753  -0.354  -0.017  0.00  0.00    -0.093 S 
ATOM     14  C   UNL     1       0.002  -0.004   0.002  0.00  0.00    +0.046 A 
ENDBRANCH   5  12
ENDBRANCH   1   7
BRANCH   3  15
ATOM     15  S   UNL     1      10.902   2.099   0.289  0.00  0.00    +0.033 S 
ATOM     16  O   UNL     1      11.228   1.276   1.401  0.00  0.00    -0.158 OA
ATOM     17  O   UNL     1      11.363   1.771  -1.015  0.00  0.00    -0.158 OA
BRANCH  15  18
ATOM     18  C   UNL     1      11.274   3.834   0.665  0.00  0.00    +0.204 C 
BRANCH  18  19
ATOM     19  C   UNL     1      12.788   4.016   0.787  0.00  0.00    +0.140 C 
BRANCH  19  20
ATOM     20  N   UNL     1      13.088   5.417   1.091  0.00  0.00    -0.241 N 
ATOM     21  C   UNL     1      13.280   6.270   0.074  0.00  0.00    +0.222 C 
ATOM     22  O   UNL     1      13.209   5.862  -1.066  0.00  0.00    -0.275 OA
ATOM     23  C   UNL     1      13.580   7.725   0.319  0.00  0.00    +0.097 C 
ATOM     24  C   UNL     1      14.311   7.869   1.658  0.00  0.00    +0.018 C 
ATOM     25  C   UNL     1      13.455   7.224   2.754  0.00  0.00    +0.097 C 
ATOM     26  C   UNL     1      13.156   5.798   2.375  0.00  0.00    +0.222 C 
ATOM     27  O   UNL     1      12.978   4.976   3.249  0.00  0.00    -0.275 OA
ENDBRANCH  19  20
ENDBRANCH  18  19
ENDBRANCH  15  18
ENDBRANCH   3  15
TORSDOF 6
