REMARK  Name = ZINC36497832
REMARK  13 active torsions:
REMARK  status: ('A' for Active; 'I' for Inactive)
REMARK    1  A    between atoms: C_1  and  C_2
REMARK    2  A    between atoms: C_2  and  C_3
REMARK    3  A    between atoms: C_2  and  C_4
REMARK    4  A    between atoms: C_2  and  N_5
REMARK    5  A    between atoms: C_6  and  C_8
REMARK    6  A    between atoms: C_8  and  C_10
REMARK    7  A    between atoms: C_8  and  N_23
REMARK    8  A    between atoms: C_10  and  C_11
REMARK    9  A    between atoms: C_10  and  C_17
REMARK   10  A    between atoms: N_23  and  C_24
REMARK   11  A    between atoms: C_24  and  C_25
REMARK   12  A    between atoms: C_30  and  C_32
REMARK   13  A    between atoms: C_37  and  O_38
REMARK                            x       y       z     vdW  Elec       q    Type
REMARK                         _______ _______ _______ _____ _____    ______ ____
ROOT
ATOM      1  C   UNL     1       2.508  -0.281  -3.166  0.00  0.00    +0.174 C 
ENDROOT
BRANCH   1   3
ATOM      2  N   UNL     1       1.642   1.167  -1.357  0.00  0.00    -0.309 N 
ATOM      3  C   UNL     1       2.708   0.687  -2.028  0.00  0.00    +0.235 C 
ATOM      4  O   UNL     1       3.827   1.033  -1.716  0.00  0.00    -0.274 OA
ATOM      5  H   UNL     1       0.753   0.833  -1.556  0.00  0.00    +0.149 HD
BRANCH   2   7
ATOM      6  C   UNL     1       2.481   3.428  -0.950  0.00  0.00    +0.031 C 
ATOM      7  C   UNL     1       1.826   2.193  -0.328  0.00  0.00    +0.026 C 
ATOM      8  C   UNL     1       2.724   1.645   0.784  0.00  0.00    +0.031 C 
ATOM      9  C   UNL     1       0.466   2.578   0.258  0.00  0.00    +0.031 C 
ENDBRANCH   2   7
ENDBRANCH   1   3
BRANCH   1  10
ATOM     10  N   UNL     1       3.805  -0.609  -3.761  0.00  0.00    -0.278 N 
ATOM     11  C   UNL     1       4.222   0.038  -4.868  0.00  0.00    +0.251 C 
ATOM     12  O   UNL     1       3.575   0.969  -5.308  0.00  0.00    -0.270 OA
BRANCH  11  13
ATOM     13  C   UNL     1       5.462  -0.384  -5.546  0.00  0.00    +0.078 A 
ATOM     14  C   UNL     1       6.644  -0.540  -4.816  0.00  0.00    +0.017 A 
ATOM     15  C   UNL     1       7.799  -0.935  -5.456  0.00  0.00    +0.001 A 
ATOM     16  C   UNL     1       7.795  -1.178  -6.820  0.00  0.00    +0.004 A 
ATOM     17  C   UNL     1       6.635  -1.027  -7.553  0.00  0.00    +0.046 A 
ATOM     18  C   UNL     1       5.462  -0.636  -6.925  0.00  0.00    +0.129 A 
BRANCH  18  19
ATOM     19  O   UNL     1       4.319  -0.492  -7.643  0.00  0.00    -0.506 OA
ATOM     20  H   UNL     1       4.192   0.395  -8.005  0.00  0.00    +0.292 HD
ENDBRANCH  18  19
ENDBRANCH  11  13
BRANCH  10  21
ATOM     21  C   UNL     1       4.651  -1.640  -3.154  0.00  0.00    +0.183 C 
BRANCH  21  22
ATOM     22  C   UNL     1       5.206  -1.130  -1.849  0.00  0.00    +0.122 A 
ATOM     23  C   UNL     1       4.698  -1.377  -0.628  0.00  0.00    +0.046 A 
ATOM     24  C   UNL     1       5.526  -0.709   0.303  0.00  0.00    +0.041 A 
ATOM     25  C   UNL     1       6.490  -0.094  -0.405  0.00  0.00    +0.195 A 
ATOM     26  O   UNL     1       6.294  -0.357  -1.707  0.00  0.00    -0.466 OA
ENDBRANCH  21  22
ENDBRANCH  10  21
ENDBRANCH   1  10
BRANCH   1  27
ATOM     27  C   UNL     1       1.851  -1.559  -2.639  0.00  0.00    +0.078 C 
BRANCH  27  28
ATOM     28  C   UNL     1       0.464  -1.242  -2.143  0.00  0.00    -0.038 A 
ATOM     29  C   UNL     1      -0.466  -0.682  -2.999  0.00  0.00    +0.004 A 
ATOM     30  C   UNL     1      -1.738  -0.392  -2.543  0.00  0.00    +0.000 A 
ATOM     31  C   UNL     1      -2.082  -0.662  -1.232  0.00  0.00    +0.000 A 
ATOM     32  C   UNL     1      -1.152  -1.224  -0.376  0.00  0.00    +0.000 A 
ATOM     33  C   UNL     1       0.119  -1.518  -0.833  0.00  0.00    +0.004 A 
ENDBRANCH  27  28
BRANCH  27  34
ATOM     34  C   UNL     1       1.768  -2.575  -3.749  0.00  0.00    -0.038 A 
ATOM     35  C   UNL     1       1.305  -2.200  -4.996  0.00  0.00    +0.004 A 
ATOM     36  C   UNL     1       1.229  -3.132  -6.014  0.00  0.00    +0.000 A 
ATOM     37  C   UNL     1       1.615  -4.439  -5.785  0.00  0.00    +0.000 A 
ATOM     38  C   UNL     1       2.079  -4.814  -4.538  0.00  0.00    +0.000 A 
ATOM     39  C   UNL     1       2.159  -3.881  -3.521  0.00  0.00    +0.004 A 
ENDBRANCH  27  34
ENDBRANCH   1  27
TORSDOF 10
