REMARK  Name = ZINC06852089
REMARK  6 active torsions:
REMARK  status: ('A' for Active; 'I' for Inactive)
REMARK    1  A    between atoms: C_1  and  C_2
REMARK    2  A    between atoms: C_7  and  C_13
REMARK    3  A    between atoms: C_13  and  O_14
REMARK    4  A    between atoms: O_14  and  C_15
REMARK    5  A    between atoms: C_15  and  C_17
REMARK    6  A    between atoms: C_19  and  C_22
REMARK                            x       y       z     vdW  Elec       q    Type
REMARK                         _______ _______ _______ _____ _____    ______ ____
ROOT
ATOM      1  C   UNL     1      -1.294  -0.773   0.010  0.00  0.00    +0.045 C 
ATOM      2  C   UNL     1       0.002  -0.004   0.002  0.00  0.00    -0.034 A 
ATOM      3  C   UNL     1      -0.017   1.398   0.010  0.00  0.00    +0.008 A 
ATOM      4  C   UNL     1       1.159   2.086   0.002  0.00  0.00    +0.047 A 
ATOM      5  C   UNL     1       2.375   1.378  -0.014  0.00  0.00    +0.141 A 
ATOM      6  N   UNL     1       3.525   2.049  -0.022  0.00  0.00    -0.231 NA
ATOM      7  C   UNL     1       4.690   1.419  -0.037  0.00  0.00    +0.086 A 
ATOM      8  C   UNL     1       4.730   0.039  -0.044  0.00  0.00    +0.097 A 
ATOM      9  C   UNL     1       3.525  -0.673  -0.035  0.00  0.00    +0.259 A 
ATOM     10  O   UNL     1       3.526  -1.894  -0.041  0.00  0.00    -0.267 OA
ATOM     11  N   UNL     1       2.361   0.011  -0.020  0.00  0.00    -0.268 N 
ATOM     12  C   UNL     1       1.180  -0.667  -0.012  0.00  0.00    +0.099 A 
ENDROOT
BRANCH   7  13
ATOM     13  C   UNL     1       5.973   2.210  -0.045  0.00  0.00    +0.288 C 
BRANCH  13  14
ATOM     14  O   UNL     1       6.069   2.962  -1.283  0.00  0.00    -0.453 OA
BRANCH  14  15
ATOM     15  C   UNL     1       7.167   3.728  -1.450  0.00  0.00    +0.378 C 
ATOM     16  O   UNL     1       8.019   3.765  -0.585  0.00  0.00    -0.241 OA
BRANCH  15  17
ATOM     17  C   UNL     1       7.332   4.519  -2.682  0.00  0.00    +0.244 A 
ATOM     18  C   UNL     1       8.382   5.339  -2.998  0.00  0.00    +0.082 A 
ATOM     19  C   UNL     1       8.043   5.845  -4.273  0.00  0.00    +0.081 A 
ATOM     20  N   UNL     1       6.896   5.319  -4.589  0.00  0.00    -0.083 NA
ATOM     21  O   UNL     1       6.485   4.578  -3.727  0.00  0.00    -0.348 OA
ATOM     22  C   UNL     1       8.853   6.807  -5.105  0.00  0.00    +0.069 C 
ENDBRANCH  15  17
ENDBRANCH  14  15
ENDBRANCH  13  14
ENDBRANCH   7  13
TORSDOF 4
