REMARK  Name = ZINC16534097
REMARK  11 active torsions:
REMARK  status: ('A' for Active; 'I' for Inactive)
REMARK    1  A    between atoms: C_1  and  C_2
REMARK    2  A    between atoms: C_5  and  N_9
REMARK    3  A    between atoms: C_6  and  C_8
REMARK    4  A    between atoms: C_10  and  O_39
REMARK    5  A    between atoms: C_11  and  C_22
REMARK    6  A    between atoms: C_12  and  C_14
REMARK    7  A    between atoms: C_19  and  O_20
REMARK    8  A    between atoms: O_20  and  C_21
REMARK    9  A    between atoms: N_26  and  C_30
REMARK   10  A    between atoms: C_30  and  C_31
REMARK   11  A    between atoms: C_34  and  C_37
REMARK                            x       y       z     vdW  Elec       q    Type
REMARK                         _______ _______ _______ _____ _____    ______ ____
ROOT
ATOM      1  N   UNL     1       1.347   1.393   2.489  0.00  0.00    -0.199 N 
ATOM      2  C   UNL     1       2.105   1.399   3.606  0.00  0.00    +0.224 A 
ATOM      3  C   UNL     1       3.397   1.029   3.239  0.00  0.00    +0.066 A 
ATOM      4  C   UNL     1       3.362   0.802   1.788  0.00  0.00    +0.108 A 
ATOM      5  N   UNL     1       2.131   1.029   1.391  0.00  0.00    -0.162 NA
ENDROOT
BRANCH   3   6
ATOM      6  C   UNL     1       4.556   0.899   4.121  0.00  0.00    +0.044 C 
ATOM      7  C   UNL     1       4.872   1.904   4.983  0.00  0.00    +0.099 C 
ATOM      8  C   UNL     1       5.956   1.935   5.899  0.00  0.00    +0.269 C 
ATOM      9  O   UNL     1       6.789   1.062   6.066  0.00  0.00    -0.268 OA
ATOM     10  N   UNL     1       5.891   3.113   6.550  0.00  0.00    -0.216 N 
ATOM     11  C   UNL     1       4.839   3.818   6.101  0.00  0.00    +0.313 C 
ATOM     12  O   UNL     1       4.519   4.923   6.497  0.00  0.00    -0.252 OA
ATOM     13  N   UNL     1       4.196   3.124   5.144  0.00  0.00    -0.265 N 
ATOM     14  H   UNL     1       3.408   3.412   4.657  0.00  0.00    +0.157 HD
BRANCH  10  15
ATOM     15  C   UNL     1       6.824   3.557   7.588  0.00  0.00    +0.153 C 
BRANCH  15  16
ATOM     16  C   UNL     1       7.967   4.304   6.949  0.00  0.00    -0.029 A 
ATOM     17  C   UNL     1       9.102   3.619   6.553  0.00  0.00    +0.006 A 
ATOM     18  C   UNL     1      10.149   4.295   5.963  0.00  0.00    +0.019 A 
ATOM     19  C   UNL     1      10.067   5.677   5.776  0.00  0.00    +0.052 A 
ATOM     20  C   UNL     1       8.921   6.363   6.183  0.00  0.00    +0.019 A 
ATOM     21  C   UNL     1       7.879   5.673   6.767  0.00  0.00    +0.006 A 
BRANCH  19  22
ATOM     22  C   UNL     1      11.153   6.386   5.170  0.00  0.00    +0.099 C 
ATOM     23  N   UNL     1      12.014   6.949   4.688  0.00  0.00    -0.191 NA
ENDBRANCH  19  22
ENDBRANCH  15  16
ENDBRANCH  10  15
ENDBRANCH   3   6
BRANCH   1  28
ATOM     24  C   UNL     1      -4.178   2.669   2.283  0.00  0.00    +0.044 C 
ATOM     25  C   UNL     1      -2.711   2.329   2.338  0.00  0.00    -0.050 A 
ATOM     26  C   UNL     1      -2.071   2.231   3.560  0.00  0.00    +0.005 A 
ATOM     27  C   UNL     1      -0.726   1.921   3.613  0.00  0.00    +0.028 A 
ATOM     28  C   UNL     1      -0.017   1.708   2.438  0.00  0.00    +0.072 A 
ATOM     29  C   UNL     1      -0.662   1.807   1.213  0.00  0.00    -0.025 A 
ATOM     30  C   UNL     1      -2.006   2.123   1.166  0.00  0.00    +0.008 A 
ATOM     31  C   UNL     1       0.104   1.577  -0.064  0.00  0.00    +0.046 C 
ENDBRANCH   1  28
BRANCH   4  32
ATOM     32  C   UNL     1       4.501   0.395   0.934  0.00  0.00    +0.044 A 
ATOM     33  C   UNL     1       5.760   0.189   1.497  0.00  0.00    +0.014 A 
ATOM     34  C   UNL     1       6.818  -0.191   0.696  0.00  0.00    +0.001 A 
ATOM     35  C   UNL     1       6.634  -0.368  -0.664  0.00  0.00    +0.004 A 
ATOM     36  C   UNL     1       5.391  -0.167  -1.232  0.00  0.00    +0.046 A 
ATOM     37  C   UNL     1       4.318   0.209  -0.440  0.00  0.00    +0.129 A 
BRANCH  37  38
ATOM     38  O   UNL     1       3.094   0.402  -0.997  0.00  0.00    -0.494 OA
ATOM     39  C   UNL     1       2.982   0.194  -2.406  0.00  0.00    +0.277 C 
ENDBRANCH  37  38
ENDBRANCH   4  32
BRANCH   2  40
ATOM     40  O   UNL     1       1.686   1.708   4.856  0.00  0.00    -0.492 OA
ATOM     41  H   UNL     1       1.363   0.949   5.361  0.00  0.00    +0.294 HD
ENDBRANCH   2  40
TORSDOF 8
