REMARK  Name = ZINC40477997
REMARK  8 active torsions:
REMARK  status: ('A' for Active; 'I' for Inactive)
REMARK    1  A    between atoms: C_1  and  C_2
REMARK    2  A    between atoms: C_2  and  C_3
REMARK    3  A    between atoms: C_7  and  C_31
REMARK    4  A    between atoms: C_8  and  N_9
REMARK    5  A    between atoms: C_10  and  C_12
REMARK    6  A    between atoms: C_12  and  N_13
REMARK    7  A    between atoms: N_22  and  C_23
REMARK    8  A    between atoms: C_23  and  C_24
REMARK                            x       y       z     vdW  Elec       q    Type
REMARK                         _______ _______ _______ _____ _____    ______ ____
ROOT
ATOM      1  N   UNL     1       6.278  -0.398   1.052  0.00  0.00    -0.288 N 
ATOM      2  C   UNL     1       6.713  -1.642   1.373  0.00  0.00    +0.205 A 
ATOM      3  N   UNL     1       7.953  -2.012   1.243  0.00  0.00    -0.216 NA
ATOM      4  C   UNL     1       8.896  -1.180   0.777  0.00  0.00    +0.186 A 
ATOM      5  C   UNL     1       8.544   0.128   0.418  0.00  0.00    +0.196 A 
ATOM      6  C   UNL     1       7.142   0.524   0.568  0.00  0.00    +0.284 A 
ATOM      7  O   UNL     1       6.768   1.645   0.270  0.00  0.00    -0.265 OA
ATOM      8  N   UNL     1       9.650   0.752  -0.012  0.00  0.00    -0.122 NA
ATOM      9  N   UNL     1      10.658  -0.047   0.046  0.00  0.00    -0.063 NA
ATOM     10  N   UNL     1      10.233  -1.290   0.541  0.00  0.00    -0.222 N 
ENDROOT
BRANCH   1  11
ATOM     11  C   UNL     1       4.865  -0.052   1.226  0.00  0.00    +0.222 C 
BRANCH  11  13
ATOM     12  N   UNL     1       2.785  -0.140  -0.111  0.00  0.00    -0.284 N 
ATOM     13  C   UNL     1       4.111  -0.376  -0.038  0.00  0.00    +0.237 C 
ATOM     14  O   UNL     1       4.695  -0.849  -0.990  0.00  0.00    -0.274 OA
ATOM     15  H   UNL     1       2.330   0.299   0.625  0.00  0.00    +0.155 HD
BRANCH  12  21
ATOM     16  C   UNL     1       1.650   0.424  -2.166  0.00  0.00    -0.026 A 
ATOM     17  C   UNL     1       0.946   0.037  -3.289  0.00  0.00    +0.005 A 
ATOM     18  C   UNL     1       0.651  -1.298  -3.495  0.00  0.00    +0.001 A 
ATOM     19  C   UNL     1       1.060  -2.249  -2.579  0.00  0.00    +0.005 A 
ATOM     20  C   UNL     1       1.765  -1.868  -1.454  0.00  0.00    -0.029 A 
ATOM     21  C   UNL     1       2.067  -0.529  -1.246  0.00  0.00    +0.040 A 
ATOM     22  C   UNL     1       2.210  -2.906  -0.456  0.00  0.00    +0.045 C 
BRANCH  16  24
ATOM     23  C   UNL     1       3.369   2.183  -2.483  0.00  0.00    +0.009 C 
ATOM     24  C   UNL     1       1.971   1.880  -1.942  0.00  0.00    +0.033 C 
ENDBRANCH  16  24
ENDBRANCH  12  21
ENDBRANCH  11  13
ENDBRANCH   1  11
BRANCH  10  25
ATOM     25  C   UNL     1      11.066  -2.474   0.762  0.00  0.00    +0.182 C 
BRANCH  25  26
ATOM     26  C   UNL     1      11.082  -3.317  -0.488  0.00  0.00    -0.026 A 
ATOM     27  C   UNL     1      10.127  -4.300  -0.671  0.00  0.00    +0.007 A 
ATOM     28  C   UNL     1      10.141  -5.073  -1.817  0.00  0.00    +0.020 A 
ATOM     29  C   UNL     1      11.111  -4.862  -2.781  0.00  0.00    +0.041 A 
ATOM     30  C   UNL     1      12.066  -3.878  -2.597  0.00  0.00    +0.020 A 
ATOM     31  C   UNL     1      12.047  -3.102  -1.453  0.00  0.00    +0.007 A 
ATOM     32 CL   UNL     1      11.130  -5.833  -4.220  0.00  0.00    -0.084 Cl
ENDBRANCH  25  26
ENDBRANCH  10  25
TORSDOF 6
