REMARK  Name = ZINC33011427
REMARK  7 active torsions:
REMARK  status: ('A' for Active; 'I' for Inactive)
REMARK    1  A    between atoms: C_1  and  C_2
REMARK    2  A    between atoms: C_17  and  O_31
REMARK    3  A    between atoms: C_19  and  C_21
REMARK    4  A    between atoms: C_26  and  O_27
REMARK    5  A    between atoms: O_27  and  C_28
REMARK    6  A    between atoms: C_28  and  C_29
REMARK    7  A    between atoms: C_28  and  C_30
REMARK                            x       y       z     vdW  Elec       q    Type
REMARK                         _______ _______ _______ _____ _____    ______ ____
ROOT
ATOM      1  C   UNL     1      -0.562   1.927   0.151  0.00  0.00    +0.068 C 
ATOM      2  C   UNL     1      -0.537   0.429   0.313  0.00  0.00    +0.066 A 
ATOM      3  C   UNL     1      -0.367  -0.491  -0.705  0.00  0.00    +0.028 A 
ATOM      4  C   UNL     1      -0.401  -1.760  -0.144  0.00  0.00    +0.165 A 
ATOM      5  N   UNL     1      -0.595  -1.602   1.187  0.00  0.00    -0.194 N 
ATOM      6  N   UNL     1      -0.669  -0.224   1.446  0.00  0.00    -0.168 NA
ATOM      7  C   UNL     1      -0.700  -2.626   2.133  0.00  0.00    +0.177 A 
ATOM      8  C   UNL     1      -0.908  -2.302   3.487  0.00  0.00    +0.054 A 
ATOM      9  C   UNL     1      -1.011  -3.288   4.416  0.00  0.00    +0.054 A 
ATOM     10  C   UNL     1      -0.907  -4.631   4.005  0.00  0.00    +0.178 A 
ATOM     11  N   UNL     1      -0.961  -5.790   4.640  0.00  0.00    -0.128 NA
ATOM     12  N   UNL     1      -0.805  -6.746   3.792  0.00  0.00    -0.136 NA
ATOM     13  C   UNL     1      -0.645  -6.260   2.586  0.00  0.00    +0.249 A 
ATOM     14  N   UNL     1      -0.703  -4.913   2.676  0.00  0.00    -0.198 N 
ATOM     15  N   UNL     1      -0.607  -3.876   1.747  0.00  0.00    -0.144 NA
ATOM     16  N   UNL     1      -0.244  -2.881  -0.903  0.00  0.00    -0.197 NA
ATOM     17  C   UNL     1       0.220  -2.767  -2.111  0.00  0.00    +0.190 C 
ATOM     18  C   UNL     1       0.660  -1.464  -2.712  0.00  0.00    +0.108 C 
ATOM     19  C   UNL     1      -0.174  -0.289  -2.187  0.00  0.00    +0.067 C 
ENDROOT
BRANCH  19  20
ATOM     20  C   UNL     1      -1.514  -0.264  -2.877  0.00  0.00    +0.002 A 
ATOM     21  C   UNL     1      -2.354  -1.357  -2.796  0.00  0.00    +0.008 A 
ATOM     22  C   UNL     1      -3.583  -1.335  -3.430  0.00  0.00    +0.001 A 
ATOM     23  C   UNL     1      -3.974  -0.218  -4.145  0.00  0.00    +0.004 A 
ATOM     24  C   UNL     1      -3.138   0.878  -4.228  0.00  0.00    +0.046 A 
ATOM     25  C   UNL     1      -1.906   0.860  -3.589  0.00  0.00    +0.125 A 
BRANCH  25  26
ATOM     26  O   UNL     1      -1.084   1.940  -3.665  0.00  0.00    -0.489 OA
BRANCH  26  27
ATOM     27  C   UNL     1      -1.599   3.103  -4.316  0.00  0.00    +0.167 C 
ATOM     28  C   UNL     1      -0.872   4.343  -3.794  0.00  0.00    +0.051 C 
ATOM     29  C   UNL     1      -1.380   2.981  -5.825  0.00  0.00    +0.051 C 
ENDBRANCH  26  27
ENDBRANCH  25  26
ENDBRANCH  19  20
BRANCH  17  30
ATOM     30  O   UNL     1       0.312  -3.880  -2.867  0.00  0.00    -0.495 OA
ATOM     31  H   UNL     1       0.013  -4.684  -2.421  0.00  0.00    +0.293 HD
ENDBRANCH  17  30
TORSDOF 4
