REMARK  Name = ZINC09060195
REMARK  7 active torsions:
REMARK  status: ('A' for Active; 'I' for Inactive)
REMARK    1  A    between atoms: C_1  and  C_2
REMARK    2  A    between atoms: N_4  and  C_26
REMARK    3  A    between atoms: N_13  and  C_18
REMARK    4  A    between atoms: N_16  and  C_17
REMARK    5  A    between atoms: C_18  and  C_19
REMARK    6  A    between atoms: C_19  and  C_20
REMARK    7  A    between atoms: C_26  and  C_27
REMARK                            x       y       z     vdW  Elec       q    Type
REMARK                         _______ _______ _______ _____ _____    ______ ____
ROOT
ATOM      1  C   UNL     1      -2.193  -1.873   3.954  0.00  0.00    +0.064 C 
ATOM      2  C   UNL     1      -2.660  -0.581   3.336  0.00  0.00    +0.054 C 
ATOM      3  N   UNL     1      -2.525  -0.439   2.081  0.00  0.00    -0.184 NA
ATOM      4  N   UNL     1      -2.927   0.722   1.401  0.00  0.00    -0.188 N 
ATOM      5  C   UNL     1      -3.733   1.608   2.088  0.00  0.00    +0.221 A 
ATOM      6  N   UNL     1      -4.421   2.630   1.638  0.00  0.00    -0.195 NA
ATOM      7  C   UNL     1      -5.065   3.209   2.639  0.00  0.00    +0.170 A 
ATOM      8  C   UNL     1      -4.759   2.502   3.813  0.00  0.00    +0.153 A 
ATOM      9  N   UNL     1      -3.910   1.495   3.444  0.00  0.00    -0.299 N 
ATOM     10  C   UNL     1      -3.262   0.457   4.244  0.00  0.00    +0.177 C 
ATOM     11  C   UNL     1      -5.311   2.896   5.048  0.00  0.00    +0.282 A 
ATOM     12  O   UNL     1      -5.062   2.300   6.082  0.00  0.00    -0.265 OA
ATOM     13  N   UNL     1      -6.133   3.974   5.027  0.00  0.00    -0.259 N 
ATOM     14  C   UNL     1      -6.419   4.642   3.900  0.00  0.00    +0.333 A 
ATOM     15  O   UNL     1      -7.167   5.598   3.968  0.00  0.00    -0.246 OA
ATOM     16  N   UNL     1      -5.915   4.304   2.690  0.00  0.00    -0.280 N 
ATOM     17  C   UNL     1      -6.254   5.064   1.484  0.00  0.00    +0.155 C 
ENDROOT
BRANCH  13  18
ATOM     18  C   UNL     1      -6.734   4.425   6.285  0.00  0.00    +0.134 C 
BRANCH  18  19
ATOM     19  C   UNL     1      -5.813   5.450   6.950  0.00  0.00    +0.057 C 
BRANCH  19  20
ATOM     20  C   UNL     1      -6.431   5.915   8.244  0.00  0.00    -0.046 A 
ATOM     21  C   UNL     1      -7.269   7.014   8.254  0.00  0.00    +0.004 A 
ATOM     22  C   UNL     1      -7.840   7.437   9.439  0.00  0.00    +0.000 A 
ATOM     23  C   UNL     1      -7.564   6.768  10.617  0.00  0.00    +0.000 A 
ATOM     24  C   UNL     1      -6.721   5.672  10.608  0.00  0.00    +0.000 A 
ATOM     25  C   UNL     1      -6.155   5.246   9.421  0.00  0.00    +0.004 A 
ENDBRANCH  19  20
ENDBRANCH  18  19
ENDBRANCH  13  18
BRANCH   4  26
ATOM     26  C   UNL     1      -2.514   0.980   0.019  0.00  0.00    +0.170 C 
BRANCH  26  27
ATOM     27  C   UNL     1      -1.219   1.751   0.017  0.00  0.00    -0.028 A 
ATOM     28  C   UNL     1      -0.013   1.076   0.008  0.00  0.00    +0.005 A 
ATOM     29  C   UNL     1       1.175   1.783   0.000  0.00  0.00    +0.000 A 
ATOM     30  C   UNL     1       1.156   3.165   0.008  0.00  0.00    +0.000 A 
ATOM     31  C   UNL     1      -0.050   3.840   0.022  0.00  0.00    +0.000 A 
ATOM     32  C   UNL     1      -1.238   3.133   0.030  0.00  0.00    +0.005 A 
ENDBRANCH  26  27
ENDBRANCH   4  26
TORSDOF 5
