REMARK  Name = ZINC35378807
REMARK  5 active torsions:
REMARK  status: ('A' for Active; 'I' for Inactive)
REMARK    1  A    between atoms: C_1  and  C_2
REMARK    2  A    between atoms: C_7  and  S_8
REMARK    3  A    between atoms: S_8  and  N_11
REMARK    4  A    between atoms: C_15  and  C_18
REMARK    5  A    between atoms: N_23  and  C_26
REMARK                            x       y       z     vdW  Elec       q    Type
REMARK                         _______ _______ _______ _____ _____    ______ ____
ROOT
ATOM      1  N   UNL     1       1.443   1.024   2.793  0.00  0.00    -0.176 NA
ATOM      2  C   UNL     1       2.635   0.414   3.398  0.00  0.00    +0.109 C 
ATOM      3  C   UNL     1       3.168   1.350   4.487  0.00  0.00    +0.018 C 
ATOM      4  C   UNL     1       3.407   2.738   3.889  0.00  0.00    +0.015 C 
ATOM      5  C   UNL     1       2.084   3.306   3.369  0.00  0.00    +0.091 C 
ATOM      6  C   UNL     1       1.540   2.390   2.263  0.00  0.00    +0.122 C 
ENDROOT
BRANCH   5   7
ATOM      7  C   UNL     1       2.315   4.687   2.811  0.00  0.00    +0.220 C 
ATOM      8  O   UNL     1       2.685   4.823   1.664  0.00  0.00    -0.275 OA
ATOM      9  N   UNL     1       2.109   5.770   3.586  0.00  0.00    -0.305 N 
ATOM     10  C   UNL     1       1.779   5.628   5.012  0.00  0.00    +0.089 C 
ATOM     11  C   UNL     1       2.721   6.527   5.820  0.00  0.00    -0.059 C 
ATOM     12  N   UNL     1       2.638   7.903   5.313  0.00  0.00    +0.384 N 
ATOM     13  C   UNL     1       3.131   7.956   3.930  0.00  0.00    -0.059 C 
ATOM     14  C   UNL     1       2.215   7.128   3.030  0.00  0.00    +0.089 C 
ATOM     15  H   UNL     1       1.678   8.212   5.339  0.00  0.00    -0.081 HD
BRANCH  12  16
ATOM     16  C   UNL     1       3.457   8.784   6.157  0.00  0.00    -0.068 C 
ATOM     17  C   UNL     1       2.938   8.738   7.595  0.00  0.00    -0.015 C 
ATOM     18  C   UNL     1       3.790   9.656   8.474  0.00  0.00    -0.002 C 
ATOM     19  C   UNL     1       3.705  11.089   7.947  0.00  0.00    -0.000 C 
ATOM     20  C   UNL     1       4.224  11.136   6.508  0.00  0.00    -0.002 C 
ATOM     21  C   UNL     1       3.372  10.218   5.629  0.00  0.00    -0.015 C 
ENDBRANCH  12  16
ENDBRANCH   5   7
BRANCH   1  22
ATOM     22  S   UNL     1       0.019   0.183   2.704  0.00  0.00    +0.061 S 
ATOM     23  O   UNL     1      -1.018   1.151   2.611  0.00  0.00    -0.153 OA
ATOM     24  O   UNL     1       0.059  -0.794   3.735  0.00  0.00    -0.153 OA
BRANCH  22  31
ATOM     25  C   UNL     1      -0.001   1.508  -0.009  0.00  0.00    +0.046 C 
ATOM     26  C   UNL     1       0.017   0.001  -0.018  0.00  0.00    -0.022 A 
ATOM     27  C   UNL     1       0.029  -0.682  -1.221  0.00  0.00    +0.032 A 
ATOM     28  C   UNL     1       0.045  -2.066  -1.227  0.00  0.00    +0.076 A 
ATOM     29  C   UNL     1       0.048  -2.768  -0.022  0.00  0.00    +0.144 A 
ATOM     30  C   UNL     1       0.038  -2.079   1.177  0.00  0.00    +0.076 A 
ATOM     31  C   UNL     1       0.026  -0.695   1.177  0.00  0.00    +0.112 A 
ATOM     32  O   UNL     1       0.060  -4.128  -0.040  0.00  0.00    -0.481 OA
ATOM     33  C   UNL     1      -0.623  -4.763  -1.124  0.00  0.00    +0.325 C 
ATOM     34  C   UNL     1      -0.244  -4.095  -2.422  0.00  0.00    +0.255 C 
ATOM     35  O   UNL     1      -0.210  -4.737  -3.450  0.00  0.00    -0.272 OA
ATOM     36  N   UNL     1       0.057  -2.778  -2.435  0.00  0.00    -0.280 N 
ATOM     37  H   UNL     1       0.278  -2.332  -3.267  0.00  0.00    +0.155 HD
ENDBRANCH  22  31
ENDBRANCH   1  22
TORSDOF 4
