REMARK  Name = ZINC09752687
REMARK  5 active torsions:
REMARK  status: ('A' for Active; 'I' for Inactive)
REMARK    1  A    between atoms: C_1  and  C_2
REMARK    2  A    between atoms: C_8  and  C_13
REMARK    3  A    between atoms: C_13  and  O_15
REMARK    4  A    between atoms: O_15  and  C_16
REMARK    5  A    between atoms: N_20  and  C_21
REMARK                            x       y       z     vdW  Elec       q    Type
REMARK                         _______ _______ _______ _____ _____    ______ ____
ROOT
ATOM      1  C   UNL     1       1.173   5.751  -1.042  0.00  0.00    +0.079 C 
ATOM      2  C   UNL     1       2.310   5.344  -0.102  0.00  0.00    +0.185 C 
ATOM      3  C   UNL     1       3.637   5.879  -0.659  0.00  0.00    +0.096 C 
ATOM      4  C   UNL     1       4.752   5.334   0.248  0.00  0.00    +0.114 C 
ATOM      5  C   UNL     1       4.425   5.707   1.677  0.00  0.00    +0.015 A 
ATOM      6  C   UNL     1       5.449   5.777   2.598  0.00  0.00    +0.024 A 
ATOM      7  C   UNL     1       5.174   6.104   3.928  0.00  0.00    +0.060 A 
ATOM      8  C   UNL     1       3.856   6.359   4.317  0.00  0.00    +0.018 A 
ATOM      9  C   UNL     1       2.841   6.290   3.392  0.00  0.00    +0.047 A 
ATOM     10  C   UNL     1       3.119   5.967   2.063  0.00  0.00    +0.128 A 
ATOM     11  O   UNL     1       2.088   5.918   1.183  0.00  0.00    -0.468 OA
ATOM     12  N   UNL     1       4.719   3.865   0.160  0.00  0.00    -0.292 N 
ATOM     13  C   UNL     1       3.538   3.230   0.071  0.00  0.00    +0.310 C 
ATOM     14  O   UNL     1       3.526   2.014   0.068  0.00  0.00    -0.252 OA
ATOM     15  N   UNL     1       2.373   3.888  -0.019  0.00  0.00    -0.216 N 
ATOM     16  H   UNL     1       5.545   3.357   0.169  0.00  0.00    +0.151 HD
ENDROOT
BRANCH  15  17
ATOM     17  C   UNL     1       1.179   3.156  -0.028  0.00  0.00    +0.042 A 
ATOM     18  C   UNL     1       0.692   2.634  -1.219  0.00  0.00    +0.025 A 
ATOM     19  C   UNL     1      -0.485   1.912  -1.224  0.00  0.00    +0.017 A 
ATOM     20  C   UNL     1      -1.182   1.713  -0.046  0.00  0.00    +0.018 A 
ATOM     21  C   UNL     1      -0.696   2.228   1.143  0.00  0.00    +0.017 A 
ATOM     22  C   UNL     1       0.481   2.950   1.155  0.00  0.00    +0.025 A 
ATOM     23 BR   UNL     1      -2.798   0.731  -0.059  0.00  0.00    -0.050 Br
ENDBRANCH  15  17
BRANCH   7  24
ATOM     24  C   UNL     1       6.267   6.180   4.915  0.00  0.00    +0.339 C 
ATOM     25  O   UNL     1       7.411   5.959   4.572  0.00  0.00    -0.245 OA
BRANCH  24  26
ATOM     26  O   UNL     1       5.997   6.496   6.196  0.00  0.00    -0.464 OA
ATOM     27  C   UNL     1       7.122   6.552   7.113  0.00  0.00    +0.280 C 
ENDBRANCH  24  26
ENDBRANCH   7  24
TORSDOF 3
