REMARK  Name = ZINC21090125
REMARK  11 active torsions:
REMARK  status: ('A' for Active; 'I' for Inactive)
REMARK    1  A    between atoms: C_1  and  C_2
REMARK    2  A    between atoms: C_5  and  N_9
REMARK    3  A    between atoms: C_6  and  C_8
REMARK    4  A    between atoms: C_10  and  C_12
REMARK    5  A    between atoms: C_12  and  C_14
REMARK    6  A    between atoms: C_12  and  N_18
REMARK    7  A    between atoms: C_14  and  C_15
REMARK    8  A    between atoms: C_15  and  C_16
REMARK    9  A    between atoms: C_15  and  C_17
REMARK   10  A    between atoms: N_18  and  S_19
REMARK   11  A    between atoms: S_19  and  C_22
REMARK                            x       y       z     vdW  Elec       q    Type
REMARK                         _______ _______ _______ _____ _____    ______ ____
ROOT
ATOM      1  C   UNL     1      -0.080   1.876  -0.321  0.00  0.00    +0.163 C 
ENDROOT
BRANCH   1   3
ATOM      2  N   UNL     1      -0.235  -0.493  -1.012  0.00  0.00    -0.284 N 
ATOM      3  C   UNL     1      -0.320   0.419  -0.024  0.00  0.00    +0.236 C 
ATOM      4  O   UNL     1      -0.589   0.066   1.105  0.00  0.00    -0.274 OA
ATOM      5  H   UNL     1      -0.066  -0.167  -2.049  0.00  0.00    +0.155 HD
BRANCH   2  10
ATOM      6  C   UNL     1      -0.755  -6.017   0.172  0.00  0.00    +0.044 C 
ATOM      7  C   UNL     1      -0.617  -4.550  -0.142  0.00  0.00    -0.050 A 
ATOM      8  C   UNL     1      -0.236  -3.664   0.849  0.00  0.00    +0.005 A 
ATOM      9  C   UNL     1      -0.109  -2.319   0.564  0.00  0.00    +0.024 A 
ATOM     10  C   UNL     1      -0.364  -1.856  -0.720  0.00  0.00    +0.036 A 
ATOM     11  C   UNL     1      -0.751  -2.747  -1.712  0.00  0.00    -0.029 A 
ATOM     12  C   UNL     1      -0.871  -4.092  -1.422  0.00  0.00    +0.008 A 
ATOM     13  C   UNL     1      -1.034  -2.248  -3.106  0.00  0.00    +0.045 C 
ENDBRANCH   2  10
ENDBRANCH   1   3
BRANCH   1  14
ATOM     14  N   UNL     1      -0.611   2.692   0.774  0.00  0.00    -0.178 NA
ATOM     15  H   UNL     1      -0.691   2.268   1.786  0.00  0.00    +0.149 HD
BRANCH  14  16
ATOM     16  S   UNL     1      -1.317   4.154   0.450  0.00  0.00    +0.059 S 
ATOM     17  O   UNL     1      -1.739   4.687   1.698  0.00  0.00    -0.153 OA
ATOM     18  O   UNL     1      -0.431   4.851  -0.415  0.00  0.00    -0.153 OA
BRANCH  16  19
ATOM     19  C   UNL     1      -2.779   3.832  -0.479  0.00  0.00    +0.106 A 
ATOM     20  C   UNL     1      -3.983   3.627   0.181  0.00  0.00    +0.030 A 
ATOM     21  C   UNL     1      -5.138   3.374  -0.526  0.00  0.00    +0.028 A 
ATOM     22  C   UNL     1      -5.100   3.322  -1.916  0.00  0.00    +0.049 A 
ATOM     23  C   UNL     1      -3.878   3.531  -2.582  0.00  0.00    +0.000 A 
ATOM     24  C   UNL     1      -2.719   3.792  -1.844  0.00  0.00    +0.038 A 
ATOM     25  C   UNL     1      -3.848   3.475  -4.044  0.00  0.00    +0.015 A 
ATOM     26  C   UNL     1      -5.004   3.223  -4.707  0.00  0.00    +0.071 A 
ATOM     27  C   UNL     1      -6.204   3.021  -3.991  0.00  0.00    +0.249 A 
ATOM     28  O   UNL     1      -7.232   2.796  -4.606  0.00  0.00    -0.268 OA
ATOM     29  N   UNL     1      -6.241   3.071  -2.648  0.00  0.00    -0.322 N 
ATOM     30  H   UNL     1      -7.200   2.908  -2.134  0.00  0.00    +0.169 HD
ENDBRANCH  16  19
ENDBRANCH  14  16
ENDBRANCH   1  14
BRANCH   1  31
ATOM     31  C   UNL     1       1.423   2.127  -0.462  0.00  0.00    +0.032 C 
BRANCH  31  32
ATOM     32  C   UNL     1       1.948   1.397  -1.699  0.00  0.00    -0.015 C 
ATOM     33  C   UNL     1       1.359   2.037  -2.958  0.00  0.00    +0.007 C 
ATOM     34  C   UNL     1       3.474   1.499  -1.742  0.00  0.00    +0.007 C 
ENDBRANCH  31  32
ENDBRANCH   1  31
TORSDOF 7
