REMARK  Name = ZINC63165690
REMARK  9 active torsions:
REMARK  status: ('A' for Active; 'I' for Inactive)
REMARK    1  A    between atoms: C_1  and  C_2
REMARK    2  A    between atoms: C_4  and  C_36
REMARK    3  A    between atoms: C_5  and  C_34
REMARK    4  A    between atoms: C_6  and  N_15
REMARK    5  A    between atoms: N_8  and  C_9
REMARK    6  A    between atoms: C_16  and  C_18
REMARK    7  A    between atoms: C_18  and  S_19
REMARK    8  A    between atoms: S_19  and  C_20
REMARK    9  A    between atoms: C_23  and  C_25
REMARK                            x       y       z     vdW  Elec       q    Type
REMARK                         _______ _______ _______ _____ _____    ______ ____
ROOT
ATOM      1  N   UNL     1       2.378  -2.042   1.321  0.00  0.00    -0.294 N 
ATOM      2  C   UNL     1       2.334  -3.002   2.267  0.00  0.00    +0.225 C 
ATOM      3  O   UNL     1       1.312  -3.631   2.445  0.00  0.00    -0.275 OA
ATOM      4  H   UNL     1       3.214  -1.589   1.129  0.00  0.00    +0.151 HD
ENDROOT
BRANCH   1   9
ATOM      5  C   UNL     1       0.384   1.719  -0.354  0.00  0.00    +0.029 C 
ATOM      6  C   UNL     1       0.136   0.212  -0.273  0.00  0.00    +0.083 C 
ATOM      7  C   UNL     1       0.869  -0.500  -1.387  0.00  0.00    -0.039 C 
ATOM      8  C   UNL     1       1.459  -1.587  -0.895  0.00  0.00    +0.065 C 
ATOM      9  C   UNL     1       1.164  -1.683   0.584  0.00  0.00    +0.186 C 
ATOM     10  N   UNL     1       0.698  -0.334   0.985  0.00  0.00    -0.271 NA
ATOM     11  C   UNL     1       0.924  -0.051  -2.824  0.00  0.00    +0.042 C 
BRANCH  10  12
ATOM     12  C   UNL     1      -0.332  -0.418   2.029  0.00  0.00    +0.059 C 
ATOM     13  C   UNL     1      -1.074   0.916   2.122  0.00  0.00    +0.019 C 
ATOM     14  C   UNL     1      -2.147   0.828   3.209  0.00  0.00    +0.002 C 
ATOM     15  C   UNL     1      -1.486   0.517   4.553  0.00  0.00    +0.000 C 
ATOM     16  C   UNL     1      -0.744  -0.817   4.460  0.00  0.00    +0.002 C 
ATOM     17  C   UNL     1       0.329  -0.729   3.373  0.00  0.00    +0.019 C 
ENDBRANCH  10  12
BRANCH   8  18
ATOM     18  C   UNL     1       2.248  -2.516  -1.647  0.00  0.00    +0.098 C 
ATOM     19  N   UNL     1       2.874  -3.253  -2.243  0.00  0.00    -0.191 NA
ENDBRANCH   8  18
ENDBRANCH   1   9
BRANCH   2  20
ATOM     20  C   UNL     1       3.554  -3.294   3.102  0.00  0.00    +0.174 C 
BRANCH  20  21
ATOM     21  S   UNL     1       3.179  -4.627   4.275  0.00  0.00    -0.056 S 
BRANCH  21  22
ATOM     22  C   UNL     1       4.683  -4.847   5.165  0.00  0.00    +0.278 A 
ATOM     23  N   UNL     1       5.804  -4.166   4.986  0.00  0.00    -0.101 NA
ATOM     24  N   UNL     1       6.698  -4.592   5.809  0.00  0.00    -0.107 NA
ATOM     25  C   UNL     1       6.184  -5.563   6.546  0.00  0.00    +0.248 A 
ATOM     26  O   UNL     1       4.899  -5.734   6.152  0.00  0.00    -0.411 OA
BRANCH  25  27
ATOM     27  C   UNL     1       6.846  -6.279   7.554  0.00  0.00    +0.044 C 
ATOM     28  C   UNL     1       8.163  -6.111   7.983  0.00  0.00    +0.008 A 
ATOM     29  C   UNL     1       9.192  -5.234   7.579  0.00  0.00    +0.010 A 
ATOM     30  C   UNL     1      10.405  -5.294   8.187  0.00  0.00    +0.001 A 
ATOM     31  C   UNL     1      10.666  -6.208   9.210  0.00  0.00    +0.002 A 
ATOM     32  C   UNL     1       9.725  -7.080   9.648  0.00  0.00    +0.026 A 
ATOM     33  C   UNL     1       8.433  -7.076   9.061  0.00  0.00    +0.043 A 
ATOM     34  N   UNL     1       7.364  -7.808   9.303  0.00  0.00    -0.380 N 
ATOM     35  C   UNL     1       6.279  -7.392   8.408  0.00  0.00    +0.154 C 
ATOM     36  H   UNL     1       7.303  -8.510   9.970  0.00  0.00    +0.160 HD
ENDBRANCH  25  27
ENDBRANCH  21  22
ENDBRANCH  20  21
ENDBRANCH   2  20
TORSDOF 7
