REMARK  Name = ZINC39680251
REMARK  9 active torsions:
REMARK  status: ('A' for Active; 'I' for Inactive)
REMARK    1  A    between atoms: C_1  and  C_2
REMARK    2  A    between atoms: C_2  and  O_3
REMARK    3  A    between atoms: O_3  and  C_4
REMARK    4  A    between atoms: C_7  and  N_10
REMARK    5  A    between atoms: C_18  and  S_19
REMARK    6  A    between atoms: S_19  and  C_20
REMARK    7  A    between atoms: C_20  and  C_21
REMARK    8  A    between atoms: C_26  and  C_33
REMARK    9  A    between atoms: C_27  and  C_32
REMARK                            x       y       z     vdW  Elec       q    Type
REMARK                         _______ _______ _______ _____ _____    ______ ____
ROOT
ATOM      1  N   UNL     1      -1.989  -5.991  -0.010  0.00  0.00    -0.287 N 
ATOM      2  C   UNL     1      -2.554  -6.749  -1.025  0.00  0.00    +0.074 A 
ATOM      3  C   UNL     1      -3.100  -6.444  -2.262  0.00  0.00    +0.028 A 
ATOM      4  C   UNL     1      -3.594  -7.453  -3.063  0.00  0.00    +0.002 A 
ATOM      5  C   UNL     1      -3.549  -8.772  -2.638  0.00  0.00    +0.002 A 
ATOM      6  C   UNL     1      -3.010  -9.094  -1.412  0.00  0.00    +0.030 A 
ATOM      7  C   UNL     1      -2.505  -8.084  -0.590  0.00  0.00    +0.091 A 
ATOM      8  N   UNL     1      -1.927  -8.084   0.640  0.00  0.00    -0.222 NA
ATOM      9  C   UNL     1      -1.617  -6.858   0.982  0.00  0.00    +0.175 A 
ENDROOT
BRANCH   1  13
ATOM     10  C   UNL     1      -1.498  -1.849   0.006  0.00  0.00    +0.121 A 
ATOM     11  C   UNL     1      -0.387  -2.679  -0.003  0.00  0.00    +0.047 A 
ATOM     12  C   UNL     1      -0.548  -4.050  -0.008  0.00  0.00    +0.030 A 
ATOM     13  C   UNL     1      -1.824  -4.598  -0.004  0.00  0.00    +0.049 A 
ATOM     14  C   UNL     1      -2.936  -3.768   0.005  0.00  0.00    +0.030 A 
ATOM     15  C   UNL     1      -2.773  -2.396   0.016  0.00  0.00    +0.047 A 
BRANCH  10  16
ATOM     16  O   UNL     1      -1.339  -0.499   0.012  0.00  0.00    -0.492 OA
BRANCH  16  18
ATOM     17  C   UNL     1      -0.019   1.526   0.010  0.00  0.00    +0.048 C 
ATOM     18  C   UNL     1       0.002  -0.004   0.002  0.00  0.00    +0.225 C 
ENDBRANCH  16  18
ENDBRANCH  10  16
ENDBRANCH   1  13
BRANCH   9  19
ATOM     19  S   UNL     1      -0.841  -6.393   2.494  0.00  0.00    -0.080 S 
BRANCH  19  20
ATOM     20  C   UNL     1      -0.607  -7.965   3.368  0.00  0.00    +0.151 C 
BRANCH  20  21
ATOM     21  C   UNL     1       0.057  -7.707   4.697  0.00  0.00    +0.136 C 
ATOM     22  N   UNL     1       0.340  -6.466   5.000  0.00  0.00    -0.160 NA
ATOM     23  C   UNL     1       0.932  -6.145   6.166  0.00  0.00    +0.275 C 
ATOM     24  O   UNL     1       1.196  -4.991   6.449  0.00  0.00    -0.268 OA
ATOM     25  C   UNL     1       1.249  -7.263   7.091  0.00  0.00    +0.114 C 
ATOM     26  C   UNL     1       1.825  -7.339   8.314  0.00  0.00    +0.098 C 
ATOM     27  C   UNL     1       1.840  -8.805   8.687  0.00  0.00    +0.210 C 
ATOM     28  O   UNL     1       1.240  -9.511   7.596  0.00  0.00    -0.468 OA
ATOM     29  C   UNL     1       0.887  -8.626   6.649  0.00  0.00    +0.230 C 
ATOM     30  N   UNL     1       0.304  -8.753   5.471  0.00  0.00    -0.199 NA
ATOM     31  C   UNL     1       3.280  -9.279   8.890  0.00  0.00    +0.057 C 
BRANCH  26  32
ATOM     32  C   UNL     1       2.340  -6.210   9.126  0.00  0.00    +0.387 C 
ATOM     33  O   UNL     1       2.264  -5.067   8.701  0.00  0.00    -0.241 OA
ATOM     34  O   UNL     1       2.839  -6.423  10.221  0.00  0.00    -0.241 OA
ENDBRANCH  26  32
ENDBRANCH  20  21
ENDBRANCH  19  20
ENDBRANCH   9  19
TORSDOF 7
