REMARK  Name = ZINC04236893
REMARK  10 active torsions:
REMARK  status: ('A' for Active; 'I' for Inactive)
REMARK    1  A    between atoms: C_1  and  C_2
REMARK    2  A    between atoms: C_7  and  C_40
REMARK    3  A    between atoms: C_12  and  O_26
REMARK    4  A    between atoms: C_14  and  C_16
REMARK    5  A    between atoms: C_16  and  C_17
REMARK    6  A    between atoms: N_19  and  C_20
REMARK    7  A    between atoms: C_20  and  C_21
REMARK    8  A    between atoms: C_29  and  C_32
REMARK    9  A    between atoms: C_32  and  O_33
REMARK   10  A    between atoms: O_33  and  C_34
REMARK                            x       y       z     vdW  Elec       q    Type
REMARK                         _______ _______ _______ _____ _____    ______ ____
ROOT
ATOM      1  C   UNL     1      -0.521  -2.442  -1.069  0.00  0.00    +0.012 C 
ATOM      2  C   UNL     1      -1.412  -2.068   0.131  0.00  0.00    -0.023 C 
ATOM      3  C   UNL     1      -2.877  -2.118  -0.301  0.00  0.00    +0.010 C 
ATOM      4  C   UNL     1      -3.326  -3.551  -0.579  0.00  0.00    +0.033 C 
ATOM      5  C   UNL     1      -3.155  -4.384   0.692  0.00  0.00    +0.130 C 
ATOM      6  C   UNL     1      -1.673  -4.411   1.080  0.00  0.00    +0.021 C 
ATOM      7  C   UNL     1      -1.144  -2.998   1.302  0.00  0.00    +0.006 C 
ATOM      8  C   UNL     1      -1.771  -2.449   2.589  0.00  0.00    +0.007 C 
ATOM      9  C   UNL     1      -1.278  -1.031   2.882  0.00  0.00    +0.032 C 
ATOM     10  C   UNL     1      -1.687  -0.118   1.730  0.00  0.00    +0.119 C 
ATOM     11  C   UNL     1      -1.053  -0.609   0.439  0.00  0.00    +0.032 C 
ATOM     12  C   UNL     1      -0.909  -5.196   0.012  0.00  0.00    +0.172 C 
ATOM     13  O   UNL     1      -1.463  -6.531   0.017  0.00  0.00    -0.347 OA
ATOM     14  C   UNL     1      -2.836  -6.529  -0.396  0.00  0.00    +0.288 C 
ATOM     15  O   UNL     1      -3.615  -5.716   0.474  0.00  0.00    -0.344 OA
ATOM     16  C   UNL     1      -1.546  -5.221   2.386  0.00  0.00    +0.016 C 
ENDROOT
BRANCH  10  17
ATOM     17  O   UNL     1      -1.252   1.218   2.006  0.00  0.00    -0.391 OA
ATOM     18  H   UNL     1      -1.620   1.591   2.818  0.00  0.00    +0.210 HD
ENDBRANCH  10  17
BRANCH  11  19
ATOM     19  C   UNL     1       0.467  -0.450   0.486  0.00  0.00    +0.102 C 
BRANCH  19  20
ATOM     20  C   UNL     1       0.818   1.015   0.547  0.00  0.00    +0.214 C 
ATOM     21  O   UNL     1      -0.005   1.849   0.232  0.00  0.00    -0.276 OA
ATOM     22  N   UNL     1       2.047   1.397   0.946  0.00  0.00    -0.311 N 
ATOM     23  H   UNL     1       2.706   0.730   1.194  0.00  0.00    +0.149 HD
BRANCH  22  24
ATOM     24  C   UNL     1       2.387   2.821   1.006  0.00  0.00    +0.146 C 
BRANCH  24  25
ATOM     25  C   UNL     1       3.809   2.978   1.478  0.00  0.00    +0.007 A 
ATOM     26  C   UNL     1       4.951   3.028   0.749  0.00  0.00    +0.013 A 
ATOM     27  C   UNL     1       6.159   3.179   1.404  0.00  0.00    +0.008 A 
ATOM     28  C   UNL     1       6.166   3.273   2.756  0.00  0.00    +0.045 A 
ATOM     29  S   UNL     1       4.427   3.154   3.144  0.00  0.00    -0.100 S 
ENDBRANCH  24  25
ENDBRANCH  22  24
ENDBRANCH  19  20
ENDBRANCH  11  19
BRANCH  14  30
ATOM     30  C   UNL     1      -3.366  -7.966  -0.364  0.00  0.00    +0.290 C 
BRANCH  30  31
ATOM     31  O   UNL     1      -3.280  -8.476   0.968  0.00  0.00    -0.487 OA
BRANCH  31  32
ATOM     32  C   UNL     1      -3.714  -9.748   1.170  0.00  0.00    +0.121 A 
ATOM     33  C   UNL     1      -4.217 -10.488   0.110  0.00  0.00    +0.045 A 
ATOM     34  C   UNL     1      -4.651 -11.783   0.317  0.00  0.00    +0.004 A 
ATOM     35  C   UNL     1      -4.596 -12.337   1.582  0.00  0.00    +0.000 A 
ATOM     36  C   UNL     1      -4.101 -11.600   2.642  0.00  0.00    +0.004 A 
ATOM     37  C   UNL     1      -3.659 -10.307   2.438  0.00  0.00    +0.045 A 
ENDBRANCH  31  32
ENDBRANCH  30  31
ENDBRANCH  14  30
TORSDOF 8
