REMARK  Name = ZINC62566562
REMARK  7 active torsions:
REMARK  status: ('A' for Active; 'I' for Inactive)
REMARK    1  A    between atoms: C_4  and  C_7
REMARK    2  A    between atoms: C_16  and  C_18
REMARK    3  A    between atoms: C_18  and  N_19
REMARK    4  A    between atoms: N_19  and  C_20
REMARK    5  A    between atoms: N_19  and  C_33
REMARK    6  A    between atoms: C_20  and  C_21
REMARK    7  A    between atoms: C_33  and  C_34
REMARK                            x       y       z     vdW  Elec       q    Type
REMARK                         _______ _______ _______ _____ _____    ______ ____
ROOT
ATOM      1  N   UNL     1       6.572  -5.009   2.868  0.00  0.00    -0.286 NA
ENDROOT
BRANCH   1   2
ATOM      2  C   UNL     1       5.249  -4.429   3.133  0.00  0.00    +0.159 C 
BRANCH   2  12
ATOM      3  C   UNL     1       4.329  -0.427  -0.820  0.00  0.00    +0.004 A 
ATOM      4  C   UNL     1       5.366  -0.303  -1.683  0.00  0.00    +0.056 A 
ATOM      5  S   UNL     1       6.532  -1.521  -1.106  0.00  0.00    -0.076 S 
ATOM      6  C   UNL     1       5.609  -2.163   0.267  0.00  0.00    +0.116 A 
ATOM      7  C   UNL     1       4.422  -1.414   0.250  0.00  0.00    +0.080 A 
ATOM      8  C   UNL     1       3.475  -1.728   1.276  0.00  0.00    +0.260 A 
ATOM      9  O   UNL     1       2.412  -1.135   1.341  0.00  0.00    -0.267 OA
ATOM     10  N   UNL     1       3.776  -2.689   2.169  0.00  0.00    -0.309 N 
ATOM     11  H   UNL     1       3.139  -2.906   2.867  0.00  0.00    +0.170 HD
ATOM     12  C   UNL     1       4.955  -3.361   2.112  0.00  0.00    +0.125 A 
ATOM     13  N   UNL     1       5.834  -3.103   1.181  0.00  0.00    -0.225 NA
BRANCH   3  17
ATOM     14  C   UNL     1       0.878   2.024  -1.214  0.00  0.00    +0.000 A 
ATOM     15  C   UNL     1       2.136   2.599  -1.217  0.00  0.00    +0.001 A 
ATOM     16  C   UNL     1       3.260   1.809  -1.090  0.00  0.00    +0.008 A 
ATOM     17  C   UNL     1       3.126   0.427  -0.957  0.00  0.00    -0.017 A 
ATOM     18  C   UNL     1       1.855  -0.147  -0.954  0.00  0.00    +0.008 A 
ATOM     19  C   UNL     1       0.739   0.654  -1.082  0.00  0.00    +0.001 A 
ENDBRANCH   3  17
ENDBRANCH   2  12
ENDBRANCH   1   2
BRANCH   1  20
ATOM     20  C   UNL     1       6.996  -5.881   3.972  0.00  0.00    +0.159 C 
BRANCH  20  21
ATOM     21  C   UNL     1       7.400  -5.036   5.153  0.00  0.00    +0.125 A 
ATOM     22  N   UNL     1       7.873  -5.663   6.262  0.00  0.00    -0.309 N 
ATOM     23  H   UNL     1       7.941  -6.630   6.274  0.00  0.00    +0.170 HD
ATOM     24  C   UNL     1       8.250  -4.949   7.348  0.00  0.00    +0.259 A 
ATOM     25  O   UNL     1       8.676  -5.498   8.348  0.00  0.00    -0.267 OA
ATOM     26  C   UNL     1       8.124  -3.486   7.274  0.00  0.00    +0.065 A 
ATOM     27  C   UNL     1       8.484  -2.661   8.338  0.00  0.00    +0.015 A 
ATOM     28  C   UNL     1       8.346  -1.296   8.214  0.00  0.00    +0.001 A 
ATOM     29  C   UNL     1       7.852  -0.739   7.042  0.00  0.00    +0.002 A 
ATOM     30  C   UNL     1       7.491  -1.537   5.979  0.00  0.00    +0.028 A 
ATOM     31  C   UNL     1       7.622  -2.924   6.080  0.00  0.00    +0.078 A 
ATOM     32  N   UNL     1       7.283  -3.747   5.056  0.00  0.00    -0.232 NA
ENDBRANCH  20  21
ENDBRANCH   1  20
BRANCH   1  33
ATOM     33  C   UNL     1       6.584  -5.734   1.591  0.00  0.00    +0.116 C 
BRANCH  33  34
ATOM     34  C   UNL     1       8.030  -5.962   1.146  0.00  0.00    +0.132 C 
ATOM     35  C   UNL     1       8.064  -6.616  -0.258  0.00  0.00    +0.035 C 
ATOM     36  C   UNL     1       9.464  -6.168  -0.758  0.00  0.00    +0.031 C 
ATOM     37  C   UNL     1       9.606  -4.768  -0.123  0.00  0.00    +0.160 C 
ATOM     38  O   UNL     1       8.708  -4.705   0.993  0.00  0.00    -0.375 OA
ENDBRANCH  33  34
ENDBRANCH   1  33
TORSDOF 7
