REMARK  Name = ZINC35890802
REMARK  13 active torsions:
REMARK  status: ('A' for Active; 'I' for Inactive)
REMARK    1  A    between atoms: C_1  and  C_2
REMARK    2  A    between atoms: C_6  and  O_8
REMARK    3  A    between atoms: O_8  and  C_9
REMARK    4  A    between atoms: C_9  and  C_11
REMARK    5  A    between atoms: C_9  and  C_30
REMARK    6  A    between atoms: C_11  and  N_12
REMARK    7  A    between atoms: N_12  and  C_13
REMARK    8  A    between atoms: N_12  and  C_23
REMARK    9  A    between atoms: C_13  and  C_14
REMARK   10  A    between atoms: C_23  and  C_24
REMARK   11  A    between atoms: N_32  and  C_33
REMARK   12  A    between atoms: N_32  and  C_34
REMARK   13  A    between atoms: C_34  and  C_35
REMARK                            x       y       z     vdW  Elec       q    Type
REMARK                         _______ _______ _______ _____ _____    ______ ____
ROOT
ATOM      1  C   UNL     1       0.180  -4.590   1.900  0.00  0.00    +0.242 C 
ENDROOT
BRANCH   1   2
ATOM      2  C   UNL     1      -1.078  -5.389   1.679  0.00  0.00    +0.254 C 
ATOM      3  O   UNL     1      -2.143  -4.822   1.556  0.00  0.00    -0.272 OA
ATOM      4  N   UNL     1      -1.020  -6.735   1.619  0.00  0.00    -0.297 N 
ATOM      5  C   UNL     1       0.266  -7.420   1.768  0.00  0.00    +0.132 C 
BRANCH   4   6
ATOM      6  C   UNL     1      -2.243  -7.512   1.405  0.00  0.00    +0.142 C 
BRANCH   6   7
ATOM      7  C   UNL     1      -2.462  -7.707  -0.074  0.00  0.00    -0.030 A 
ATOM      8  C   UNL     1      -3.194  -6.780  -0.792  0.00  0.00    +0.005 A 
ATOM      9  C   UNL     1      -3.394  -6.959  -2.148  0.00  0.00    +0.000 A 
ATOM     10  C   UNL     1      -2.862  -8.064  -2.786  0.00  0.00    +0.000 A 
ATOM     11  C   UNL     1      -2.129  -8.990  -2.067  0.00  0.00    +0.000 A 
ATOM     12  C   UNL     1      -1.925  -8.809  -0.712  0.00  0.00    +0.005 A 
ENDBRANCH   6   7
ENDBRANCH   4   6
ENDBRANCH   1   2
BRANCH   1  13
ATOM     13  O   UNL     1      -0.119  -3.196   1.810  0.00  0.00    -0.481 OA
BRANCH  13  19
ATOM     14  C   UNL     1      -0.956   0.668  -1.052  0.00  0.00    +0.044 C 
ATOM     15  C   UNL     1      -0.565  -0.776  -0.870  0.00  0.00    -0.047 A 
ATOM     16  C   UNL     1      -0.249  -1.550  -1.971  0.00  0.00    +0.003 A 
ATOM     17  C   UNL     1       0.111  -2.875  -1.807  0.00  0.00    +0.004 A 
ATOM     18  C   UNL     1       0.155  -3.429  -0.542  0.00  0.00    +0.046 A 
ATOM     19  C   UNL     1      -0.162  -2.654   0.564  0.00  0.00    +0.122 A 
ATOM     20  C   UNL     1      -0.516  -1.323   0.397  0.00  0.00    +0.049 A 
ENDBRANCH  13  19
ENDBRANCH   1  13
BRANCH   1  21
ATOM     21  C   UNL     1       0.746  -4.901   3.288  0.00  0.00    -0.023 C 
BRANCH  21  22
ATOM     22  N   UNL     1       2.071  -4.284   3.426  0.00  0.00    +0.387 N 
ATOM     23  H   UNL     1       2.651  -4.555   2.646  0.00  0.00    -0.081 HD
BRANCH  22  24
ATOM     24  C   UNL     1       1.931  -2.822   3.448  0.00  0.00    -0.043 C 
BRANCH  24  25
ATOM     25  C   UNL     1       3.294  -2.188   3.556  0.00  0.00    -0.060 A 
ATOM     26  C   UNL     1       3.838  -1.930   4.800  0.00  0.00    +0.005 A 
ATOM     27  C   UNL     1       5.089  -1.349   4.904  0.00  0.00    +0.050 A 
ATOM     28  C   UNL     1       5.799  -1.024   3.760  0.00  0.00    +0.166 A 
ATOM     29  C   UNL     1       5.251  -1.285   2.506  0.00  0.00    +0.166 A 
ATOM     30  C   UNL     1       4.000  -1.872   2.410  0.00  0.00    +0.051 A 
ATOM     31  O   UNL     1       6.136  -0.878   1.550  0.00  0.00    -0.453 OA
ATOM     32  C   UNL     1       7.052   0.005   2.224  0.00  0.00    +0.466 C 
ATOM     33  O   UNL     1       7.028  -0.454   3.588  0.00  0.00    -0.453 OA
ENDBRANCH  24  25
ENDBRANCH  22  24
BRANCH  22  34
ATOM     34  C   UNL     1       2.693  -4.736   4.678  0.00  0.00    -0.046 C 
BRANCH  34  35
ATOM     35  C   UNL     1       2.973  -6.238   4.596  0.00  0.00    +0.102 C 
ATOM     36  C   UNL     1       3.579  -6.731   5.927  0.00  0.00    +0.032 C 
ATOM     37  C   UNL     1       4.650  -7.748   5.445  0.00  0.00    +0.030 C 
ATOM     38  C   UNL     1       5.115  -7.082   4.126  0.00  0.00    +0.160 C 
ATOM     39  O   UNL     1       3.928  -6.499   3.560  0.00  0.00    -0.378 OA
ENDBRANCH  34  35
ENDBRANCH  22  34
ENDBRANCH  21  22
ENDBRANCH   1  21
TORSDOF 11
