REMARK  Name = ZINC10696604
REMARK  7 active torsions:
REMARK  status: ('A' for Active; 'I' for Inactive)
REMARK    1  A    between atoms: C_1  and  C_2
REMARK    2  A    between atoms: C_10  and  C_12
REMARK    3  A    between atoms: C_12  and  O_13
REMARK    4  A    between atoms: O_13  and  C_14
REMARK    5  A    between atoms: C_14  and  C_16
REMARK    6  A    between atoms: C_16  and  N_17
REMARK    7  A    between atoms: C_25  and  C_27
REMARK                            x       y       z     vdW  Elec       q    Type
REMARK                         _______ _______ _______ _____ _____    ______ ____
ROOT
ATOM      1  C   UNL     1      -7.250   2.007   0.047  0.00  0.00    +0.326 C 
ATOM      2  O   UNL     1      -7.396   0.808   0.041  0.00  0.00    -0.249 OA
ENDROOT
BRANCH   1   3
ATOM      3  O   UNL     1      -6.016   2.534   0.044  0.00  0.00    -0.454 OA
BRANCH   3   4
ATOM      4  C   UNL     1      -4.902   1.603   0.034  0.00  0.00    +0.328 C 
BRANCH   4  14
ATOM      5  C   UNL     1       2.493   1.742  -0.012  0.00  0.00    +0.047 C 
ATOM      6  C   UNL     1       1.162   2.450   0.004  0.00  0.00    -0.009 A 
ATOM      7  C   UNL     1       1.095   3.837   0.012  0.00  0.00    +0.063 A 
ATOM      8  C   UNL     1      -0.141   4.455   0.026  0.00  0.00    +0.133 A 
ATOM      9  N   UNL     1      -1.252   3.744   0.034  0.00  0.00    -0.237 NA
ATOM     10  C   UNL     1      -1.230   2.421   0.021  0.00  0.00    +0.144 A 
ATOM     11  C   UNL     1      -0.021   1.732   0.012  0.00  0.00    +0.085 A 
ATOM     12 CL   UNL     1       0.002  -0.004   0.002  0.00  0.00    -0.080 Cl
ATOM     13  N   UNL     1      -2.431   1.710   0.023  0.00  0.00    -0.266 N 
ATOM     14  C   UNL     1      -3.605   2.371   0.032  0.00  0.00    +0.256 C 
ATOM     15  O   UNL     1      -3.619   3.583   0.038  0.00  0.00    -0.272 OA
ATOM     16 CL   UNL     1       2.550   4.786   0.004  0.00  0.00    -0.082 Cl
ATOM     17  H   UNL     1      -2.420   0.740   0.017  0.00  0.00    +0.156 HD
ENDBRANCH   4  14
ENDBRANCH   3   4
ENDBRANCH   1   3
BRANCH   1  18
ATOM     18  C   UNL     1      -8.456   2.912   0.058  0.00  0.00    +0.238 C 
BRANCH  18  19
ATOM     19  N   UNL     1      -9.675   2.100   0.059  0.00  0.00    -0.213 N 
ATOM     20  C   UNL     1     -10.315   1.691  -1.056  0.00  0.00    +0.247 C 
ATOM     21  O   UNL     1     -10.002   1.915  -2.206  0.00  0.00    -0.273 OA
ATOM     22  C   UNL     1     -11.502   0.892  -0.571  0.00  0.00    +0.115 C 
ATOM     23  C   UNL     1     -11.412  -0.551  -1.055  0.00  0.00    +0.035 C 
ATOM     24  C   UNL     1     -11.492  -0.585  -2.584  0.00  0.00    +0.003 C 
ATOM     25  C   UNL     1     -12.811   0.043  -3.039  0.00  0.00    +0.000 C 
ATOM     26  C   UNL     1     -12.875   1.497  -2.566  0.00  0.00    +0.006 C 
ATOM     27  C   UNL     1     -12.801   1.539  -1.038  0.00  0.00    +0.018 C 
ATOM     28  C   UNL     1     -12.845   2.993  -0.565  0.00  0.00    +0.010 C 
ATOM     29  N   UNL     1     -11.396   0.950   0.893  0.00  0.00    -0.285 N 
ATOM     30  C   UNL     1     -10.297   1.678   1.167  0.00  0.00    +0.310 C 
ATOM     31  O   UNL     1      -9.912   1.924   2.293  0.00  0.00    -0.252 OA
ATOM     32  H   UNL     1     -11.999   0.544   1.536  0.00  0.00    +0.151 HD
ENDBRANCH  18  19
ENDBRANCH   1  18
TORSDOF 5
