REMARK  Name = ZINC19821003
REMARK  10 active torsions:
REMARK  status: ('A' for Active; 'I' for Inactive)
REMARK    1  A    between atoms: C_1  and  C_2
REMARK    2  A    between atoms: C_2  and  O_3
REMARK    3  A    between atoms: O_3  and  C_4
REMARK    4  A    between atoms: N_9  and  C_12
REMARK    5  A    between atoms: C_12  and  C_13
REMARK    6  A    between atoms: C_21  and  C_23
REMARK    7  A    between atoms: C_23  and  C_24
REMARK    8  A    between atoms: N_26  and  C_27
REMARK    9  A    between atoms: C_29  and  C_34
REMARK   10  A    between atoms: C_31  and  C_33
REMARK                            x       y       z     vdW  Elec       q    Type
REMARK                         _______ _______ _______ _____ _____    ______ ____
ROOT
ATOM      1  C   UNL     1      -0.458   1.019   1.101  0.00  0.00    +0.200 C 
ATOM      2  O   UNL     1      -1.390   1.766   0.887  0.00  0.00    -0.278 OA
ATOM      3  N   UNL     1      -0.045   0.801   2.365  0.00  0.00    -0.289 N 
ATOM      4  C   UNL     1       1.079  -0.104   2.659  0.00  0.00    +0.127 C 
ATOM      5  C   UNL     1       2.183   0.718   3.336  0.00  0.00    +0.123 C 
ATOM      6  N   UNL     1       1.629   1.555   4.392  0.00  0.00    -0.312 N 
ATOM      7  C   UNL     1       0.352   1.932   4.468  0.00  0.00    +0.234 C 
ATOM      8  O   UNL     1       0.026   2.696   5.352  0.00  0.00    -0.274 OA
ATOM      9  C   UNL     1      -0.702   1.454   3.508  0.00  0.00    +0.170 C 
ATOM     10  H   UNL     1       2.279   1.922   5.201  0.00  0.00    +0.149 HD
ENDROOT
BRANCH   1  11
ATOM     11  C   UNL     1       0.237   0.335  -0.047  0.00  0.00    +0.019 C 
BRANCH  11  17
ATOM     12  C   UNL     1      -2.160  -0.045  -4.901  0.00  0.00    +0.403 C 
ATOM     13  O   UNL     1      -1.457  -0.286  -5.862  0.00  0.00    -0.226 OA
ATOM     14  N   UNL     1      -1.626   0.527  -3.803  0.00  0.00    -0.271 N 
ATOM     15  C   UNL     1      -0.197   0.868  -3.748  0.00  0.00    +0.092 C 
ATOM     16  C   UNL     1       0.395   0.280  -2.463  0.00  0.00    -0.059 C 
ATOM     17  N   UNL     1      -0.396   0.734  -1.311  0.00  0.00    +0.387 N 
ATOM     18  C   UNL     1      -1.778   0.241  -1.387  0.00  0.00    -0.059 C 
ATOM     19  C   UNL     1      -2.459   0.827  -2.628  0.00  0.00    +0.092 C 
ATOM     20  H   UNL     1      -0.431   1.833  -1.342  0.00  0.00    -0.081 HD
BRANCH  12  21
ATOM     21  O   UNL     1      -3.471  -0.350  -4.931  0.00  0.00    -0.451 OA
BRANCH  21  23
ATOM     22  C   UNL     1      -5.475  -1.235  -5.995  0.00  0.00    +0.048 C 
ATOM     23  C   UNL     1      -3.977  -0.964  -6.146  0.00  0.00    +0.230 C 
ENDBRANCH  21  23
ENDBRANCH  12  21
ENDBRANCH  11  17
ENDBRANCH   1  11
BRANCH   9  24
ATOM     24  C   UNL     1      -1.619   0.451   4.212  0.00  0.00    +0.128 C 
BRANCH  24  25
ATOM     25  C   UNL     1      -2.738   0.055   3.283  0.00  0.00    +0.219 C 
ATOM     26  O   UNL     1      -2.796   0.528   2.168  0.00  0.00    -0.275 OA
ATOM     27  N   UNL     1      -3.674  -0.824   3.692  0.00  0.00    -0.285 N 
ATOM     28  H   UNL     1      -3.574  -1.319   4.669  0.00  0.00    +0.155 HD
BRANCH  27  29
ATOM     29  C   UNL     1      -4.772  -1.108   2.873  0.00  0.00    +0.034 A 
ATOM     30  C   UNL     1      -5.327  -2.381   2.869  0.00  0.00    +0.026 A 
ATOM     31  C   UNL     1      -6.415  -2.657   2.064  0.00  0.00    -0.048 A 
ATOM     32  C   UNL     1      -6.944  -1.670   1.253  0.00  0.00    +0.006 A 
ATOM     33  C   UNL     1      -6.390  -0.403   1.250  0.00  0.00    -0.048 A 
ATOM     34  C   UNL     1      -5.306  -0.119   2.057  0.00  0.00    +0.026 A 
ATOM     35  C   UNL     1      -6.970   0.670   0.364  0.00  0.00    +0.044 C 
ATOM     36  C   UNL     1      -7.022  -4.036   2.065  0.00  0.00    +0.044 C 
ENDBRANCH  27  29
ENDBRANCH  24  25
ENDBRANCH   9  24
TORSDOF 7
