REMARK  Name = ZINC36530962
REMARK  17 active torsions:
REMARK  status: ('A' for Active; 'I' for Inactive)
REMARK    1  A    between atoms: C_1  and  C_2
REMARK    2  A    between atoms: C_5  and  C_9
REMARK    3  A    between atoms: C_6  and  C_8
REMARK    4  A    between atoms: C_9  and  C_11
REMARK    5  A    between atoms: C_9  and  N_22
REMARK    6  A    between atoms: N_13  and  C_14
REMARK    7  A    between atoms: C_14  and  C_15
REMARK    8  A    between atoms: C_14  and  C_16
REMARK    9  A    between atoms: C_14  and  C_17
REMARK   10  A    between atoms: C_17  and  C_18
REMARK   11  A    between atoms: C_18  and  C_19
REMARK   12  A    between atoms: C_18  and  C_20
REMARK   13  A    between atoms: C_18  and  C_21
REMARK   14  A    between atoms: N_22  and  C_23
REMARK   15  A    between atoms: C_24  and  C_26
REMARK   16  A    between atoms: C_27  and  O_33
REMARK   17  A    between atoms: C_31  and  O_32
REMARK                            x       y       z     vdW  Elec       q    Type
REMARK                         _______ _______ _______ _____ _____    ______ ____
ROOT
ATOM      1  C   UNL     1      -0.714  -4.729   0.728  0.00  0.00    +0.192 C 
ENDROOT
BRANCH   1   6
ATOM      2  C   UNL     1       2.313  -0.066   2.306  0.00  0.00    +0.044 C 
ATOM      3  C   UNL     1       1.524  -1.282   1.894  0.00  0.00    -0.050 A 
ATOM      4  C   UNL     1       0.190  -1.157   1.550  0.00  0.00    +0.004 A 
ATOM      5  C   UNL     1      -0.534  -2.272   1.173  0.00  0.00    +0.006 A 
ATOM      6  C   UNL     1       0.075  -3.513   1.138  0.00  0.00    -0.015 A 
ATOM      7  C   UNL     1       1.408  -3.638   1.481  0.00  0.00    -0.045 A 
ATOM      8  C   UNL     1       2.134  -2.522   1.855  0.00  0.00    +0.007 A 
ATOM      9  C   UNL     1       2.072  -4.990   1.445  0.00  0.00    +0.044 C 
ENDBRANCH   1   6
BRANCH   1  10
ATOM     10  C   UNL     1      -2.188  -4.430   0.833  0.00  0.00    +0.239 C 
ATOM     11  O   UNL     1      -2.896  -4.517  -0.148  0.00  0.00    -0.273 OA
ATOM     12  N   UNL     1      -2.719  -4.065   2.017  0.00  0.00    -0.308 N 
ATOM     13  H   UNL     1      -2.142  -3.926   2.784  0.00  0.00    +0.149 HD
BRANCH  12  14
ATOM     14  C   UNL     1      -4.166  -3.880   2.145  0.00  0.00    +0.030 C 
ATOM     15  C   UNL     1      -4.604  -2.683   1.298  0.00  0.00    +0.031 C 
ATOM     16  C   UNL     1      -4.886  -5.139   1.658  0.00  0.00    +0.031 C 
BRANCH  14  17
ATOM     17  C   UNL     1      -4.520  -3.624   3.611  0.00  0.00    +0.031 C 
BRANCH  17  18
ATOM     18  C   UNL     1      -3.527  -4.361   4.511  0.00  0.00    -0.036 C 
ATOM     19  C   UNL     1      -2.249  -3.530   4.649  0.00  0.00    +0.010 C 
ATOM     20  C   UNL     1      -4.149  -4.571   5.893  0.00  0.00    +0.010 C 
ATOM     21  C   UNL     1      -3.188  -5.719   3.893  0.00  0.00    +0.010 C 
ENDBRANCH  17  18
ENDBRANCH  14  17
ENDBRANCH  12  14
ENDBRANCH   1  10
BRANCH   1  22
ATOM     22  N   UNL     1      -0.385  -5.080  -0.656  0.00  0.00    -0.285 N 
ATOM     23  C   UNL     1      -0.629  -4.119  -1.734  0.00  0.00    +0.133 C 
ATOM     24  C   UNL     1       0.142  -6.288  -0.937  0.00  0.00    +0.254 C 
ATOM     25  O   UNL     1       0.344  -7.087  -0.042  0.00  0.00    -0.270 OA
BRANCH  24  26
ATOM     26  C   UNL     1       0.473  -6.642  -2.328  0.00  0.00    +0.119 A 
ATOM     27  C   UNL     1       1.748  -6.365  -2.842  0.00  0.00    +0.133 A 
ATOM     28  C   UNL     1       2.049  -6.702  -4.152  0.00  0.00    +0.046 A 
ATOM     29  C   UNL     1       1.098  -7.309  -4.950  0.00  0.00    +0.007 A 
ATOM     30  C   UNL     1      -0.162  -7.586  -4.454  0.00  0.00    +0.046 A 
ATOM     31  C   UNL     1      -0.483  -7.263  -3.145  0.00  0.00    +0.133 A 
BRANCH  31  32
ATOM     32  O   UNL     1      -1.718  -7.541  -2.658  0.00  0.00    -0.506 OA
ATOM     33  H   UNL     1      -2.360  -6.829  -2.786  0.00  0.00    +0.292 HD
ENDBRANCH  31  32
BRANCH  27  34
ATOM     34  O   UNL     1       2.683  -5.769  -2.061  0.00  0.00    -0.506 OA
ATOM     35  H   UNL     1       3.235  -6.390  -1.565  0.00  0.00    +0.292 HD
ENDBRANCH  27  34
ENDBRANCH  24  26
ENDBRANCH   1  22
TORSDOF 9
