REMARK  Name = ZINC20418160
REMARK  12 active torsions:
REMARK  status: ('A' for Active; 'I' for Inactive)
REMARK    1  A    between atoms: C_1  and  C_2
REMARK    2  A    between atoms: C_6  and  C_34
REMARK    3  A    between atoms: C_7  and  N_8
REMARK    4  A    between atoms: C_9  and  C_11
REMARK    5  A    between atoms: C_11  and  S_12
REMARK    6  A    between atoms: S_12  and  C_13
REMARK    7  A    between atoms: C_19  and  S_21
REMARK    8  A    between atoms: S_21  and  C_22
REMARK    9  A    between atoms: C_22  and  C_23
REMARK   10  A    between atoms: N_25  and  C_26
REMARK   11  A    between atoms: C_27  and  C_33
REMARK   12  A    between atoms: C_31  and  C_32
REMARK                            x       y       z     vdW  Elec       q    Type
REMARK                         _______ _______ _______ _____ _____    ______ ____
ROOT
ATOM      1  C   UNL     1       2.034   5.466   0.946  0.00  0.00    +0.213 A 
ATOM      2  N   UNL     1       0.978   6.087   1.410  0.00  0.00    -0.120 NA
ATOM      3  N   UNL     1      -0.073   5.704   0.773  0.00  0.00    -0.119 NA
ATOM      4  C   UNL     1       0.259   4.832  -0.126  0.00  0.00    +0.219 A 
ATOM      5  N   UNL     1       1.618   4.625  -0.069  0.00  0.00    -0.180 N 
ATOM      6  N   UNL     1       2.143   3.709  -0.970  0.00  0.00    -0.148 NA
ATOM      7  C   UNL     1       1.377   3.081  -1.822  0.00  0.00    +0.159 A 
ATOM      8  S   UNL     1      -0.237   3.740  -1.435  0.00  0.00    -0.020 S 
ENDROOT
BRANCH   1   9
ATOM      9  S   UNL     1       3.689   5.667   1.514  0.00  0.00    -0.075 S 
BRANCH   9  10
ATOM     10  C   UNL     1       3.552   6.896   2.841  0.00  0.00    +0.173 C 
BRANCH  10  12
ATOM     11  N   UNL     1       5.059   8.048   4.428  0.00  0.00    -0.284 N 
ATOM     12  C   UNL     1       4.917   7.163   3.422  0.00  0.00    +0.228 C 
ATOM     13  O   UNL     1       5.887   6.582   2.983  0.00  0.00    -0.275 OA
ATOM     14  H   UNL     1       4.195   8.636   4.771  0.00  0.00    +0.155 HD
BRANCH  11  21
ATOM     15  C   UNL     1       6.425   5.735   5.366  0.00  0.00    +0.045 C 
ATOM     16  C   UNL     1       7.008   7.117   5.510  0.00  0.00    -0.029 A 
ATOM     17  C   UNL     1       8.242   7.289   6.106  0.00  0.00    +0.005 A 
ATOM     18  C   UNL     1       8.775   8.557   6.243  0.00  0.00    +0.001 A 
ATOM     19  C   UNL     1       8.077   9.658   5.779  0.00  0.00    +0.005 A 
ATOM     20  C   UNL     1       6.845   9.492   5.177  0.00  0.00    -0.029 A 
ATOM     21  C   UNL     1       6.307   8.219   5.038  0.00  0.00    +0.039 A 
ATOM     22  C   UNL     1       6.085  10.691   4.672  0.00  0.00    +0.045 C 
ENDBRANCH  11  21
ENDBRANCH  10  12
ENDBRANCH   9  10
ENDBRANCH   1   9
BRANCH   7  23
ATOM     23  S   UNL     1       1.823   1.891  -3.042  0.00  0.00    -0.088 S 
BRANCH  23  24
ATOM     24  C   UNL     1       0.196   1.550  -3.759  0.00  0.00    +0.172 C 
BRANCH  24  25
ATOM     25  C   UNL     1       0.335   0.528  -4.857  0.00  0.00    +0.227 C 
ATOM     26  O   UNL     1       1.426   0.074  -5.129  0.00  0.00    -0.275 OA
ATOM     27  N   UNL     1      -0.754   0.118  -5.538  0.00  0.00    -0.284 N 
ATOM     28  H   UNL     1      -1.753   0.470  -5.241  0.00  0.00    +0.155 HD
BRANCH  27  29
ATOM     29  C   UNL     1      -0.614  -0.755  -6.622  0.00  0.00    +0.039 A 
ATOM     30  C   UNL     1       0.282  -0.460  -7.641  0.00  0.00    -0.029 A 
ATOM     31  C   UNL     1       0.422  -1.327  -8.707  0.00  0.00    +0.005 A 
ATOM     32  C   UNL     1      -0.336  -2.482  -8.766  0.00  0.00    +0.001 A 
ATOM     33  C   UNL     1      -1.233  -2.775  -7.755  0.00  0.00    +0.005 A 
ATOM     34  C   UNL     1      -1.374  -1.915  -6.684  0.00  0.00    -0.029 A 
ATOM     35  C   UNL     1      -2.352  -2.236  -5.583  0.00  0.00    +0.045 C 
ATOM     36  C   UNL     1       1.104   0.801  -7.582  0.00  0.00    +0.045 C 
ENDBRANCH  27  29
ENDBRANCH  24  25
ENDBRANCH  23  24
ENDBRANCH   7  23
TORSDOF 8
