REMARK  Name = ZINC08337214
REMARK  9 active torsions:
REMARK  status: ('A' for Active; 'I' for Inactive)
REMARK    1  A    between atoms: C_1  and  C_2
REMARK    2  A    between atoms: C_2  and  C_3
REMARK    3  A    between atoms: C_8  and  C_21
REMARK    4  A    between atoms: C_10  and  C_16
REMARK    5  A    between atoms: C_11  and  C_15
REMARK    6  A    between atoms: C_16  and  O_18
REMARK    7  A    between atoms: O_18  and  C_19
REMARK    8  A    between atoms: C_19  and  C_20
REMARK    9  A    between atoms: C_24  and  N_27
REMARK                            x       y       z     vdW  Elec       q    Type
REMARK                         _______ _______ _______ _____ _____    ______ ____
ROOT
ATOM      1  C   UNL     1      -1.316   1.982   0.019  0.00  0.00    +0.140 C 
ATOM      2  C   UNL     1      -0.014   1.208   0.009  0.00  0.00    +0.235 C 
ATOM      3  O   UNL     1       0.002  -0.004   0.002  0.00  0.00    -0.274 OA
ATOM      4  N   UNL     1       1.120   1.925   0.002  0.00  0.00    -0.238 N 
ATOM      5  C   UNL     1       2.494   1.343  -0.015  0.00  0.00    +0.152 C 
ATOM      6  C   UNL     1       3.655   2.310  -0.021  0.00  0.00    +0.083 C 
ATOM      7  C   UNL     1       3.379   3.647  -0.011  0.00  0.00    +0.053 C 
ATOM      8  N   UNL     1       2.123   4.075   0.003  0.00  0.00    -0.230 NA
ATOM      9  C   UNL     1       1.067   3.302   0.010  0.00  0.00    +0.164 C 
ATOM     10  S   UNL     1      -0.672   3.700   0.029  0.00  0.00    -0.077 S 
ATOM     11  C   UNL     1       4.509   4.644  -0.018  0.00  0.00    +0.066 C 
ENDROOT
BRANCH   5  12
ATOM     12  C   UNL     1       2.637   0.457   1.195  0.00  0.00    -0.022 A 
ATOM     13  C   UNL     1       2.106   0.854   2.409  0.00  0.00    +0.008 A 
ATOM     14  C   UNL     1       2.232   0.038   3.518  0.00  0.00    +0.033 A 
ATOM     15  C   UNL     1       2.898  -1.169   3.416  0.00  0.00    +0.126 A 
ATOM     16  C   UNL     1       3.434  -1.562   2.204  0.00  0.00    +0.033 A 
ATOM     17  C   UNL     1       3.303  -0.750   1.094  0.00  0.00    +0.008 A 
BRANCH  15  18
ATOM     18  N   UNL     1       3.039  -2.039   4.606  0.00  0.00    +0.056 N 
ATOM     19  O   UNL     1       3.627  -3.102   4.516  0.00  0.00    -0.126 OA
ATOM     20  O   UNL     1       2.567  -1.691   5.673  0.00  0.00    -0.126 OA
ENDBRANCH  15  18
ENDBRANCH   5  12
BRANCH   1  22
ATOM     21  C   UNL     1      -3.493   2.402  -1.132  0.00  0.00    +0.005 C 
ATOM     22  C   UNL     1      -2.138   1.702  -1.241  0.00  0.00    +0.020 C 
ENDBRANCH   1  22
BRANCH   6  23
ATOM     23  C   UNL     1       4.981   1.846  -0.037  0.00  0.00    +0.339 C 
ATOM     24  O   UNL     1       5.905   2.640  -0.043  0.00  0.00    -0.245 OA
BRANCH  23  25
ATOM     25  O   UNL     1       5.233   0.519  -0.047  0.00  0.00    -0.462 OA
BRANCH  25  26
ATOM     26  C   UNL     1       6.604   0.118  -0.063  0.00  0.00    +0.229 C 
ATOM     27  C   UNL     1       6.690  -1.409  -0.072  0.00  0.00    +0.048 C 
ENDBRANCH  25  26
ENDBRANCH  23  25
ENDBRANCH   6  23
TORSDOF 6
