REMARK  Name = ZINC30772150
REMARK  5 active torsions:
REMARK  status: ('A' for Active; 'I' for Inactive)
REMARK    1  A    between atoms: C_1  and  S_2
REMARK    2  A    between atoms: S_2  and  N_5
REMARK    3  A    between atoms: N_5  and  C_6
REMARK    4  A    between atoms: N_9  and  C_12
REMARK    5  A    between atoms: C_17  and  N_18
REMARK                            x       y       z     vdW  Elec       q    Type
REMARK                         _______ _______ _______ _____ _____    ______ ____
ROOT
ATOM      1  C   UNL     1      -2.194   1.077  -1.207  0.00  0.00    +0.079 C 
ATOM      2  C   UNL     1      -0.752   1.593  -1.232  0.00  0.00    +0.039 C 
ATOM      3  C   UNL     1      -0.013   1.086   0.008  0.00  0.00    +0.107 C 
ATOM      4  N   UNL     1      -0.700   1.559   1.216  0.00  0.00    -0.328 N 
ATOM      5  C   UNL     1      -2.071   1.038   1.287  0.00  0.00    +0.107 C 
ATOM      6  C   UNL     1      -2.872   1.544   0.085  0.00  0.00    +0.039 C 
ENDROOT
BRANCH   4   7
ATOM      7  C   UNL     1       0.022   1.226   2.366  0.00  0.00    +0.060 A 
ATOM      8  C   UNL     1       0.287  -0.106   2.659  0.00  0.00    +0.028 A 
ATOM      9  C   UNL     1       1.000  -0.433   3.796  0.00  0.00    +0.040 A 
ATOM     10  C   UNL     1       1.452   0.565   4.643  0.00  0.00    +0.126 A 
ATOM     11  C   UNL     1       1.188   1.893   4.353  0.00  0.00    +0.073 A 
ATOM     12  C   UNL     1       0.481   2.225   3.214  0.00  0.00    +0.150 A 
ATOM     13  F   UNL     1       2.149   0.242   5.754  0.00  0.00    -0.205 F 
BRANCH  12  14
ATOM     14  N   UNL     1       0.205   3.645   2.901  0.00  0.00    +0.058 N 
ATOM     15  O   UNL     1       0.607   4.522   3.645  0.00  0.00    -0.126 OA
ATOM     16  O   UNL     1      -0.423   3.938   1.900  0.00  0.00    -0.126 OA
ENDBRANCH  12  14
ENDBRANCH   4   7
BRANCH   1  17
ATOM     17  N   UNL     1      -2.924   1.607  -2.361  0.00  0.00    -0.192 NA
ATOM     18  H   UNL     1      -2.829   2.669  -2.632  0.00  0.00    +0.148 HD
BRANCH  17  20
ATOM     19  C   UNL     1      -5.379   0.466  -1.865  0.00  0.00    +0.214 C 
ATOM     20  S   UNL     1      -4.076   0.681  -3.108  0.00  0.00    +0.027 S 
ATOM     21  O   UNL     1      -4.550   1.486  -4.179  0.00  0.00    -0.158 OA
ATOM     22  O   UNL     1      -3.434  -0.560  -3.364  0.00  0.00    -0.158 OA
ENDBRANCH  17  20
ENDBRANCH   1  17
TORSDOF 4
