REMARK  Name = ZINC03292885
REMARK  6 active torsions:
REMARK  status: ('A' for Active; 'I' for Inactive)
REMARK    1  A    between atoms: C_3  and  N_22
REMARK    2  A    between atoms: C_6  and  C_7
REMARK    3  A    between atoms: N_9  and  C_10
REMARK    4  A    between atoms: C_11  and  C_20
REMARK    5  A    between atoms: N_22  and  S_23
REMARK    6  A    between atoms: S_23  and  C_26
REMARK                            x       y       z     vdW  Elec       q    Type
REMARK                         _______ _______ _______ _____ _____    ______ ____
ROOT
ATOM      1  C   UNL     1       5.662   0.769  -4.364  0.00  0.00    +0.015 A 
ATOM      2  C   UNL     1       5.432  -0.253  -3.471  0.00  0.00    +0.025 A 
ATOM      3  C   UNL     1       4.467  -0.109  -2.479  0.00  0.00    +0.048 A 
ATOM      4  C   UNL     1       3.727   1.067  -2.388  0.00  0.00    +0.025 A 
ATOM      5  C   UNL     1       3.956   2.095  -3.274  0.00  0.00    +0.015 A 
ATOM      6  C   UNL     1       4.925   1.953  -4.272  0.00  0.00    +0.037 A 
ENDROOT
BRANCH   6   7
ATOM      7  C   UNL     1       5.169   3.051  -5.227  0.00  0.00    +0.249 C 
ATOM      8  O   UNL     1       6.012   2.926  -6.094  0.00  0.00    -0.270 OA
ATOM      9  N   UNL     1       4.457   4.192  -5.138  0.00  0.00    -0.275 N 
ATOM     10  H   UNL     1       3.785   4.292  -4.446  0.00  0.00    +0.156 HD
BRANCH   9  11
ATOM     11  C   UNL     1       4.687   5.224  -6.035  0.00  0.00    +0.090 A 
ATOM     12  C   UNL     1       4.064   6.460  -6.104  0.00  0.00    +0.084 A 
ATOM     13  C   UNL     1       4.493   7.378  -7.150  0.00  0.00    -0.018 A 
ATOM     14  C   UNL     1       5.466   6.905  -7.959  0.00  0.00    -0.004 A 
ATOM     15  S   UNL     1       5.827   5.285  -7.337  0.00  0.00    -0.077 S 
ATOM     16  C   UNL     1       6.104   7.594  -9.124  0.00  0.00    +0.043 C 
ATOM     17  C   UNL     1       6.522   9.010  -8.707  0.00  0.00    +0.005 C 
ATOM     18  C   UNL     1       5.355   9.957  -8.972  0.00  0.00    +0.001 C 
ATOM     19  C   UNL     1       4.029   9.230  -8.758  0.00  0.00    +0.005 C 
ATOM     20  C   UNL     1       3.900   8.772  -7.309  0.00  0.00    +0.037 C 
BRANCH  12  21
ATOM     21  C   UNL     1       3.034   6.822  -5.178  0.00  0.00    +0.102 C 
ATOM     22  N   UNL     1       2.217   7.110  -4.443  0.00  0.00    -0.191 NA
ENDBRANCH  12  21
ENDBRANCH   9  11
ENDBRANCH   6   7
BRANCH   3  23
ATOM     23  N   UNL     1       4.236  -1.143  -1.579  0.00  0.00    -0.216 N 
ATOM     24  H   UNL     1       3.437  -1.687  -1.659  0.00  0.00    +0.174 HD
BRANCH  23  25
ATOM     25  S   UNL     1       5.327  -1.448  -0.370  0.00  0.00    +0.072 S 
ATOM     26  O   UNL     1       6.604  -1.532  -0.988  0.00  0.00    -0.150 OA
ATOM     27  O   UNL     1       4.785  -2.506   0.408  0.00  0.00    -0.150 OA
BRANCH  25  28
ATOM     28  C   UNL     1       5.363  -0.025   0.669  0.00  0.00    +0.112 A 
ATOM     29  C   UNL     1       4.431   0.115   1.680  0.00  0.00    +0.032 A 
ATOM     30  C   UNL     1       4.455   1.229   2.496  0.00  0.00    +0.051 A 
ATOM     31  C   UNL     1       5.415   2.211   2.303  0.00  0.00    +0.162 A 
ATOM     32  C   UNL     1       6.354   2.070   1.288  0.00  0.00    +0.164 A 
ATOM     33  C   UNL     1       6.324   0.949   0.472  0.00  0.00    +0.078 A 
ATOM     34  O   UNL     1       7.310   3.017   1.086  0.00  0.00    -0.485 OA
ATOM     35  C   UNL     1       7.080   4.300   1.680  0.00  0.00    +0.270 C 
ATOM     36  C   UNL     1       6.625   4.084   3.130  0.00  0.00    +0.270 C 
ATOM     37  O   UNL     1       5.421   3.308   3.109  0.00  0.00    -0.485 OA
ENDBRANCH  25  28
ENDBRANCH  23  25
ENDBRANCH   3  23
TORSDOF 6
