REMARK  Name = ZINC09081510
REMARK  6 active torsions:
REMARK  status: ('A' for Active; 'I' for Inactive)
REMARK    1  A    between atoms: C_3  and  C_6
REMARK    2  A    between atoms: C_6  and  C_8
REMARK    3  A    between atoms: C_6  and  S_21
REMARK    4  A    between atoms: C_8  and  N_9
REMARK    5  A    between atoms: N_12  and  C_13
REMARK    6  A    between atoms: S_21  and  C_24
REMARK                            x       y       z     vdW  Elec       q    Type
REMARK                         _______ _______ _______ _____ _____    ______ ____
ROOT
ATOM      1  C   UNL     1       4.274   2.570  -1.789  0.00  0.00    +0.218 C 
ENDROOT
BRANCH   1   4
ATOM      2  C   UNL     1       3.865  -0.449  -3.864  0.00  0.00    +0.041 A 
ATOM      3  C   UNL     1       3.511   0.877  -3.522  0.00  0.00    +0.047 A 
ATOM      4  C   UNL     1       4.296   1.236  -2.490  0.00  0.00    +0.131 A 
ATOM      5  O   UNL     1       5.107   0.207  -2.195  0.00  0.00    -0.466 OA
ATOM      6  C   UNL     1       4.846  -0.820  -3.021  0.00  0.00    +0.195 A 
ENDBRANCH   1   4
BRANCH   1   7
ATOM      7  S   UNL     1       3.878   2.325  -0.036  0.00  0.00    +0.008 S 
ATOM      8  O   UNL     1       3.565   3.570   0.573  0.00  0.00    -0.169 OA
ATOM      9  O   UNL     1       4.819   1.443   0.560  0.00  0.00    -0.169 OA
BRANCH   7  10
ATOM     10  C   UNL     1       2.360   1.431  -0.036  0.00  0.00    +0.093 A 
ATOM     11  C   UNL     1       2.375   0.048  -0.042  0.00  0.00    +0.031 A 
ATOM     12  C   UNL     1       1.186  -0.658  -0.042  0.00  0.00    +0.051 A 
ATOM     13  C   UNL     1      -0.023   0.018  -0.035  0.00  0.00    +0.166 A 
ATOM     14  C   UNL     1      -0.037   1.411  -0.029  0.00  0.00    +0.168 A 
ATOM     15  C   UNL     1       1.158   2.112  -0.030  0.00  0.00    +0.076 A 
ATOM     16  O   UNL     1      -1.335   1.834  -0.029  0.00  0.00    -0.453 OA
ATOM     17  C   UNL     1      -2.112   0.695  -0.439  0.00  0.00    +0.466 C 
ATOM     18  O   UNL     1      -1.311  -0.431  -0.033  0.00  0.00    -0.453 OA
ENDBRANCH   7  10
ENDBRANCH   1   7
BRANCH   1  19
ATOM     19  C   UNL     1       5.647   3.234  -1.914  0.00  0.00    +0.140 C 
BRANCH  19  20
ATOM     20  N   UNL     1       5.626   4.531  -1.233  0.00  0.00    -0.297 N 
ATOM     21  C   UNL     1       6.733   5.300  -1.212  0.00  0.00    +0.304 C 
ATOM     22  O   UNL     1       7.749   4.917  -1.759  0.00  0.00    -0.253 OA
ATOM     23  N   UNL     1       6.713   6.492  -0.585  0.00  0.00    -0.269 N 
ATOM     24  H   UNL     1       4.815   4.836  -0.796  0.00  0.00    +0.150 HD
ATOM     25  H   UNL     1       5.886   6.828  -0.207  0.00  0.00    +0.156 HD
BRANCH  23  26
ATOM     26  C   UNL     1       7.888   7.247  -0.480  0.00  0.00    +0.036 A 
ATOM     27  C   UNL     1       8.123   8.014   0.654  0.00  0.00    +0.025 A 
ATOM     28  C   UNL     1       9.284   8.753   0.758  0.00  0.00    +0.023 A 
ATOM     29  C   UNL     1      10.209   8.740  -0.271  0.00  0.00    +0.059 A 
ATOM     30  C   UNL     1       9.975   7.982  -1.405  0.00  0.00    +0.061 A 
ATOM     31  C   UNL     1       8.817   7.235  -1.512  0.00  0.00    +0.044 A 
ATOM     32 CL   UNL     1      11.138   7.968  -2.695  0.00  0.00    -0.082 Cl
ATOM     33 CL   UNL     1      11.665   9.676  -0.139  0.00  0.00    -0.082 Cl
ENDBRANCH  23  26
ENDBRANCH  19  20
ENDBRANCH   1  19
TORSDOF 6
