REMARK  Name = ZINC36600193
REMARK  14 active torsions:
REMARK  status: ('A' for Active; 'I' for Inactive)
REMARK    1  A    between atoms: C_1  and  C_2
REMARK    2  A    between atoms: C_5  and  C_7
REMARK    3  A    between atoms: C_7  and  N_8
REMARK    4  A    between atoms: N_8  and  C_9
REMARK    5  A    between atoms: C_9  and  C_11
REMARK    6  A    between atoms: C_9  and  C_18
REMARK    7  A    between atoms: C_14  and  O_17
REMARK    8  A    between atoms: N_20  and  C_21
REMARK    9  A    between atoms: C_21  and  C_22
REMARK   10  A    between atoms: C_21  and  C_23
REMARK   11  A    between atoms: C_21  and  C_24
REMARK   12  A    between atoms: C_25  and  C_27
REMARK   13  A    between atoms: C_27  and  C_28
REMARK   14  A    between atoms: C_27  and  C_34
REMARK                            x       y       z     vdW  Elec       q    Type
REMARK                         _______ _______ _______ _____ _____    ______ ____
ROOT
ATOM      1  N   UNL     1       1.989  -3.118  -2.492  0.00  0.00    -0.278 N 
ATOM      2  C   UNL     1       1.374  -4.272  -2.169  0.00  0.00    +0.229 C 
ATOM      3  O   UNL     1       0.640  -4.319  -1.205  0.00  0.00    -0.275 OA
ENDROOT
BRANCH   1   4
ATOM      4  C   UNL     1       1.673  -1.889  -1.759  0.00  0.00    +0.183 C 
BRANCH   4   9
ATOM      5  C   UNL     1      -2.110   0.583  -4.000  0.00  0.00    +0.086 C 
ATOM      6  C   UNL     1      -1.364  -0.360  -3.091  0.00  0.00    +0.102 A 
ATOM      7  C   UNL     1      -1.920  -1.192  -2.193  0.00  0.00    +0.045 A 
ATOM      8  C   UNL     1      -0.860  -1.885  -1.565  0.00  0.00    +0.046 A 
ATOM      9  C   UNL     1       0.281  -1.435  -2.117  0.00  0.00    +0.122 A 
ATOM     10  O   UNL     1      -0.031  -0.515  -3.045  0.00  0.00    -0.463 OA
ENDBRANCH   4   9
ENDBRANCH   1   4
BRANCH   1  11
ATOM     11  C   UNL     1       2.974  -3.090  -3.577  0.00  0.00    +0.193 C 
BRANCH  11  12
ATOM     12  C   UNL     1       4.348  -2.863  -3.002  0.00  0.00    -0.018 A 
ATOM     13  C   UNL     1       4.487  -2.301  -1.746  0.00  0.00    +0.009 A 
ATOM     14  C   UNL     1       5.745  -2.092  -1.217  0.00  0.00    +0.046 A 
ATOM     15  C   UNL     1       6.871  -2.446  -1.946  0.00  0.00    +0.117 A 
ATOM     16  C   UNL     1       6.729  -3.010  -3.206  0.00  0.00    +0.046 A 
ATOM     17  C   UNL     1       5.468  -3.222  -3.728  0.00  0.00    +0.009 A 
BRANCH  15  18
ATOM     18  O   UNL     1       8.110  -2.240  -1.428  0.00  0.00    -0.507 OA
ATOM     19  H   UNL     1       8.451  -2.986  -0.915  0.00  0.00    +0.292 HD
ENDBRANCH  15  18
ENDBRANCH  11  12
BRANCH  11  20
ATOM     20  C   UNL     1       2.638  -1.974  -4.532  0.00  0.00    +0.238 C 
ATOM     21  O   UNL     1       1.881  -1.091  -4.190  0.00  0.00    -0.273 OA
ATOM     22  N   UNL     1       3.179  -1.958  -5.766  0.00  0.00    -0.309 N 
ATOM     23  H   UNL     1       3.785  -2.665  -6.040  0.00  0.00    +0.149 HD
BRANCH  22  24
ATOM     24  C   UNL     1       2.853  -0.874  -6.695  0.00  0.00    +0.026 C 
ATOM     25  C   UNL     1       3.280   0.464  -6.087  0.00  0.00    +0.031 C 
ATOM     26  C   UNL     1       3.594  -1.093  -8.016  0.00  0.00    +0.031 C 
ATOM     27  C   UNL     1       1.345  -0.859  -6.953  0.00  0.00    +0.031 C 
ENDBRANCH  22  24
ENDBRANCH  11  20
ENDBRANCH   1  11
BRANCH   2  28
ATOM     28  C   UNL     1       1.600  -5.506  -3.005  0.00  0.00    +0.135 C 
BRANCH  28  29
ATOM     29  C   UNL     1       2.834  -6.222  -2.520  0.00  0.00    -0.031 A 
ATOM     30  C   UNL     1       3.005  -6.469  -1.171  0.00  0.00    +0.005 A 
ATOM     31  C   UNL     1       4.137  -7.126  -0.726  0.00  0.00    +0.000 A 
ATOM     32  C   UNL     1       5.098  -7.537  -1.631  0.00  0.00    +0.000 A 
ATOM     33  C   UNL     1       4.926  -7.291  -2.981  0.00  0.00    +0.000 A 
ATOM     34  C   UNL     1       3.792  -6.638  -3.426  0.00  0.00    +0.005 A 
ENDBRANCH  28  29
BRANCH  28  35
ATOM     35  C   UNL     1       0.408  -6.420  -2.883  0.00  0.00    -0.031 A 
ATOM     36  C   UNL     1       0.071  -6.957  -1.655  0.00  0.00    +0.005 A 
ATOM     37  C   UNL     1      -1.022  -7.795  -1.544  0.00  0.00    +0.000 A 
ATOM     38  C   UNL     1      -1.779  -8.097  -2.661  0.00  0.00    +0.000 A 
ATOM     39  C   UNL     1      -1.442  -7.559  -3.889  0.00  0.00    +0.000 A 
ATOM     40  C   UNL     1      -0.352  -6.717  -3.999  0.00  0.00    +0.005 A 
ENDBRANCH  28  35
ENDBRANCH   2  28
TORSDOF 10
