REMARK  Name = ZINC19973085
REMARK  12 active torsions:
REMARK  status: ('A' for Active; 'I' for Inactive)
REMARK    1  A    between atoms: C_1  and  C_2
REMARK    2  A    between atoms: C_12  and  C_14
REMARK    3  A    between atoms: C_14  and  C_16
REMARK    4  A    between atoms: C_14  and  N_25
REMARK    5  A    between atoms: N_20  and  C_21
REMARK    6  A    between atoms: C_21  and  C_22
REMARK    7  A    between atoms: C_22  and  O_23
REMARK    8  A    between atoms: O_23  and  C_24
REMARK    9  A    between atoms: N_25  and  C_26
REMARK   10  A    between atoms: N_25  and  C_33
REMARK   11  A    between atoms: C_26  and  C_27
REMARK   12  A    between atoms: C_33  and  C_34
REMARK                            x       y       z     vdW  Elec       q    Type
REMARK                         _______ _______ _______ _____ _____    ______ ____
ROOT
ATOM      1  C   UNL     1      -0.342  -2.289   4.381  0.00  0.00    +0.163 C 
ENDROOT
BRANCH   1  13
ATOM      2  C   UNL     1      -3.004   1.806  -0.018  0.00  0.00    +0.046 C 
ATOM      3  C   UNL     1      -2.737   0.324  -0.072  0.00  0.00    -0.026 A 
ATOM      4  C   UNL     1      -3.077  -0.400  -1.195  0.00  0.00    +0.005 A 
ATOM      5  C   UNL     1      -2.831  -1.764  -1.260  0.00  0.00    +0.001 A 
ATOM      6  C   UNL     1      -2.258  -2.418  -0.206  0.00  0.00    +0.010 A 
ATOM      7  C   UNL     1      -1.909  -1.705   0.946  0.00  0.00    -0.001 A 
ATOM      8  C   UNL     1      -2.151  -0.320   1.013  0.00  0.00    +0.052 A 
ATOM      9  N   UNL     1      -1.806   0.378   2.150  0.00  0.00    -0.322 N 
ATOM     10  H   UNL     1      -1.993   1.460   2.209  0.00  0.00    +0.169 HD
ATOM     11  C   UNL     1      -1.241  -0.245   3.199  0.00  0.00    +0.254 A 
ATOM     12  O   UNL     1      -0.949   0.403   4.189  0.00  0.00    -0.268 OA
ATOM     13  C   UNL     1      -0.977  -1.632   3.183  0.00  0.00    +0.042 A 
ATOM     14  C   UNL     1      -1.293  -2.374   2.093  0.00  0.00    +0.021 A 
ENDBRANCH   1  13
BRANCH   1  15
ATOM     15  C   UNL     1       1.053  -1.751   4.568  0.00  0.00    +0.173 A 
ATOM     16  N   UNL     1       1.386  -0.630   5.161  0.00  0.00    -0.111 NA
ATOM     17  N   UNL     1       2.670  -0.524   5.119  0.00  0.00    -0.023 NA
ATOM     18  N   UNL     1       3.164  -1.548   4.515  0.00  0.00    -0.044 NA
ATOM     19  N   UNL     1       2.199  -2.330   4.165  0.00  0.00    -0.225 N 
BRANCH  19  20
ATOM     20  C   UNL     1       2.327  -3.607   3.457  0.00  0.00    +0.175 C 
BRANCH  20  21
ATOM     21  C   UNL     1       2.275  -3.361   1.948  0.00  0.00    +0.183 C 
BRANCH  21  22
ATOM     22  O   UNL     1       2.400  -4.606   1.258  0.00  0.00    -0.381 OA
ATOM     23  C   UNL     1       2.364  -4.488  -0.166  0.00  0.00    +0.194 C 
ENDBRANCH  21  22
ENDBRANCH  20  21
ENDBRANCH  19  20
ENDBRANCH   1  15
BRANCH   1  24
ATOM     24  N   UNL     1      -1.143  -2.003   5.578  0.00  0.00    -0.280 NA
BRANCH  24  25
ATOM     25  C   UNL     1      -0.750  -2.873   6.695  0.00  0.00    +0.121 C 
BRANCH  25  26
ATOM     26  C   UNL     1       0.529  -2.360   7.306  0.00  0.00    -0.033 A 
ATOM     27  C   UNL     1       1.738  -2.940   6.968  0.00  0.00    +0.005 A 
ATOM     28  C   UNL     1       2.911  -2.465   7.524  0.00  0.00    +0.000 A 
ATOM     29  C   UNL     1       2.875  -1.419   8.426  0.00  0.00    +0.000 A 
ATOM     30  C   UNL     1       1.666  -0.843   8.768  0.00  0.00    +0.000 A 
ATOM     31  C   UNL     1       0.493  -1.313   8.208  0.00  0.00    +0.005 A 
ENDBRANCH  25  26
ENDBRANCH  24  25
BRANCH  24  32
ATOM     32  C   UNL     1      -2.578  -2.127   5.294  0.00  0.00    +0.121 C 
BRANCH  32  33
ATOM     33  C   UNL     1      -3.368  -1.493   6.410  0.00  0.00    -0.033 A 
ATOM     34  C   UNL     1      -3.813  -2.264   7.467  0.00  0.00    +0.006 A 
ATOM     35  C   UNL     1      -4.532  -1.682   8.493  0.00  0.00    +0.020 A 
ATOM     36  C   UNL     1      -4.818  -0.329   8.457  0.00  0.00    +0.041 A 
ATOM     37  C   UNL     1      -4.378   0.442   7.395  0.00  0.00    +0.020 A 
ATOM     38  C   UNL     1      -3.653  -0.141   6.372  0.00  0.00    +0.006 A 
ATOM     39 CL   UNL     1      -5.727   0.402   9.742  0.00  0.00    -0.084 Cl
ENDBRANCH  32  33
ENDBRANCH  24  32
ENDBRANCH   1  24
TORSDOF 10
