REMARK  Name = ZINC40139086
REMARK  4 active torsions:
REMARK  status: ('A' for Active; 'I' for Inactive)
REMARK    1  A    between atoms: C_5  and  S_6
REMARK    2  A    between atoms: S_6  and  N_9
REMARK    3  A    between atoms: C_15  and  C_17
REMARK    4  A    between atoms: C_17  and  N_18
REMARK                            x       y       z     vdW  Elec       q    Type
REMARK                         _______ _______ _______ _____ _____    ______ ____
ROOT
ATOM      1  N   UNL     1      -1.743  -1.437  -1.571  0.00  0.00    -0.173 NA
ATOM      2  C   UNL     1      -2.725  -0.599  -2.274  0.00  0.00    +0.128 C 
ATOM      3  C   UNL     1      -2.076  -0.048  -3.549  0.00  0.00    +0.125 C 
ATOM      4  N   UNL     1      -1.447  -1.161  -4.274  0.00  0.00    -0.297 N 
ATOM      5  C   UNL     1      -0.465  -1.999  -3.572  0.00  0.00    +0.125 C 
ATOM      6  C   UNL     1      -1.110  -2.546  -2.298  0.00  0.00    +0.128 C 
ATOM      7  C   UNL     1      -1.765  -1.409  -5.560  0.00  0.00    +0.237 C 
ATOM      8  O   UNL     1      -2.577  -0.711  -6.129  0.00  0.00    -0.274 OA
ENDROOT
BRANCH   1   9
ATOM      9  S   UNL     1      -1.352  -1.132   0.009  0.00  0.00    +0.067 S 
ATOM     10  O   UNL     1      -0.861  -2.352   0.548  0.00  0.00    -0.152 OA
ATOM     11  O   UNL     1      -2.455  -0.438   0.574  0.00  0.00    -0.152 OA
BRANCH   9  16
ATOM     12  C   UNL     1      -0.016   1.351   0.009  0.00  0.00    +0.038 A 
ATOM     13  C   UNL     1       1.184   2.038   0.002  0.00  0.00    +0.030 A 
ATOM     14  C   UNL     1       2.343   1.335  -0.013  0.00  0.00    +0.080 A 
ATOM     15  S   UNL     1       1.753  -0.350  -0.017  0.00  0.00    -0.057 S 
ATOM     16  C   UNL     1       0.002  -0.004   0.002  0.00  0.00    +0.144 A 
ATOM     17 CL   UNL     1       3.977   1.921  -0.026  0.00  0.00    -0.076 Cl
ENDBRANCH   9  16
ENDBRANCH   1   9
BRANCH   7  18
ATOM     18  C   UNL     1      -1.112  -2.554  -6.291  0.00  0.00    +0.239 C 
BRANCH  18  19
ATOM     19  N   UNL     1      -1.623  -2.613  -7.662  0.00  0.00    -0.260 N 
ATOM     20  C   UNL     1      -0.879  -2.601  -8.788  0.00  0.00    +0.111 A 
ATOM     21  C   UNL     1      -1.724  -2.670  -9.842  0.00  0.00    +0.074 A 
ATOM     22  C   UNL     1      -3.030  -2.726  -9.344  0.00  0.00    +0.235 A 
ATOM     23  N   UNL     1      -2.970  -2.698  -8.037  0.00  0.00    -0.146 NA
ATOM     24  N   UNL     1      -4.265  -2.809 -10.155  0.00  0.00    +0.077 N 
ATOM     25  O   UNL     1      -4.196  -2.834 -11.362  0.00  0.00    -0.125 OA
ATOM     26  O   UNL     1      -5.344  -2.852  -9.611  0.00  0.00    -0.125 OA
ENDBRANCH  18  19
ENDBRANCH   7  18
TORSDOF 4
