REMARK  Name = ZINC15013498
REMARK  9 active torsions:
REMARK  status: ('A' for Active; 'I' for Inactive)
REMARK    1  A    between atoms: C_1  and  C_2
REMARK    2  A    between atoms: C_4  and  C_15
REMARK    3  A    between atoms: C_5  and  C_14
REMARK    4  A    between atoms: N_6  and  C_7
REMARK    5  A    between atoms: C_16  and  C_17
REMARK    6  A    between atoms: C_16  and  C_19
REMARK    7  A    between atoms: N_21  and  C_22
REMARK    8  A    between atoms: C_22  and  C_23
REMARK    9  A    between atoms: C_23  and  C_24
REMARK                            x       y       z     vdW  Elec       q    Type
REMARK                         _______ _______ _______ _____ _____    ______ ____
ROOT
ATOM      1  C   UNL     1      -5.208  -0.622   1.571  0.00  0.00    +0.033 C 
ATOM      2  C   UNL     1      -6.349  -1.173   1.020  0.00  0.00    +0.114 C 
ENDROOT
BRANCH   1   6
ATOM      3  C   UNL     1      -2.994   1.590  -2.394  0.00  0.00    +0.064 C 
ATOM      4  C   UNL     1      -3.269   0.987  -1.041  0.00  0.00    +0.022 A 
ATOM      5  C   UNL     1      -4.439   0.456  -0.650  0.00  0.00    +0.031 A 
ATOM      6  C   UNL     1      -4.247   0.001   0.735  0.00  0.00    -0.003 A 
ATOM      7  C   UNL     1      -2.934   0.305   1.055  0.00  0.00    +0.028 A 
ATOM      8  N   UNL     1      -2.366   0.889  -0.019  0.00  0.00    -0.316 N 
ATOM      9  C   UNL     1      -2.258   0.031   2.374  0.00  0.00    +0.064 C 
BRANCH   8  10
ATOM     10  C   UNL     1      -1.040   1.339  -0.077  0.00  0.00    +0.060 A 
ATOM     11  C   UNL     1      -0.034   0.485  -0.508  0.00  0.00    +0.027 A 
ATOM     12  C   UNL     1       1.271   0.932  -0.570  0.00  0.00    +0.002 A 
ATOM     13  C   UNL     1       1.578   2.228  -0.197  0.00  0.00    +0.001 A 
ATOM     14  C   UNL     1       0.580   3.080   0.238  0.00  0.00    +0.017 A 
ATOM     15  C   UNL     1      -0.729   2.639   0.302  0.00  0.00    +0.042 A 
ATOM     16 BR   UNL     1      -2.093   3.804   0.897  0.00  0.00    -0.048 Br
ENDBRANCH   8  10
ENDBRANCH   1   6
BRANCH   2  17
ATOM     17  C   UNL     1      -7.414  -1.684   1.894  0.00  0.00    +0.254 C 
ATOM     18  O   UNL     1      -7.291  -1.621   3.103  0.00  0.00    -0.269 OA
ATOM     19  N   UNL     1      -8.527  -2.221   1.357  0.00  0.00    -0.310 N 
ATOM     20  H   UNL     1      -8.625  -2.271   0.393  0.00  0.00    +0.149 HD
BRANCH  19  21
ATOM     21  C   UNL     1      -9.588  -2.730   2.228  0.00  0.00    +0.109 C 
BRANCH  21  22
ATOM     22  C   UNL     1     -10.730  -3.283   1.372  0.00  0.00    +0.056 C 
BRANCH  22  23
ATOM     23  C   UNL     1     -11.822  -3.806   2.269  0.00  0.00    -0.021 A 
ATOM     24  C   UNL     1     -11.988  -5.078   2.666  0.00  0.00    +0.087 A 
ATOM     25  N   UNL     1     -13.087  -5.174   3.477  0.00  0.00    -0.360 N 
ATOM     26  H   UNL     1     -13.406  -5.992   3.888  0.00  0.00    +0.165 HD
ATOM     27  C   UNL     1     -13.674  -3.936   3.617  0.00  0.00    +0.047 A 
ATOM     28  C   UNL     1     -12.908  -3.026   2.867  0.00  0.00    +0.003 A 
ATOM     29  C   UNL     1     -13.272  -1.679   2.824  0.00  0.00    +0.010 A 
ATOM     30  C   UNL     1     -14.372  -1.251   3.513  0.00  0.00    +0.001 A 
ATOM     31  C   UNL     1     -15.132  -2.146   4.254  0.00  0.00    +0.002 A 
ATOM     32  C   UNL     1     -14.790  -3.479   4.310  0.00  0.00    +0.026 A 
ENDBRANCH  22  23
ENDBRANCH  21  22
ENDBRANCH  19  21
ENDBRANCH   2  17
BRANCH   2  33
ATOM     33  C   UNL     1      -6.493  -1.247  -0.403  0.00  0.00    +0.104 C 
ATOM     34  N   UNL     1      -6.608  -1.305  -1.532  0.00  0.00    -0.191 NA
ENDBRANCH   2  33
TORSDOF 7
