REMARK  Name = ZINC09391924
REMARK  10 active torsions:
REMARK  status: ('A' for Active; 'I' for Inactive)
REMARK    1  A    between atoms: C_1  and  C_2
REMARK    2  A    between atoms: C_4  and  C_37
REMARK    3  A    between atoms: C_6  and  C_8
REMARK    4  A    between atoms: N_10  and  C_11
REMARK    5  A    between atoms: C_11  and  C_12
REMARK    6  A    between atoms: C_12  and  N_13
REMARK    7  A    between atoms: C_15  and  S_22
REMARK    8  A    between atoms: S_22  and  C_23
REMARK    9  A    between atoms: C_23  and  C_24
REMARK   10  A    between atoms: N_26  and  C_27
REMARK                            x       y       z     vdW  Elec       q    Type
REMARK                         _______ _______ _______ _____ _____    ______ ____
ROOT
ATOM      1  N   UNL     1       8.470  -5.451   0.441  0.00  0.00    -0.344 N 
ATOM      2  C   UNL     1       7.425  -4.561   0.346  0.00  0.00    +0.101 A 
ATOM      3  C   UNL     1       6.256  -5.229   0.354  0.00  0.00    +0.034 A 
ATOM      4  C   UNL     1       6.580  -6.656   0.470  0.00  0.00    +0.013 A 
ATOM      5  C   UNL     1       7.984  -6.737   0.514  0.00  0.00    +0.050 A 
ATOM      6  C   UNL     1       8.591  -7.984   0.620  0.00  0.00    +0.026 A 
ATOM      7  C   UNL     1       7.815  -9.121   0.674  0.00  0.00    +0.002 A 
ATOM      8  C   UNL     1       6.430  -9.036   0.624  0.00  0.00    +0.001 A 
ATOM      9  C   UNL     1       5.813  -7.821   0.519  0.00  0.00    +0.011 A 
ENDROOT
BRANCH   1  10
ATOM     10  C   UNL     1       9.889  -5.086   0.462  0.00  0.00    +0.140 C 
BRANCH  10  11
ATOM     11  C   UNL     1      10.460  -5.179  -0.954  0.00  0.00    +0.126 C 
BRANCH  11  14
ATOM     12  C   UNL     1      12.594  -4.823  -2.076  0.00  0.00    +0.244 C 
ATOM     13  O   UNL     1      12.062  -5.136  -3.123  0.00  0.00    -0.270 OA
ATOM     14  N   UNL     1      11.879  -4.813  -0.933  0.00  0.00    -0.310 N 
ATOM     15  H   UNL     1      12.303  -4.564  -0.098  0.00  0.00    +0.149 HD
BRANCH  12  21
ATOM     16  C   UNL     1      16.640  -3.363   0.455  0.00  0.00    +0.044 C 
ATOM     17  C   UNL     1      15.976  -3.752  -0.841  0.00  0.00    -0.049 A 
ATOM     18  C   UNL     1      16.707  -3.763  -2.015  0.00  0.00    +0.006 A 
ATOM     19  C   UNL     1      16.105  -4.118  -3.209  0.00  0.00    -0.049 A 
ATOM     20  C   UNL     1      14.770  -4.464  -3.236  0.00  0.00    +0.016 A 
ATOM     21  C   UNL     1      14.026  -4.454  -2.055  0.00  0.00    +0.037 A 
ATOM     22  C   UNL     1      14.638  -4.090  -0.855  0.00  0.00    +0.016 A 
ATOM     23  C   UNL     1      16.909  -4.128  -4.483  0.00  0.00    +0.044 C 
ENDBRANCH  12  21
ENDBRANCH  11  14
ENDBRANCH  10  11
ENDBRANCH   1  10
BRANCH   3  24
ATOM     24  S   UNL     1       4.645  -4.523   0.254  0.00  0.00    -0.114 S 
BRANCH  24  25
ATOM     25  C   UNL     1       4.953  -2.739   0.140  0.00  0.00    +0.170 C 
BRANCH  25  26
ATOM     26  C   UNL     1       3.639  -2.007   0.048  0.00  0.00    +0.227 C 
ATOM     27  O   UNL     1       2.597  -2.628   0.057  0.00  0.00    -0.275 OA
ATOM     28  N   UNL     1       3.621  -0.663  -0.046  0.00  0.00    -0.285 N 
ATOM     29  H   UNL     1       4.453  -0.172  -0.131  0.00  0.00    +0.155 HD
BRANCH  28  30
ATOM     30  C   UNL     1       2.401   0.025  -0.021  0.00  0.00    +0.037 A 
ATOM     31  C   UNL     1       1.346  -0.460   0.740  0.00  0.00    +0.027 A 
ATOM     32  C   UNL     1       0.142   0.217   0.764  0.00  0.00    +0.051 A 
ATOM     33  C   UNL     1      -0.016   1.384   0.030  0.00  0.00    +0.162 A 
ATOM     34  C   UNL     1       1.040   1.873  -0.730  0.00  0.00    +0.164 A 
ATOM     35  C   UNL     1       2.247   1.192  -0.756  0.00  0.00    +0.072 A 
ATOM     36  O   UNL     1       0.906   3.021  -1.451  0.00  0.00    -0.485 OA
ATOM     37  C   UNL     1      -0.429   3.473  -1.699  0.00  0.00    +0.270 C 
ATOM     38  C   UNL     1      -1.216   3.395  -0.384  0.00  0.00    +0.270 C 
ATOM     39  O   UNL     1      -1.213   2.033   0.059  0.00  0.00    -0.485 OA
ENDBRANCH  28  30
ENDBRANCH  25  26
ENDBRANCH  24  25
ENDBRANCH   3  24
TORSDOF 8
