REMARK  Name = ZINC42628561
REMARK  8 active torsions:
REMARK  status: ('A' for Active; 'I' for Inactive)
REMARK    1  A    between atoms: C_1  and  C_2
REMARK    2  A    between atoms: C_7  and  C_9
REMARK    3  A    between atoms: C_7  and  C_10
REMARK    4  A    between atoms: N_13  and  C_17
REMARK    5  A    between atoms: C_17  and  C_18
REMARK    6  A    between atoms: C_18  and  O_20
REMARK    7  A    between atoms: O_20  and  C_21
REMARK    8  A    between atoms: C_26  and  N_27
REMARK                            x       y       z     vdW  Elec       q    Type
REMARK                         _______ _______ _______ _____ _____    ______ ____
ROOT
ATOM      1  C   UNL     1      -0.288   1.438   0.272  0.00  0.00    +0.007 C 
ATOM      2  C   UNL     1      -0.250  -0.093   0.225  0.00  0.00    -0.011 C 
ATOM      3  C   UNL     1      -1.681  -0.632   0.161  0.00  0.00    +0.038 C 
ATOM      4  C   UNL     1      -1.653  -2.151   0.065  0.00  0.00    +0.113 C 
ATOM      5  C   UNL     1      -0.847  -2.797   1.174  0.00  0.00    +0.041 C 
ATOM      6  C   UNL     1       0.491  -2.145   1.477  0.00  0.00    -0.032 C 
ATOM      7  C   UNL     1       0.411  -0.622   1.496  0.00  0.00    +0.009 C 
ATOM      8  C   UNL     1       0.942  -2.609   2.879  0.00  0.00    +0.011 C 
ATOM      9  C   UNL     1       1.557  -2.603   0.478  0.00  0.00    +0.011 C 
ATOM     10  C   UNL     1      -1.199  -2.595  -1.304  0.00  0.00    +0.247 C 
ATOM     11  O   UNL     1      -0.187  -2.287  -1.895  0.00  0.00    -0.273 OA
ATOM     12  N   UNL     1      -2.176  -3.403  -1.770  0.00  0.00    -0.213 N 
ATOM     13  C   UNL     1      -3.230  -3.424  -0.947  0.00  0.00    +0.310 C 
ATOM     14  O   UNL     1      -4.240  -4.067  -1.157  0.00  0.00    -0.252 OA
ATOM     15  N   UNL     1      -3.043  -2.655   0.140  0.00  0.00    -0.285 N 
ATOM     16  H   UNL     1      -3.681  -2.461   0.842  0.00  0.00    +0.151 HD
ENDROOT
BRANCH  12  17
ATOM     17  C   UNL     1      -2.089  -4.161  -3.021  0.00  0.00    +0.238 C 
BRANCH  17  18
ATOM     18  C   UNL     1      -1.489  -5.515  -2.747  0.00  0.00    +0.331 C 
ATOM     19  O   UNL     1      -1.166  -5.817  -1.622  0.00  0.00    -0.249 OA
BRANCH  18  20
ATOM     20  O   UNL     1      -1.312  -6.387  -3.753  0.00  0.00    -0.422 OA
BRANCH  20  21
ATOM     21  C   UNL     1      -0.672  -7.555  -3.480  0.00  0.00    +0.162 A 
ATOM     22  C   UNL     1       0.700  -7.655  -3.666  0.00  0.00    +0.049 A 
ATOM     23  C   UNL     1       1.348  -8.843  -3.388  0.00  0.00    +0.004 A 
ATOM     24  C   UNL     1       0.631  -9.932  -2.926  0.00  0.00    +0.002 A 
ATOM     25  C   UNL     1      -0.736  -9.834  -2.740  0.00  0.00    +0.036 A 
ATOM     26  C   UNL     1      -1.388  -8.646  -3.011  0.00  0.00    +0.168 A 
BRANCH  26  27
ATOM     27  N   UNL     1      -2.850  -8.540  -2.806  0.00  0.00    +0.060 N 
ATOM     28  O   UNL     1      -3.473  -9.492  -2.397  0.00  0.00    -0.126 OA
ATOM     29  O   UNL     1      -3.420  -7.502  -3.048  0.00  0.00    -0.126 OA
ENDBRANCH  26  27
ENDBRANCH  20  21
ENDBRANCH  18  20
ENDBRANCH  17  18
ENDBRANCH  12  17
TORSDOF 5
