REMARK  Name = ZINC46577016
REMARK  9 active torsions:
REMARK  status: ('A' for Active; 'I' for Inactive)
REMARK    1  A    between atoms: C_1  and  C_2
REMARK    2  A    between atoms: N_5  and  C_8
REMARK    3  A    between atoms: C_8  and  C_9
REMARK    4  A    between atoms: C_12  and  C_15
REMARK    5  A    between atoms: C_15  and  N_16
REMARK    6  A    between atoms: C_17  and  C_19
REMARK    7  A    between atoms: C_19  and  S_20
REMARK    8  A    between atoms: S_20  and  C_21
REMARK    9  A    between atoms: C_21  and  C_22
REMARK                            x       y       z     vdW  Elec       q    Type
REMARK                         _______ _______ _______ _____ _____    ______ ____
ROOT
ATOM      1  N   UNL     1       2.010  -4.413   7.195  0.00  0.00    -0.311 N 
ATOM      2  C   UNL     1       2.585  -4.555   8.405  0.00  0.00    +0.223 C 
ATOM      3  O   UNL     1       2.746  -5.662   8.874  0.00  0.00    -0.275 OA
ATOM      4  H   UNL     1       1.881  -3.528   6.820  0.00  0.00    +0.149 HD
ENDROOT
BRANCH   1   5
ATOM      5  C   UNL     1       1.578  -5.596   6.446  0.00  0.00    +0.139 C 
BRANCH   5   9
ATOM      6  C   UNL     1      -0.143  -4.380   2.730  0.00  0.00    -0.064 A 
ATOM      7  C   UNL     1       1.212  -4.640   2.812  0.00  0.00    +0.002 A 
ATOM      8  C   UNL     1       1.769  -5.033   4.014  0.00  0.00    +0.005 A 
ATOM      9  C   UNL     1       0.971  -5.166   5.135  0.00  0.00    -0.030 A 
ATOM     10  C   UNL     1      -0.384  -4.906   5.053  0.00  0.00    +0.005 A 
ATOM     11  C   UNL     1      -0.940  -4.508   3.852  0.00  0.00    +0.002 A 
BRANCH   6  12
ATOM     12  C   UNL     1      -0.750  -3.952   1.419  0.00  0.00    -0.043 C 
BRANCH  12  17
ATOM     13  C   UNL     1      -0.019   1.526   0.010  0.00  0.00    +0.007 C 
ATOM     14  C   UNL     1       0.002  -0.004   0.002  0.00  0.00    -0.018 C 
ATOM     15  C   UNL     1      -1.434  -0.536   0.023  0.00  0.00    -0.016 C 
ATOM     16  C   UNL     1      -1.405  -2.064   0.095  0.00  0.00    -0.078 C 
ATOM     17  N   UNL     1      -0.707  -2.487   1.315  0.00  0.00    +0.382 N 
ATOM     18  C   UNL     1       0.691  -2.042   1.269  0.00  0.00    -0.078 C 
ATOM     19  C   UNL     1       0.743  -0.513   1.242  0.00  0.00    -0.016 C 
ATOM     20  H   UNL     1      -1.162  -2.082   2.119  0.00  0.00    -0.081 HD
ENDBRANCH  12  17
ENDBRANCH   6  12
ENDBRANCH   5   9
ENDBRANCH   1   5
BRANCH   2  21
ATOM     21  C   UNL     1       3.029  -3.338   9.176  0.00  0.00    +0.165 C 
BRANCH  21  22
ATOM     22  S   UNL     1       3.760  -3.855  10.754  0.00  0.00    -0.144 S 
BRANCH  22  23
ATOM     23  C   UNL     1       4.236  -2.296  11.549  0.00  0.00    +0.143 C 
BRANCH  23  24
ATOM     24  C   UNL     1       4.864  -2.586  12.887  0.00  0.00    +0.121 A 
ATOM     25  N   UNL     1       5.292  -1.554  13.660  0.00  0.00    -0.310 N 
ATOM     26  H   UNL     1       5.187  -0.645  13.339  0.00  0.00    +0.170 HD
ATOM     27  C   UNL     1       5.860  -1.769  14.862  0.00  0.00    +0.260 A 
ATOM     28  O   UNL     1       6.239  -0.833  15.545  0.00  0.00    -0.267 OA
ATOM     29  C   UNL     1       6.009  -3.117  15.323  0.00  0.00    +0.075 A 
ATOM     30  C   UNL     1       6.593  -3.582  16.590  0.00  0.00    -0.023 A 
ATOM     31  C   UNL     1       6.621  -4.910  16.794  0.00  0.00    -0.004 A 
ATOM     32  S   UNL     1       5.880  -5.615  15.339  0.00  0.00    -0.073 S 
ATOM     33  C   UNL     1       5.538  -4.114  14.459  0.00  0.00    +0.116 A 
ATOM     34  N   UNL     1       4.983  -3.825  13.285  0.00  0.00    -0.226 NA
ATOM     35  C   UNL     1       7.244  -5.269  18.117  0.00  0.00    +0.043 C 
ATOM     36  C   UNL     1       8.005  -3.995  18.545  0.00  0.00    +0.010 C 
ATOM     37  C   UNL     1       7.213  -2.896  17.810  0.00  0.00    +0.037 C 
ENDBRANCH  23  24
ENDBRANCH  22  23
ENDBRANCH  21  22
ENDBRANCH   2  21
TORSDOF 8
