REMARK  Name = ZINC21263333
REMARK  11 active torsions:
REMARK  status: ('A' for Active; 'I' for Inactive)
REMARK    1  A    between atoms: C_1  and  C_2
REMARK    2  A    between atoms: C_2  and  C_31
REMARK    3  A    between atoms: C_4  and  N_10
REMARK    4  A    between atoms: C_6  and  C_8
REMARK    5  A    between atoms: C_6  and  C_9
REMARK    6  A    between atoms: N_10  and  C_11
REMARK    7  A    between atoms: C_11  and  N_13
REMARK    8  A    between atoms: N_13  and  C_14
REMARK    9  A    between atoms: N_13  and  C_24
REMARK   10  A    between atoms: C_14  and  C_15
REMARK   11  A    between atoms: N_27  and  C_30
REMARK                            x       y       z     vdW  Elec       q    Type
REMARK                         _______ _______ _______ _____ _____    ______ ____
ROOT
ATOM      1  N   UNL     1      -2.939   0.729   1.431  0.00  0.00    -0.305 N 
ENDROOT
BRANCH   1   2
ATOM      2  C   UNL     1      -2.503  -0.482   2.130  0.00  0.00    +0.072 C 
ATOM      3  C   UNL     1      -3.717  -1.366   2.428  0.00  0.00    +0.004 C 
ATOM      4  C   UNL     1      -3.264  -2.600   3.211  0.00  0.00    -0.077 C 
ATOM      5  N   UNL     1      -2.624  -2.178   4.464  0.00  0.00    +0.378 N 
ATOM      6  C   UNL     1      -1.428  -1.368   4.202  0.00  0.00    -0.077 C 
ATOM      7  C   UNL     1      -1.827  -0.097   3.448  0.00  0.00    +0.004 C 
ATOM      8  C   UNL     1      -2.300  -3.338   5.306  0.00  0.00    -0.096 C 
ATOM      9  H   UNL     1      -3.342  -1.550   5.012  0.00  0.00    -0.082 HD
ENDBRANCH   1   2
BRANCH   1  10
ATOM     10  C   UNL     1      -3.773   1.595   2.039  0.00  0.00    +0.134 C 
ATOM     11  S   UNL     1      -4.425   1.219   3.577  0.00  0.00    -0.019 S 
BRANCH  10  12
ATOM     12  N   UNL     1      -4.093   2.758   1.437  0.00  0.00    -0.324 N 
ATOM     13  H   UNL     1      -3.743   2.962   0.415  0.00  0.00    +0.148 HD
BRANCH  12  17
ATOM     14  C   UNL     1      -4.903   6.461   3.678  0.00  0.00    -0.010 C 
ATOM     15  C   UNL     1      -5.475   6.191   2.281  0.00  0.00    -0.072 C 
ATOM     16  C   UNL     1      -4.623   5.139   1.575  0.00  0.00    +0.009 C 
ATOM     17  C   UNL     1      -4.910   3.751   2.147  0.00  0.00    +0.069 C 
ATOM     18  C   UNL     1      -6.389   3.433   1.931  0.00  0.00    +0.009 C 
ATOM     19  C   UNL     1      -7.263   4.465   2.640  0.00  0.00    -0.072 C 
ATOM     20  N   UNL     1      -6.875   5.829   2.351  0.00  0.00    +0.386 N 
ATOM     21  C   UNL     1      -7.255   4.194   4.149  0.00  0.00    -0.010 C 
ATOM     22  C   UNL     1      -8.714   4.261   2.148  0.00  0.00    -0.010 C 
ATOM     23  C   UNL     1      -5.355   7.504   1.476  0.00  0.00    -0.010 C 
ATOM     24  H   UNL     1      -7.367   6.416   3.141  0.00  0.00    -0.084 HD
ATOM     25  H   UNL     1      -7.357   6.041   1.384  0.00  0.00    -0.084 HD
ENDBRANCH  12  17
ENDBRANCH  10  12
ENDBRANCH   1  10
BRANCH   1  26
ATOM     26  C   UNL     1      -2.468   0.999   0.070  0.00  0.00    +0.142 C 
BRANCH  26  27
ATOM     27  C   UNL     1      -1.191   1.796   0.129  0.00  0.00    -0.026 A 
ATOM     28  C   UNL     1      -1.240   3.178   0.145  0.00  0.00    +0.009 A 
ATOM     29  C   UNL     1      -0.071   3.914   0.192  0.00  0.00    +0.050 A 
ATOM     30  C   UNL     1       1.154   3.267   0.231  0.00  0.00    +0.166 A 
ATOM     31  C   UNL     1       1.204   1.876   0.222  0.00  0.00    +0.167 A 
ATOM     32  C   UNL     1       0.028   1.145   0.174  0.00  0.00    +0.054 A 
ATOM     33  O   UNL     1       2.511   1.485   0.266  0.00  0.00    -0.453 OA
ATOM     34  C   UNL     1       3.272   2.648  -0.111  0.00  0.00    +0.466 C 
ATOM     35  O   UNL     1       2.430   3.749   0.280  0.00  0.00    -0.453 OA
ENDBRANCH  26  27
ENDBRANCH   1  26
TORSDOF 6
