REMARK  Name = ZINC48260372
REMARK  6 active torsions:
REMARK  status: ('A' for Active; 'I' for Inactive)
REMARK    1  A    between atoms: C_9  and  N_11
REMARK    2  A    between atoms: N_11  and  C_12
REMARK    3  A    between atoms: N_11  and  C_28
REMARK    4  A    between atoms: C_12  and  C_13
REMARK    5  A    between atoms: N_15  and  C_16
REMARK    6  A    between atoms: C_17  and  C_25
REMARK                            x       y       z     vdW  Elec       q    Type
REMARK                         _______ _______ _______ _____ _____    ______ ____
ROOT
ATOM      1  C   UNL     1       5.906  -2.336   2.393  0.00  0.00    +0.201 C 
ATOM      2  O   UNL     1       5.498  -1.833   3.419  0.00  0.00    -0.278 OA
ATOM      3  N   UNL     1       6.947  -3.191   2.430  0.00  0.00    -0.281 N 
ATOM      4  H   UNL     1       7.272  -3.594   1.610  0.00  0.00    +0.155 HD
ENDROOT
BRANCH   3   5
ATOM      5  C   UNL     1       7.551  -3.496   3.640  0.00  0.00    +0.084 A 
ATOM      6  C   UNL     1       8.626  -4.341   3.866  0.00  0.00    +0.068 A 
ATOM      7  C   UNL     1       9.075  -4.492   5.240  0.00  0.00    -0.023 A 
ATOM      8  C   UNL     1       8.366  -3.770   6.135  0.00  0.00    -0.004 A 
ATOM      9  S   UNL     1       7.155  -2.919   5.167  0.00  0.00    -0.077 S 
ATOM     10  C   UNL     1       8.580  -3.713   7.616  0.00  0.00    +0.043 C 
ATOM     11  C   UNL     1       9.484  -4.888   8.018  0.00  0.00    +0.005 C 
ATOM     12  C   UNL     1      10.687  -4.934   7.071  0.00  0.00    +0.005 C 
ATOM     13  C   UNL     1      10.236  -5.373   5.676  0.00  0.00    +0.037 C 
BRANCH   6  14
ATOM     14  C   UNL     1       9.283  -5.053   2.766  0.00  0.00    +0.244 C 
ATOM     15  O   UNL     1      10.219  -4.540   2.181  0.00  0.00    -0.270 OA
ATOM     16  N   UNL     1       8.850  -6.277   2.402  0.00  0.00    -0.325 N 
ATOM     17  H   UNL     1       8.104  -6.686   2.868  0.00  0.00    +0.145 HD
ATOM     18  H   UNL     1       9.284  -6.748   1.674  0.00  0.00    +0.145 HD
ENDBRANCH   6  14
ENDBRANCH   3   5
BRANCH   1  19
ATOM     19  C   UNL     1       5.248  -2.005   1.078  0.00  0.00    +0.020 C 
BRANCH  19  20
ATOM     20  N   UNL     1       4.148  -1.058   1.305  0.00  0.00    +0.392 N 
ATOM     21  H   UNL     1       3.524  -1.430   2.005  0.00  0.00    -0.080 HD
BRANCH  20  30
ATOM     22  C   UNL     1       1.925  -4.534  -1.510  0.00  0.00    +0.000 A 
ATOM     23  C   UNL     1       1.183  -3.952  -0.499  0.00  0.00    +0.000 A 
ATOM     24  C   UNL     1       1.597  -2.759   0.060  0.00  0.00    +0.002 A 
ATOM     25  C   UNL     1       2.754  -2.143  -0.389  0.00  0.00    -0.058 A 
ATOM     26  C   UNL     1       3.495  -2.725  -1.399  0.00  0.00    -0.046 A 
ATOM     27  C   UNL     1       3.078  -3.922  -1.959  0.00  0.00    +0.004 A 
ATOM     28  C   UNL     1       4.702  -1.866  -1.708  0.00  0.00    +0.034 C 
ATOM     29  C   UNL     1       4.386  -0.488  -1.089  0.00  0.00    -0.006 C 
ATOM     30  C   UNL     1       3.412  -0.853   0.051  0.00  0.00    -0.036 C 
ENDBRANCH  20  30
BRANCH  20  31
ATOM     31  C   UNL     1       4.694   0.225   1.768  0.00  0.00    -0.067 C 
ATOM     32  C   UNL     1       4.306   0.693   3.172  0.00  0.00    -0.017 C 
ATOM     33  C   UNL     1       3.715   1.387   1.944  0.00  0.00    -0.017 C 
ENDBRANCH  20  31
ENDBRANCH  19  20
ENDBRANCH   1  19
TORSDOF 6
