REMARK  Name = ZINC08791931
REMARK  5 active torsions:
REMARK  status: ('A' for Active; 'I' for Inactive)
REMARK    1  A    between atoms: C_4  and  C_7
REMARK    2  A    between atoms: C_7  and  C_8
REMARK    3  A    between atoms: C_8  and  C_10
REMARK    4  A    between atoms: C_8  and  N_26
REMARK    5  A    between atoms: C_27  and  C_29
REMARK                            x       y       z     vdW  Elec       q    Type
REMARK                         _______ _______ _______ _____ _____    ______ ____
ROOT
ATOM      1  C   UNL     1      -3.012   4.123  -1.394  0.00  0.00    +0.164 C 
ENDROOT
BRANCH   1   2
ATOM      2  C   UNL     1      -4.426   4.640  -1.341  0.00  0.00    +0.236 C 
ATOM      3  O   UNL     1      -4.707   5.696  -1.867  0.00  0.00    -0.274 OA
ATOM      4  N   UNL     1      -5.380   3.928  -0.708  0.00  0.00    -0.300 N 
ATOM      5  C   UNL     1      -5.037   2.702   0.025  0.00  0.00    +0.107 C 
ATOM      6  C   UNL     1      -5.917   1.559  -0.478  0.00  0.00    +0.013 C 
ATOM      7  C   UNL     1      -7.387   1.966  -0.374  0.00  0.00    -0.020 C 
ATOM      8  C   UNL     1      -7.647   3.198  -1.242  0.00  0.00    +0.013 C 
ATOM      9  C   UNL     1      -6.784   4.361  -0.743  0.00  0.00    +0.107 C 
ATOM     10  C   UNL     1      -8.262   0.828  -0.832  0.00  0.00    +0.051 A 
ATOM     11  C   UNL     1      -8.934   0.020   0.020  0.00  0.00    +0.035 A 
ATOM     12  N   UNL     1      -9.613  -0.883  -0.734  0.00  0.00    -0.348 N 
ATOM     13  H   UNL     1     -10.204  -1.615  -0.396  0.00  0.00    +0.166 HD
ATOM     14  C   UNL     1      -9.335  -0.604  -2.029  0.00  0.00    +0.196 A 
ATOM     15  N   UNL     1      -8.525   0.422  -2.075  0.00  0.00    -0.242 NA
ATOM     16  C   UNL     1      -8.881   0.167   1.519  0.00  0.00    +0.036 C 
ATOM     17  C   UNL     1      -7.684   1.064   1.864  0.00  0.00    -0.075 C 
ATOM     18  N   UNL     1      -7.718   2.285   1.033  0.00  0.00    +0.387 N 
ATOM     19  H   UNL     1      -8.659   2.694   1.073  0.00  0.00    -0.085 HD
ATOM     20  H   UNL     1      -7.035   2.960   1.396  0.00  0.00    -0.085 HD
ENDBRANCH   1   2
BRANCH   1  21
ATOM     21  N   UNL     1      -2.315   4.724  -2.534  0.00  0.00    -0.300 N 
ATOM     22  C   UNL     1      -1.266   4.089  -3.094  0.00  0.00    +0.245 C 
ATOM     23  O   UNL     1      -0.898   3.017  -2.653  0.00  0.00    -0.270 OA
ATOM     24  H   UNL     1      -2.608   5.579  -2.886  0.00  0.00    +0.150 HD
BRANCH  22  25
ATOM     25  C   UNL     1      -0.563   4.695  -4.244  0.00  0.00    +0.037 A 
ATOM     26  C   UNL     1      -0.987   5.923  -4.756  0.00  0.00    +0.014 A 
ATOM     27  C   UNL     1      -0.324   6.486  -5.826  0.00  0.00    +0.016 A 
ATOM     28  C   UNL     1       0.753   5.831  -6.400  0.00  0.00    +0.018 A 
ATOM     29  C   UNL     1       1.175   4.610  -5.899  0.00  0.00    +0.016 A 
ATOM     30  C   UNL     1       0.523   4.040  -4.826  0.00  0.00    +0.014 A 
ATOM     31 BR   UNL     1       1.652   6.606  -7.872  0.00  0.00    -0.050 Br
ENDBRANCH  22  25
ENDBRANCH   1  21
BRANCH   1  32
ATOM     32  C   UNL     1      -2.285   4.493  -0.100  0.00  0.00    +0.067 C 
BRANCH  32  36
ATOM     33  C   UNL     1       1.592   2.699  -0.083  0.00  0.00    +0.000 A 
ATOM     34  C   UNL     1       0.512   2.017   0.446  0.00  0.00    +0.000 A 
ATOM     35  C   UNL     1      -0.743   2.595   0.436  0.00  0.00    +0.004 A 
ATOM     36  C   UNL     1      -0.917   3.860  -0.093  0.00  0.00    -0.045 A 
ATOM     37  C   UNL     1       0.163   4.542  -0.622  0.00  0.00    +0.004 A 
ATOM     38  C   UNL     1       1.417   3.962  -0.617  0.00  0.00    +0.000 A 
ENDBRANCH  32  36
ENDBRANCH   1  32
TORSDOF 5
