REMARK  Name = ZINC13064467
REMARK  9 active torsions:
REMARK  status: ('A' for Active; 'I' for Inactive)
REMARK    1  A    between atoms: C_1  and  C_2
REMARK    2  A    between atoms: C_2  and  C_3
REMARK    3  A    between atoms: C_3  and  C_5
REMARK    4  A    between atoms: C_3  and  N_69
REMARK    5  A    between atoms: N_9  and  C_10
REMARK    6  A    between atoms: C_10  and  C_11
REMARK    7  A    between atoms: C_16  and  C_17
REMARK    8  A    between atoms: C_16  and  N_69
REMARK    9  A    between atoms: C_33  and  N_69
REMARK                            x       y       z     vdW  Elec       q    Type
REMARK                         _______ _______ _______ _____ _____    ______ ____
ROOT
ATOM      1  N   UNL     1       1.653  -2.976  -1.514  0.00  0.00    +0.391 N 
ATOM      2  H   UNL     1       1.043  -2.411  -2.117  0.00  0.00    -0.080 HD
ENDROOT
BRANCH   1   3
ATOM      3  C   UNL     1       2.996  -3.052  -2.127  0.00  0.00    -0.067 C 
ATOM      4  C   UNL     1       3.952  -3.839  -1.228  0.00  0.00    -0.015 C 
ATOM      5  C   UNL     1       5.332  -3.902  -1.884  0.00  0.00    -0.002 C 
ATOM      6  C   UNL     1       5.869  -2.483  -2.079  0.00  0.00    -0.000 C 
ATOM      7  C   UNL     1       4.914  -1.695  -2.978  0.00  0.00    -0.002 C 
ATOM      8  C   UNL     1       3.533  -1.632  -2.322  0.00  0.00    -0.015 C 
ENDBRANCH   1   3
BRANCH   1   9
ATOM      9  C   UNL     1       1.079  -4.332  -1.385  0.00  0.00    +0.003 C 
BRANCH   9  10
ATOM     10  C   UNL     1       1.496  -4.957  -0.080  0.00  0.00    +0.139 A 
ATOM     11  N   UNL     1       2.654  -4.820   0.519  0.00  0.00    -0.115 NA
ATOM     12  N   UNL     1       2.622  -5.506   1.609  0.00  0.00    -0.023 NA
ATOM     13  N   UNL     1       1.477  -6.085   1.717  0.00  0.00    -0.044 NA
ATOM     14  N   UNL     1       0.754  -5.771   0.695  0.00  0.00    -0.223 N 
BRANCH  14  15
ATOM     15  C   UNL     1      -0.615  -6.216   0.428  0.00  0.00    +0.221 C 
BRANCH  15  16
ATOM     16  C   UNL     1      -0.582  -7.497  -0.365  0.00  0.00    +0.126 A 
ATOM     17  C   UNL     1      -0.553  -8.739   0.148  0.00  0.00    +0.046 A 
ATOM     18  C   UNL     1      -0.530  -9.634  -0.946  0.00  0.00    +0.041 A 
ATOM     19  C   UNL     1      -0.538  -8.884  -2.063  0.00  0.00    +0.195 A 
ATOM     20  O   UNL     1      -0.570  -7.590  -1.705  0.00  0.00    -0.466 OA
ENDBRANCH  15  16
ENDBRANCH  14  15
ENDBRANCH   9  10
BRANCH   9  22
ATOM     21  C   UNL     1       1.020  -4.645  -3.864  0.00  0.00    +0.002 C 
ATOM     22  C   UNL     1       1.565  -5.202  -2.546  0.00  0.00    -0.011 C 
ENDBRANCH   9  22
ENDBRANCH   1   9
BRANCH   1  23
ATOM     23  C   UNL     1       1.740  -2.336  -0.184  0.00  0.00    -0.036 C 
BRANCH  23  24
ATOM     24  C   UNL     1       0.346  -2.026   0.297  0.00  0.00    +0.001 A 
ATOM     25  C   UNL     1      -0.301  -2.903   1.107  0.00  0.00    +0.017 A 
ATOM     26  C   UNL     1      -1.652  -2.573   1.557  0.00  0.00    +0.002 A 
ATOM     27  C   UNL     1      -2.364  -3.437   2.398  0.00  0.00    +0.059 A 
ATOM     28  C   UNL     1      -3.640  -3.102   2.802  0.00  0.00    +0.163 A 
ATOM     29  C   UNL     1      -4.217  -1.899   2.386  0.00  0.00    +0.164 A 
ATOM     30  C   UNL     1      -3.518  -1.036   1.559  0.00  0.00    +0.075 A 
ATOM     31  C   UNL     1      -2.235  -1.362   1.138  0.00  0.00    +0.053 A 
ATOM     32  N   UNL     1      -1.524  -0.513   0.313  0.00  0.00    -0.322 N 
ATOM     33  H   UNL     1      -1.927   0.320   0.024  0.00  0.00    +0.169 HD
ATOM     34  C   UNL     1      -0.282  -0.826  -0.095  0.00  0.00    +0.251 A 
ATOM     35  O   UNL     1       0.317  -0.052  -0.822  0.00  0.00    -0.268 OA
ATOM     36  O   UNL     1      -5.471  -1.556   2.788  0.00  0.00    -0.485 OA
ATOM     37  C   UNL     1      -6.290  -2.608   3.310  0.00  0.00    +0.270 C 
ATOM     38  C   UNL     1      -5.453  -3.419   4.308  0.00  0.00    +0.270 C 
ATOM     39  O   UNL     1      -4.323  -3.957   3.613  0.00  0.00    -0.485 OA
ENDBRANCH  23  24
ENDBRANCH   1  23
TORSDOF 8
