REMARK  Name = ZINC40987562
REMARK  6 active torsions:
REMARK  status: ('A' for Active; 'I' for Inactive)
REMARK    1  A    between atoms: C_1  and  C_2
REMARK    2  A    between atoms: N_5  and  S_8
REMARK    3  A    between atoms: S_8  and  C_11
REMARK    4  A    between atoms: C_14  and  N_17
REMARK    5  A    between atoms: C_18  and  C_20
REMARK    6  A    between atoms: N_23  and  C_25
REMARK                            x       y       z     vdW  Elec       q    Type
REMARK                         _______ _______ _______ _____ _____    ______ ____
ROOT
ATOM      1  N   UNL     1       0.100  -9.041  -0.007  0.00  0.00    -0.280 N 
ATOM      2  C   UNL     1       1.300  -9.601   0.244  0.00  0.00    +0.269 C 
ATOM      3  O   UNL     1       2.087  -9.045   0.987  0.00  0.00    -0.268 OA
ATOM      4  H   UNL     1      -0.557  -9.519  -0.536  0.00  0.00    +0.155 HD
ENDROOT
BRANCH   2   5
ATOM      5  C   UNL     1       1.660 -10.889  -0.382  0.00  0.00    +0.151 A 
ATOM      6  C   UNL     1       2.862 -11.597  -0.215  0.00  0.00    +0.006 A 
ATOM      7  C   UNL     1       2.746 -12.713  -0.977  0.00  0.00    +0.044 A 
ATOM      8  N   UNL     1       1.538 -12.670  -1.562  0.00  0.00    -0.263 N 
ATOM      9  N   UNL     1       0.911 -11.604  -1.204  0.00  0.00    -0.166 NA
ATOM     10  C   UNL     1       3.820 -13.763  -1.097  0.00  0.00    +0.055 C 
ATOM     11  C   UNL     1       5.139 -13.165  -0.589  0.00  0.00    +0.006 C 
ATOM     12  C   UNL     1       4.917 -12.519   0.781  0.00  0.00    +0.005 C 
ATOM     13  C   UNL     1       4.065 -11.252   0.619  0.00  0.00    +0.039 C 
BRANCH   8  14
ATOM     14  C   UNL     1       1.009 -13.691  -2.471  0.00  0.00    +0.130 C 
ATOM     15  C   UNL     1      -0.290 -14.270  -1.887  0.00  0.00    +0.051 C 
ATOM     16  C   UNL     1      -0.989 -15.107  -2.996  0.00  0.00    +0.168 C 
ATOM     17  S   UNL     1      -0.710 -14.024  -4.461  0.00  0.00    -0.029 S 
ATOM     18  O   UNL     1      -0.295 -14.828  -5.557  0.00  0.00    -0.174 OA
ATOM     19  O   UNL     1      -1.824 -13.155  -4.613  0.00  0.00    -0.174 OA
ATOM     20  C   UNL     1       0.728 -13.053  -3.852  0.00  0.00    +0.192 C 
ENDBRANCH   8  14
ENDBRANCH   2   5
BRANCH   1  24
ATOM     21  C   UNL     1      -0.788  -5.257   1.490  0.00  0.00    +0.106 A 
ATOM     22  C   UNL     1       0.508  -5.565   1.119  0.00  0.00    +0.030 A 
ATOM     23  C   UNL     1       0.806  -6.819   0.622  0.00  0.00    +0.025 A 
ATOM     24  C   UNL     1      -0.198  -7.771   0.496  0.00  0.00    +0.034 A 
ATOM     25  C   UNL     1      -1.498  -7.458   0.871  0.00  0.00    +0.025 A 
ATOM     26  C   UNL     1      -1.788  -6.204   1.371  0.00  0.00    +0.030 A 
BRANCH  21  27
ATOM     27  S   UNL     1      -1.164  -3.656   2.123  0.00  0.00    +0.061 S 
ATOM     28  O   UNL     1      -2.550  -3.443   1.892  0.00  0.00    -0.153 OA
ATOM     29  O   UNL     1      -0.164  -2.777   1.625  0.00  0.00    -0.153 OA
BRANCH  27  34
ATOM     30  C   UNL     1      -1.097  -1.722   7.521  0.00  0.00    +0.007 C 
ATOM     31  C   UNL     1      -0.922  -2.786   6.436  0.00  0.00    -0.012 C 
ATOM     32  C   UNL     1       0.143  -2.326   5.438  0.00  0.00    +0.020 C 
ATOM     33  C   UNL     1       0.340  -3.409   4.372  0.00  0.00    +0.110 C 
ATOM     34  N   UNL     1      -0.962  -3.719   3.766  0.00  0.00    -0.177 NA
ATOM     35  C   UNL     1      -2.081  -4.085   4.644  0.00  0.00    +0.110 C 
ATOM     36  C   UNL     1      -2.252  -2.994   5.706  0.00  0.00    +0.020 C 
ENDBRANCH  27  34
ENDBRANCH  21  27
ENDBRANCH   1  24
TORSDOF 5
