REMARK  Name = ZINC36567234
REMARK  17 active torsions:
REMARK  status: ('A' for Active; 'I' for Inactive)
REMARK    1  A    between atoms: C_1  and  C_2
REMARK    2  A    between atoms: C_2  and  C_3
REMARK    3  A    between atoms: C_3  and  N_4
REMARK    4  A    between atoms: N_4  and  C_5
REMARK    5  A    between atoms: C_5  and  C_7
REMARK    6  A    between atoms: C_5  and  C_14
REMARK    7  A    between atoms: C_12  and  O_13
REMARK    8  A    between atoms: N_16  and  C_17
REMARK    9  A    between atoms: C_17  and  C_18
REMARK   10  A    between atoms: C_17  and  C_19
REMARK   11  A    between atoms: C_17  and  C_20
REMARK   12  A    between atoms: C_20  and  C_21
REMARK   13  A    between atoms: C_21  and  C_22
REMARK   14  A    between atoms: C_21  and  C_23
REMARK   15  A    between atoms: C_21  and  C_24
REMARK   16  A    between atoms: C_25  and  C_27
REMARK   17  A    between atoms: C_27  and  C_28
REMARK                            x       y       z     vdW  Elec       q    Type
REMARK                         _______ _______ _______ _____ _____    ______ ____
ROOT
ATOM      1  C   UNL     1       1.473  -4.056  -1.376  0.00  0.00    +0.196 C 
ENDROOT
BRANCH   1   2
ATOM      2  C   UNL     1       2.666  -3.607  -0.572  0.00  0.00    +0.023 A 
ATOM      3  C   UNL     1       3.341  -2.454  -0.922  0.00  0.00    +0.009 A 
ATOM      4  C   UNL     1       4.436  -2.042  -0.185  0.00  0.00    +0.001 A 
ATOM      5  C   UNL     1       4.858  -2.782   0.903  0.00  0.00    +0.004 A 
ATOM      6  C   UNL     1       4.186  -3.936   1.258  0.00  0.00    +0.046 A 
ATOM      7  C   UNL     1       3.084  -4.349   0.523  0.00  0.00    +0.122 A 
BRANCH   7   8
ATOM      8  O   UNL     1       2.418  -5.481   0.873  0.00  0.00    -0.506 OA
ATOM      9  H   UNL     1       2.803  -6.291   0.512  0.00  0.00    +0.292 HD
ENDBRANCH   7   8
ENDBRANCH   1   2
BRANCH   1  10
ATOM     10  C   UNL     1       1.508  -3.404  -2.734  0.00  0.00    +0.239 C 
ATOM     11  O   UNL     1       0.714  -2.528  -3.007  0.00  0.00    -0.273 OA
ATOM     12  N   UNL     1       2.421  -3.794  -3.646  0.00  0.00    -0.308 N 
ATOM     13  H   UNL     1       2.984  -4.564  -3.470  0.00  0.00    +0.149 HD
BRANCH  12  14
ATOM     14  C   UNL     1       2.564  -3.054  -4.902  0.00  0.00    +0.030 C 
ATOM     15  C   UNL     1       1.327  -3.284  -5.773  0.00  0.00    +0.031 C 
ATOM     16  C   UNL     1       2.705  -1.560  -4.601  0.00  0.00    +0.031 C 
BRANCH  14  17
ATOM     17  C   UNL     1       3.809  -3.544  -5.644  0.00  0.00    +0.031 C 
BRANCH  17  18
ATOM     18  C   UNL     1       5.061  -3.146  -4.859  0.00  0.00    -0.036 C 
ATOM     19  C   UNL     1       4.790  -3.289  -3.360  0.00  0.00    +0.010 C 
ATOM     20  C   UNL     1       6.223  -4.056  -5.257  0.00  0.00    +0.010 C 
ATOM     21  C   UNL     1       5.420  -1.692  -5.175  0.00  0.00    +0.010 C 
ENDBRANCH  17  18
ENDBRANCH  14  17
ENDBRANCH  12  14
ENDBRANCH   1  10
BRANCH   1  22
ATOM     22  N   UNL     1       0.243  -3.671  -0.681  0.00  0.00    -0.286 N 
ATOM     23  C   UNL     1       0.030  -2.381  -0.352  0.00  0.00    +0.221 C 
ATOM     24  O   UNL     1       0.857  -1.540  -0.632  0.00  0.00    -0.275 OA
BRANCH  22  25
ATOM     25  C   UNL     1      -0.757  -4.688  -0.342  0.00  0.00    +0.108 C 
BRANCH  25  27
ATOM     26  C   UNL     1      -1.597  -6.195   1.464  0.00  0.00    +0.005 C 
ATOM     27  C   UNL     1      -0.496  -5.208   1.073  0.00  0.00    +0.016 C 
ENDBRANCH  25  27
ENDBRANCH  22  25
BRANCH  23  28
ATOM     28  C   UNL     1      -1.236  -1.985   0.363  0.00  0.00    +0.131 C 
BRANCH  28  29
ATOM     29  C   UNL     1      -1.228  -0.499   0.612  0.00  0.00    -0.039 A 
ATOM     30  C   UNL     1      -0.680   0.004   1.778  0.00  0.00    +0.005 A 
ATOM     31  C   UNL     1      -0.671   1.367   2.006  0.00  0.00    +0.015 A 
ATOM     32  C   UNL     1      -1.212   2.228   1.069  0.00  0.00    +0.018 A 
ATOM     33  C   UNL     1      -1.761   1.725  -0.097  0.00  0.00    +0.015 A 
ATOM     34  C   UNL     1      -1.764   0.362  -0.327  0.00  0.00    +0.005 A 
ATOM     35 BR   UNL     1      -1.202   4.093   1.381  0.00  0.00    -0.050 Br
ENDBRANCH  28  29
ENDBRANCH  23  28
ENDBRANCH   1  22
TORSDOF 11
