REMARK  Name = ZINC24908555
REMARK  12 active torsions:
REMARK  status: ('A' for Active; 'I' for Inactive)
REMARK    1  A    between atoms: C_1  and  C_2
REMARK    2  A    between atoms: C_3  and  C_13
REMARK    3  A    between atoms: C_5  and  C_7
REMARK    4  A    between atoms: C_13  and  O_14
REMARK    5  A    between atoms: O_14  and  C_15
REMARK    6  A    between atoms: C_15  and  C_17
REMARK    7  A    between atoms: C_17  and  C_19
REMARK    8  A    between atoms: C_17  and  N_23
REMARK    9  A    between atoms: C_19  and  C_21
REMARK   10  A    between atoms: C_19  and  O_22
REMARK   11  A    between atoms: N_23  and  S_24
REMARK   12  A    between atoms: S_24  and  C_27
REMARK                            x       y       z     vdW  Elec       q    Type
REMARK                         _______ _______ _______ _____ _____    ______ ____
ROOT
ATOM      1  C   UNL     1      -3.127   3.587   2.947  0.00  0.00    +0.213 C 
ENDROOT
BRANCH   1   2
ATOM      2  C   UNL     1      -2.734   3.597   1.492  0.00  0.00    +0.329 C 
ATOM      3  O   UNL     1      -3.410   4.193   0.687  0.00  0.00    -0.249 OA
BRANCH   2   4
ATOM      4  O   UNL     1      -1.632   2.943   1.090  0.00  0.00    -0.457 OA
BRANCH   4   5
ATOM      5  C   UNL     1      -1.314   2.996  -0.326  0.00  0.00    +0.291 C 
BRANCH   5   8
ATOM      6  C   UNL     1       1.603   4.118  -0.267  0.00  0.00    +0.088 C 
ATOM      7  C   UNL     1       1.200   2.696  -0.563  0.00  0.00    +0.129 A 
ATOM      8  C   UNL     1      -0.054   2.211  -0.587  0.00  0.00    +0.120 A 
ATOM      9  N   UNL     1       0.015   0.906  -0.890  0.00  0.00    -0.210 NA
ATOM     10  C   UNL     1       1.276   0.580  -1.053  0.00  0.00    +0.228 A 
ATOM     11  O   UNL     1       2.030   1.675  -0.855  0.00  0.00    -0.440 OA
BRANCH  10  12
ATOM     12  C   UNL     1       1.781  -0.766  -1.396  0.00  0.00    +0.037 A 
ATOM     13  C   UNL     1       0.890  -1.826  -1.571  0.00  0.00    +0.013 A 
ATOM     14  C   UNL     1       1.369  -3.078  -1.897  0.00  0.00    +0.001 A 
ATOM     15  C   UNL     1       2.729  -3.287  -2.040  0.00  0.00    +0.000 A 
ATOM     16  C   UNL     1       3.618  -2.242  -1.862  0.00  0.00    +0.001 A 
ATOM     17  C   UNL     1       3.152  -0.984  -1.541  0.00  0.00    +0.013 A 
ENDBRANCH  10  12
ENDBRANCH   5   8
ENDBRANCH   4   5
ENDBRANCH   2   4
ENDBRANCH   1   2
BRANCH   1  18
ATOM     18  C   UNL     1      -3.367   2.146   3.400  0.00  0.00    +0.141 C 
ATOM     19  C   UNL     1      -3.906   2.144   4.832  0.00  0.00    +0.040 C 
BRANCH  18  20
ATOM     20  O   UNL     1      -2.136   1.421   3.354  0.00  0.00    -0.390 OA
ATOM     21  H   UNL     1      -2.110   0.361   3.647  0.00  0.00    +0.210 HD
ENDBRANCH  18  20
ENDBRANCH   1  18
BRANCH   1  22
ATOM     22  N   UNL     1      -4.355   4.366   3.126  0.00  0.00    -0.174 NA
ATOM     23  H   UNL     1      -5.252   4.120   2.538  0.00  0.00    +0.149 HD
BRANCH  22  24
ATOM     24  S   UNL     1      -4.329   5.760   4.019  0.00  0.00    +0.059 S 
ATOM     25  O   UNL     1      -5.648   6.286   3.989  0.00  0.00    -0.153 OA
ATOM     26  O   UNL     1      -3.658   5.452   5.233  0.00  0.00    -0.153 OA
BRANCH  24  27
ATOM     27  C   UNL     1      -3.308   6.910   3.158  0.00  0.00    +0.107 A 
ATOM     28  C   UNL     1      -1.952   6.964   3.423  0.00  0.00    +0.030 A 
ATOM     29  C   UNL     1      -1.150   7.862   2.744  0.00  0.00    +0.023 A 
ATOM     30  C   UNL     1      -1.706   8.716   1.808  0.00  0.00    +0.059 A 
ATOM     31  C   UNL     1      -3.064   8.666   1.547  0.00  0.00    +0.061 A 
ATOM     32  C   UNL     1      -3.865   7.762   2.223  0.00  0.00    +0.050 A 
ATOM     33 CL   UNL     1      -3.763   9.736   0.372  0.00  0.00    -0.082 Cl
ATOM     34 CL   UNL     1      -0.700   9.848   0.960  0.00  0.00    -0.082 Cl
ENDBRANCH  24  27
ENDBRANCH  22  24
ENDBRANCH   1  22
TORSDOF 10
