REMARK  Name = ZINC64720948
REMARK  10 active torsions:
REMARK  status: ('A' for Active; 'I' for Inactive)
REMARK    1  A    between atoms: C_1  and  C_2
REMARK    2  A    between atoms: C_2  and  O_3
REMARK    3  A    between atoms: O_3  and  C_4
REMARK    4  A    between atoms: C_9  and  C_10
REMARK    5  A    between atoms: C_10  and  N_11
REMARK    6  A    between atoms: C_12  and  C_14
REMARK    7  A    between atoms: C_14  and  N_15
REMARK    8  A    between atoms: C_18  and  C_23
REMARK    9  A    between atoms: C_23  and  C_24
REMARK   10  A    between atoms: C_34  and  C_37
REMARK                            x       y       z     vdW  Elec       q    Type
REMARK                         _______ _______ _______ _____ _____    ______ ____
ROOT
ATOM      1  C   UNL     1       5.332   0.466  -3.313  0.00  0.00    +0.213 C 
ENDROOT
BRANCH   1   2
ATOM      2  N   UNL     1       5.895   1.371  -4.318  0.00  0.00    -0.216 N 
ATOM      3  C   UNL     1       6.689   0.975  -5.332  0.00  0.00    +0.244 C 
ATOM      4  O   UNL     1       7.058  -0.153  -5.576  0.00  0.00    -0.273 OA
ATOM      5  C   UNL     1       7.024   2.235  -6.105  0.00  0.00    +0.165 C 
ATOM      6  N   UNL     1       6.313   3.294  -5.367  0.00  0.00    -0.287 N 
ATOM      7  C   UNL     1       5.680   2.691  -4.345  0.00  0.00    +0.310 C 
ATOM      8  O   UNL     1       4.992   3.280  -3.534  0.00  0.00    -0.252 OA
ATOM      9  H   UNL     1       6.301   4.240  -5.579  0.00  0.00    +0.151 HD
BRANCH   5  10
ATOM     10  C   UNL     1       8.533   2.488  -6.095  0.00  0.00    +0.065 C 
BRANCH  10  11
ATOM     11  C   UNL     1       8.850   3.673  -6.970  0.00  0.00    -0.039 C 
ATOM     12  C   UNL     1       9.002   4.958  -6.575  0.00  0.00    -0.001 A 
ATOM     13  C   UNL     1       8.920   5.611  -5.263  0.00  0.00    +0.010 A 
ATOM     14  C   UNL     1       9.125   6.946  -5.181  0.00  0.00    +0.001 A 
ATOM     15  C   UNL     1       9.412   7.718  -6.314  0.00  0.00    +0.002 A 
ATOM     16  C   UNL     1       9.503   7.190  -7.553  0.00  0.00    +0.026 A 
ATOM     17  C   UNL     1       9.306   5.796  -7.756  0.00  0.00    +0.043 A 
ATOM     18  N   UNL     1       9.341   5.059  -8.840  0.00  0.00    -0.380 N 
ATOM     19  C   UNL     1       9.068   3.666  -8.466  0.00  0.00    +0.144 C 
ATOM     20  H   UNL     1       9.521   5.379  -9.737  0.00  0.00    +0.160 HD
ENDBRANCH  10  11
ENDBRANCH   5  10
ENDBRANCH   1   2
BRANCH   1  22
ATOM     21  N   UNL     1       3.290  -0.901  -3.023  0.00  0.00    -0.310 N 
ATOM     22  C   UNL     1       3.997  -0.047  -3.790  0.00  0.00    +0.231 C 
ATOM     23  O   UNL     1       3.560   0.309  -4.864  0.00  0.00    -0.274 OA
ATOM     24  H   UNL     1       3.640  -1.185  -2.165  0.00  0.00    +0.149 HD
BRANCH  21  25
ATOM     25  C   UNL     1       1.993  -1.399  -3.487  0.00  0.00    +0.143 C 
BRANCH  25  31
ATOM     26  C   UNL     1       0.777  -1.811  -1.336  0.00  0.00    +0.126 A 
ATOM     27  C   UNL     1       0.243  -2.672  -0.388  0.00  0.00    +0.053 A 
ATOM     28  C   UNL     1       0.352  -4.034  -0.558  0.00  0.00    +0.001 A 
ATOM     29  C   UNL     1       0.985  -4.564  -1.675  0.00  0.00    +0.125 A 
ATOM     30  C   UNL     1       1.523  -3.695  -2.620  0.00  0.00    +0.054 A 
ATOM     31  C   UNL     1       1.413  -2.330  -2.454  0.00  0.00    +0.015 A 
ATOM     32  O   UNL     1       0.961  -5.926  -1.656  0.00  0.00    -0.488 OA
ATOM     33  C   UNL     1       0.703  -6.376  -0.315  0.00  0.00    +0.175 C 
ATOM     34  C   UNL     1      -0.108  -5.205   0.289  0.00  0.00    +0.083 C 
ATOM     35  C   UNL     1       2.013  -6.583   0.449  0.00  0.00    +0.052 C 
BRANCH  26  36
ATOM     36  O   UNL     1       0.671  -0.465  -1.174  0.00  0.00    -0.492 OA
BRANCH  36  38
ATOM     37  C   UNL     1      -0.019   1.526   0.010  0.00  0.00    +0.048 C 
ATOM     38  C   UNL     1       0.002  -0.004   0.002  0.00  0.00    +0.225 C 
ENDBRANCH  36  38
ENDBRANCH  26  36
ENDBRANCH  25  31
ENDBRANCH  21  25
ENDBRANCH   1  22
TORSDOF 8
