REMARK  Name = ZINC39015739
REMARK  11 active torsions:
REMARK  status: ('A' for Active; 'I' for Inactive)
REMARK    1  A    between atoms: C_1  and  O_2
REMARK    2  A    between atoms: O_2  and  C_3
REMARK    3  A    between atoms: C_8  and  C_9
REMARK    4  A    between atoms: N_10  and  N_11
REMARK    5  A    between atoms: C_12  and  C_18
REMARK    6  A    between atoms: C_20  and  O_28
REMARK    7  A    between atoms: C_21  and  O_26
REMARK    8  A    between atoms: C_22  and  O_24
REMARK    9  A    between atoms: O_24  and  C_25
REMARK   10  A    between atoms: O_26  and  C_27
REMARK   11  A    between atoms: O_28  and  C_29
REMARK                            x       y       z     vdW  Elec       q    Type
REMARK                         _______ _______ _______ _____ _____    ______ ____
ROOT
ATOM      1  N   UNL     1      -1.020  -3.015  -2.027  0.00  0.00    -0.172 N 
ATOM      2  C   UNL     1      -1.624  -2.532  -3.283  0.00  0.00    +0.264 C 
ATOM      3  N   UNL     1      -1.950  -3.766  -4.014  0.00  0.00    -0.189 NA
ATOM      4  N   UNL     1      -1.605  -4.726  -3.320  0.00  0.00    -0.219 N 
ATOM      5  C   UNL     1      -1.043  -4.361  -2.136  0.00  0.00    +0.174 C 
ATOM      6  S   UNL     1      -0.453  -5.450  -0.954  0.00  0.00    -0.015 S 
ATOM      7  H   UNL     1      -1.719  -5.650  -3.593  0.00  0.00    +0.176 HD
ENDROOT
BRANCH   2   8
ATOM      8  C   UNL     1      -0.637  -1.699  -4.059  0.00  0.00    +0.005 A 
ATOM      9  C   UNL     1       0.334  -0.978  -3.389  0.00  0.00    +0.057 A 
ATOM     10  C   UNL     1       1.244  -0.210  -4.099  0.00  0.00    +0.166 A 
ATOM     11  C   UNL     1       1.180  -0.167  -5.487  0.00  0.00    +0.204 A 
ATOM     12  C   UNL     1       0.203  -0.893  -6.157  0.00  0.00    +0.166 A 
ATOM     13  C   UNL     1      -0.700  -1.663  -5.439  0.00  0.00    +0.057 A 
BRANCH  12  14
ATOM     14  O   UNL     1       0.136  -0.854  -7.515  0.00  0.00    -0.491 OA
ATOM     15  C   UNL     1      -0.893  -1.625  -8.136  0.00  0.00    +0.277 C 
ENDBRANCH  12  14
BRANCH  11  16
ATOM     16  O   UNL     1       2.071   0.586  -6.188  0.00  0.00    -0.488 OA
ATOM     17  C   UNL     1       3.285  -0.052  -6.590  0.00  0.00    +0.277 C 
ENDBRANCH  11  16
BRANCH  10  18
ATOM     18  O   UNL     1       2.198   0.499  -3.439  0.00  0.00    -0.491 OA
ATOM     19  C   UNL     1       2.204   0.407  -2.013  0.00  0.00    +0.277 C 
ENDBRANCH  10  18
ENDBRANCH   2   8
BRANCH   1  21
ATOM     20  C   UNL     1       0.092  -2.826   0.022  0.00  0.00    +0.142 C 
ATOM     21  N   UNL     1      -0.528  -2.248  -0.963  0.00  0.00    -0.183 NA
BRANCH  20  27
ATOM     22  C   UNL     1       0.166  -0.681   1.288  0.00  0.00    +0.129 A 
ATOM     23  C   UNL     1       0.523   0.042   2.414  0.00  0.00    +0.047 A 
ATOM     24  C   UNL     1       1.183  -0.580   3.457  0.00  0.00    +0.019 A 
ATOM     25  C   UNL     1       1.492  -1.929   3.385  0.00  0.00    +0.019 A 
ATOM     26  C   UNL     1       1.143  -2.663   2.271  0.00  0.00    +0.028 A 
ATOM     27  C   UNL     1       0.472  -2.047   1.213  0.00  0.00    +0.037 A 
ATOM     28 BR   UNL     1       2.396  -2.765   4.821  0.00  0.00    -0.050 Br
BRANCH  22  30
ATOM     29  C   UNL     1      -0.760   1.324   0.410  0.00  0.00    +0.277 C 
ATOM     30  O   UNL     1      -0.483  -0.070   0.263  0.00  0.00    -0.494 OA
ENDBRANCH  22  30
ENDBRANCH  20  27
ENDBRANCH   1  21
TORSDOF 7
