REMARK  Name = ZINC03118028
REMARK  13 active torsions:
REMARK  status: ('A' for Active; 'I' for Inactive)
REMARK    1  A    between atoms: C_1  and  C_2
REMARK    2  A    between atoms: C_2  and  C_3
REMARK    3  A    between atoms: C_3  and  S_4
REMARK    4  A    between atoms: S_4  and  C_7
REMARK    5  A    between atoms: C_9  and  C_34
REMARK    6  A    between atoms: C_14  and  C_22
REMARK    7  A    between atoms: C_15  and  S_16
REMARK    8  A    between atoms: S_16  and  C_19
REMARK    9  A    between atoms: C_19  and  C_20
REMARK   10  A    between atoms: C_20  and  C_21
REMARK   11  A    between atoms: N_24  and  N_25
REMARK   12  A    between atoms: C_26  and  C_27
REMARK   13  A    between atoms: C_32  and  O_33
REMARK                            x       y       z     vdW  Elec       q    Type
REMARK                         _______ _______ _______ _____ _____    ______ ____
ROOT
ATOM      1  C   UNL     1      -3.098  -2.699  -0.030  0.00  0.00    +0.139 A 
ATOM      2  C   UNL     1      -3.889  -3.081   1.054  0.00  0.00    +0.076 A 
ATOM      3  C   UNL     1      -3.561  -3.522   2.349  0.00  0.00    -0.025 A 
ATOM      4  C   UNL     1      -4.559  -3.834   3.221  0.00  0.00    +0.007 A 
ATOM      5  C   UNL     1      -5.897  -3.710   2.815  0.00  0.00    +0.018 A 
ATOM      6  C   UNL     1      -6.195  -3.285   1.569  0.00  0.00    +0.092 A 
ATOM      7  N   UNL     1      -5.204  -2.969   0.684  0.00  0.00    -0.308 N 
ATOM      8  C   UNL     1      -5.250  -2.521  -0.619  0.00  0.00    +0.138 A 
ATOM      9  C   UNL     1      -3.944  -2.347  -1.064  0.00  0.00    +0.144 A 
ATOM     10  C   UNL     1      -2.118  -3.650   2.766  0.00  0.00    +0.046 C 
ENDROOT
BRANCH   8  11
ATOM     11  C   UNL     1      -6.422  -2.276  -1.372  0.00  0.00    +0.282 C 
ATOM     12  O   UNL     1      -6.908  -3.164  -2.050  0.00  0.00    -0.267 OA
ATOM     13  N   UNL     1      -7.003  -1.060  -1.339  0.00  0.00    -0.202 N 
ATOM     14  H   UNL     1      -6.577  -0.333  -0.858  0.00  0.00    +0.178 HD
BRANCH  13  15
ATOM     15  N   UNL     1      -8.220  -0.846  -1.999  0.00  0.00    -0.187 NA
ATOM     16  C   UNL     1      -8.779   0.325  -1.967  0.00  0.00    +0.142 C 
BRANCH  16  17
ATOM     17  C   UNL     1     -10.059   0.550  -2.662  0.00  0.00    +0.036 A 
ATOM     18  C   UNL     1     -10.661   1.810  -2.635  0.00  0.00    +0.013 A 
ATOM     19  C   UNL     1     -11.859   2.014  -3.287  0.00  0.00    +0.001 A 
ATOM     20  C   UNL     1     -12.468   0.974  -3.969  0.00  0.00    +0.004 A 
ATOM     21  C   UNL     1     -11.883  -0.278  -4.002  0.00  0.00    +0.046 A 
ATOM     22  C   UNL     1     -10.677  -0.498  -3.357  0.00  0.00    +0.125 A 
BRANCH  22  23
ATOM     23  O   UNL     1     -10.098  -1.726  -3.395  0.00  0.00    -0.506 OA
ATOM     24  H   UNL     1     -10.368  -2.311  -2.673  0.00  0.00    +0.292 HD
ENDBRANCH  22  23
ENDBRANCH  16  17
ENDBRANCH  13  15
ENDBRANCH   8  11
BRANCH   1  25
ATOM     25  S   UNL     1      -1.337  -2.664  -0.070  0.00  0.00    +0.001 S 
ATOM     26  O   UNL     1      -0.954  -2.173   1.207  0.00  0.00    -0.169 OA
ATOM     27  O   UNL     1      -1.015  -1.940  -1.251  0.00  0.00    -0.169 OA
BRANCH  25  28
ATOM     28  C   UNL     1      -0.840  -4.400  -0.247  0.00  0.00    +0.172 C 
BRANCH  28  30
ATOM     29  C   UNL     1       1.106  -5.955  -0.442  0.00  0.00    +0.005 C 
ATOM     30  C   UNL     1       0.687  -4.491  -0.293  0.00  0.00    +0.020 C 
ENDBRANCH  28  30
ENDBRANCH  25  28
ENDBRANCH   1  25
BRANCH   9  31
ATOM     31  S   UNL     1      -3.456  -1.782  -2.660  0.00  0.00    +0.001 S 
ATOM     32  O   UNL     1      -4.673  -1.461  -3.319  0.00  0.00    -0.169 OA
ATOM     33  O   UNL     1      -2.482  -0.778  -2.408  0.00  0.00    -0.169 OA
BRANCH  31  34
ATOM     34  C   UNL     1      -2.681  -3.221  -3.447  0.00  0.00    +0.172 C 
BRANCH  34  35
ATOM     35  C   UNL     1      -2.213  -2.843  -4.854  0.00  0.00    +0.020 C 
ATOM     36  C   UNL     1      -1.560  -4.056  -5.517  0.00  0.00    +0.005 C 
ENDBRANCH  34  35
ENDBRANCH  31  34
ENDBRANCH   9  31
TORSDOF 10
