REMARK  Name = ZINC38905729
REMARK  4 active torsions:
REMARK  status: ('A' for Active; 'I' for Inactive)
REMARK    1  A    between atoms: C_1  and  C_2
REMARK    2  A    between atoms: C_5  and  C_8
REMARK    3  A    between atoms: N_14  and  C_16
REMARK    4  A    between atoms: C_21  and  C_23
REMARK                            x       y       z     vdW  Elec       q    Type
REMARK                         _______ _______ _______ _____ _____    ______ ____
ROOT
ATOM      1  C   UNL     1       0.061  -4.251  -0.021  0.00  0.00    +0.249 C 
ATOM      2  O   UNL     1       0.064  -4.853  -1.077  0.00  0.00    -0.270 OA
ATOM      3  N   UNL     1       0.076  -4.931   1.142  0.00  0.00    -0.265 N 
ATOM      4  C   UNL     1       0.095  -6.332   1.134  0.00  0.00    +0.153 A 
ATOM      5  C   UNL     1       0.106  -7.155   2.257  0.00  0.00    +0.045 A 
ATOM      6  C   UNL     1       0.116  -8.455   1.826  0.00  0.00    +0.129 A 
ATOM      7  N   UNL     1       0.122  -8.440   0.480  0.00  0.00    -0.251 N 
ATOM      8  N   UNL     1       0.099  -7.099   0.065  0.00  0.00    -0.154 NA
ATOM      9  C   UNL     1       0.143  -9.615  -0.396  0.00  0.00    +0.174 C 
ATOM     10  N   UNL     1       0.107  -9.527   2.719  0.00  0.00    -0.270 N 
ATOM     11  C   UNL     1      -0.113  -9.265   4.024  0.00  0.00    +0.219 C 
ATOM     12  O   UNL     1       0.061 -10.148   4.838  0.00  0.00    -0.275 OA
ATOM     13  C   UNL     1      -0.568  -7.915   4.502  0.00  0.00    +0.112 C 
ATOM     14  C   UNL     1       0.115  -6.789   3.719  0.00  0.00    +0.100 C 
ATOM     15  H   UNL     1       0.073  -4.451   1.985  0.00  0.00    +0.157 HD
ATOM     16  H   UNL     1       0.255 -10.434   2.410  0.00  0.00    +0.156 HD
ENDROOT
BRANCH   1  21
ATOM     17  C   UNL     1      -0.018   1.503   0.010  0.00  0.00    +0.044 C 
ATOM     18  C   UNL     1       0.002  -0.004   0.002  0.00  0.00    -0.050 A 
ATOM     19  C   UNL     1       0.006  -0.686  -1.202  0.00  0.00    +0.004 A 
ATOM     20  C   UNL     1       0.025  -2.066  -1.216  0.00  0.00    +0.013 A 
ATOM     21  C   UNL     1       0.041  -2.773  -0.013  0.00  0.00    +0.037 A 
ATOM     22  C   UNL     1       0.037  -2.079   1.198  0.00  0.00    +0.013 A 
ATOM     23  C   UNL     1       0.023  -0.699   1.198  0.00  0.00    +0.004 A 
ENDBRANCH   1  21
BRANCH  14  24
ATOM     24  C   UNL     1      -0.636  -5.499   3.924  0.00  0.00    +0.113 A 
ATOM     25  C   UNL     1      -0.126  -4.364   4.435  0.00  0.00    +0.045 A 
ATOM     26  C   UNL     1      -1.173  -3.414   4.447  0.00  0.00    +0.041 A 
ATOM     27  C   UNL     1      -2.260  -4.025   3.944  0.00  0.00    +0.195 A 
ATOM     28  O   UNL     1      -1.928  -5.286   3.623  0.00  0.00    -0.467 OA
ENDBRANCH  14  24
TORSDOF 2
