REMARK  Name = ZINC54642403
REMARK  13 active torsions:
REMARK  status: ('A' for Active; 'I' for Inactive)
REMARK    1  A    between atoms: C_1  and  C_2
REMARK    2  A    between atoms: C_2  and  O_3
REMARK    3  A    between atoms: O_3  and  C_4
REMARK    4  A    between atoms: C_4  and  C_6
REMARK    5  A    between atoms: C_7  and  C_39
REMARK    6  A    between atoms: C_11  and  S_31
REMARK    7  A    between atoms: C_14  and  C_16
REMARK    8  A    between atoms: C_19  and  O_22
REMARK    9  A    between atoms: O_22  and  C_23
REMARK   10  A    between atoms: C_23  and  C_24
REMARK   11  A    between atoms: C_27  and  C_30
REMARK   12  A    between atoms: S_31  and  C_32
REMARK   13  A    between atoms: C_32  and  C_33
REMARK                            x       y       z     vdW  Elec       q    Type
REMARK                         _______ _______ _______ _____ _____    ______ ____
ROOT
ATOM      1  C   UNL     1       1.246  -2.359  -2.578  0.00  0.00    +0.082 C 
ATOM      2  C   UNL     1       1.598  -3.654  -2.557  0.00  0.00    +0.020 C 
ATOM      3  N   UNL     1       2.390  -4.213  -3.529  0.00  0.00    -0.287 N 
ATOM      4  C   UNL     1       2.609  -3.469  -4.681  0.00  0.00    +0.219 A 
ATOM      5  N   UNL     1       3.120  -3.828  -5.827  0.00  0.00    -0.187 NA
ATOM      6  C   UNL     1       3.135  -2.776  -6.659  0.00  0.00    +0.211 A 
ATOM      7  N   UNL     1       2.629  -1.732  -6.039  0.00  0.00    -0.141 NA
ATOM      8  N   UNL     1       2.284  -2.155  -4.756  0.00  0.00    -0.220 N 
ATOM      9  C   UNL     1       1.690  -1.405  -3.655  0.00  0.00    +0.179 C 
ATOM     10  C   UNL     1       1.106  -4.524  -1.429  0.00  0.00    +0.061 C 
ATOM     11  H   UNL     1       2.782  -5.093  -3.415  0.00  0.00    +0.155 HD
ENDROOT
BRANCH   9  12
ATOM     12  C   UNL     1       2.713  -0.452  -3.092  0.00  0.00    -0.018 A 
ATOM     13  C   UNL     1       3.899  -0.940  -2.574  0.00  0.00    +0.009 A 
ATOM     14  C   UNL     1       4.838  -0.068  -2.057  0.00  0.00    +0.046 A 
ATOM     15  C   UNL     1       4.590   1.297  -2.058  0.00  0.00    +0.121 A 
ATOM     16  C   UNL     1       3.400   1.783  -2.578  0.00  0.00    +0.046 A 
ATOM     17  C   UNL     1       2.466   0.908  -3.099  0.00  0.00    +0.009 A 
BRANCH  15  18
ATOM     18  O   UNL     1       5.513   2.156  -1.549  0.00  0.00    -0.487 OA
BRANCH  18  19
ATOM     19  C   UNL     1       5.191   3.548  -1.583  0.00  0.00    +0.264 C 
BRANCH  19  20
ATOM     20  C   UNL     1       6.323   4.340  -0.981  0.00  0.00    -0.010 A 
ATOM     21  C   UNL     1       6.335   4.606   0.375  0.00  0.00    +0.007 A 
ATOM     22  C   UNL     1       7.373   5.333   0.927  0.00  0.00    +0.004 A 
ATOM     23  C   UNL     1       8.400   5.793   0.123  0.00  0.00    -0.050 A 
ATOM     24  C   UNL     1       8.388   5.525  -1.233  0.00  0.00    +0.004 A 
ATOM     25  C   UNL     1       7.352   4.795  -1.784  0.00  0.00    +0.007 A 
ATOM     26  C   UNL     1       9.531   6.585   0.725  0.00  0.00    +0.044 C 
ENDBRANCH  19  20
ENDBRANCH  18  19
ENDBRANCH  15  18
ENDBRANCH   9  12
BRANCH   1  27
ATOM     27  C   UNL     1       0.417  -1.869  -1.544  0.00  0.00    +0.339 C 
ATOM     28  O   UNL     1      -0.779  -1.744  -1.731  0.00  0.00    -0.245 OA
BRANCH  27  29
ATOM     29  O   UNL     1       0.952  -1.540  -0.349  0.00  0.00    -0.462 OA
BRANCH  29  31
ATOM     30  C   UNL     1       0.837  -0.734   1.926  0.00  0.00    +0.048 C 
ATOM     31  C   UNL     1       0.054  -1.052   0.650  0.00  0.00    +0.229 C 
ENDBRANCH  29  31
ENDBRANCH  27  29
ENDBRANCH   1  27
BRANCH   6  32
ATOM     32  S   UNL     1       3.736  -2.791  -8.316  0.00  0.00    -0.080 S 
BRANCH  32  33
ATOM     33  C   UNL     1       4.289  -4.500  -8.567  0.00  0.00    +0.112 C 
BRANCH  33  34
ATOM     34  C   UNL     1       4.833  -4.651  -9.964  0.00  0.00    -0.037 A 
ATOM     35  C   UNL     1       3.991  -5.011 -10.999  0.00  0.00    +0.004 A 
ATOM     36  C   UNL     1       4.490  -5.150 -12.280  0.00  0.00    +0.000 A 
ATOM     37  C   UNL     1       5.832  -4.929 -12.527  0.00  0.00    +0.000 A 
ATOM     38  C   UNL     1       6.675  -4.568 -11.492  0.00  0.00    +0.000 A 
ATOM     39  C   UNL     1       6.175  -4.425 -10.211  0.00  0.00    +0.004 A 
ENDBRANCH  33  34
ENDBRANCH  32  33
ENDBRANCH   6  32
TORSDOF 10
