REMARK  Name = ZINC00703461
REMARK  10 active torsions:
REMARK  status: ('A' for Active; 'I' for Inactive)
REMARK    1  A    between atoms: C_1  and  C_2
REMARK    2  A    between atoms: C_2  and  C_3
REMARK    3  A    between atoms: C_9  and  C_10
REMARK    4  A    between atoms: C_9  and  N_60
REMARK    5  A    between atoms: C_11  and  O_34
REMARK    6  A    between atoms: C_17  and  C_30
REMARK    7  A    between atoms: C_18  and  O_21
REMARK    8  A    between atoms: O_21  and  C_22
REMARK    9  A    between atoms: C_25  and  O_28
REMARK   10  A    between atoms: O_28  and  C_29
REMARK                            x       y       z     vdW  Elec       q    Type
REMARK                         _______ _______ _______ _____ _____    ______ ____
ROOT
ATOM      1  C   UNL     1       1.418   2.049  -0.888  0.00  0.00    +0.020 A 
ATOM      2  C   UNL     1       0.619   1.796   0.214  0.00  0.00    +0.122 A 
ATOM      3  C   UNL     1       1.037   2.163   1.492  0.00  0.00    +0.046 A 
ATOM      4  C   UNL     1       2.248   2.768   1.675  0.00  0.00    +0.019 A 
ATOM      5  C   UNL     1       3.064   3.031   0.575  0.00  0.00    +0.068 A 
ATOM      6  C   UNL     1       2.648   2.669  -0.719  0.00  0.00    +0.144 A 
ATOM      7  O   UNL     1       3.446   2.927  -1.775  0.00  0.00    -0.447 OA
ATOM      8  C   UNL     1       4.638   3.524  -1.646  0.00  0.00    +0.254 A 
ATOM      9  C   UNL     1       5.133   3.912  -0.454  0.00  0.00    +0.222 A 
ATOM     10  C   UNL     1       4.373   3.688   0.729  0.00  0.00    +0.235 A 
ATOM     11  O   UNL     1       4.789   4.025   1.825  0.00  0.00    -0.283 OA
ENDROOT
BRANCH   8  12
ATOM     12  C   UNL     1       5.460   3.772  -2.884  0.00  0.00    +0.454 C 
ATOM     13  F   UNL     1       6.288   2.670  -3.123  0.00  0.00    -0.163 F 
ATOM     14  F   UNL     1       4.609   3.961  -3.979  0.00  0.00    -0.163 F 
ATOM     15  F   UNL     1       6.245   4.915  -2.702  0.00  0.00    -0.163 F 
ENDBRANCH   8  12
BRANCH   2  16
ATOM     16  O   UNL     1      -0.584   1.190   0.048  0.00  0.00    -0.506 OA
ATOM     17  H   UNL     1      -0.548   0.225   0.097  0.00  0.00    +0.292 HD
ENDBRANCH   2  16
BRANCH   1  18
ATOM     18  C   UNL     1       0.953   1.654  -2.266  0.00  0.00    -0.035 C 
BRANCH  18  24
ATOM     19  C   UNL     1      -0.446   2.345  -4.117  0.00  0.00    -0.068 C 
ATOM     20  C   UNL     1      -1.336   3.477  -4.636  0.00  0.00    -0.015 C 
ATOM     21  C   UNL     1      -0.481   4.725  -4.873  0.00  0.00    -0.003 C 
ATOM     22  C   UNL     1       0.218   5.111  -3.566  0.00  0.00    -0.019 C 
ATOM     23  C   UNL     1       1.063   3.932  -3.078  0.00  0.00    -0.078 C 
ATOM     24  N   UNL     1       0.179   2.771  -2.846  0.00  0.00    +0.384 N 
ATOM     25  H   UNL     1      -0.560   3.042  -2.186  0.00  0.00    -0.081 HD
BRANCH  19  27
ATOM     26  C   UNL     1      -1.931   0.637  -5.173  0.00  0.00    +0.002 C 
ATOM     27  C   UNL     1      -1.299   1.102  -3.860  0.00  0.00    -0.019 C 
ENDBRANCH  19  27
ENDBRANCH  18  24
ENDBRANCH   1  18
BRANCH   9  28
ATOM     28  O   UNL     1       6.352   4.514  -0.382  0.00  0.00    -0.448 OA
BRANCH  28  29
ATOM     29  C   UNL     1       7.445   3.724  -0.216  0.00  0.00    +0.129 A 
ATOM     30  C   UNL     1       7.298   2.348  -0.120  0.00  0.00    +0.050 A 
ATOM     31  C   UNL     1       8.410   1.544   0.044  0.00  0.00    +0.049 A 
ATOM     32  C   UNL     1       9.672   2.114   0.123  0.00  0.00    +0.120 A 
ATOM     33  C   UNL     1       9.819   3.490   0.032  0.00  0.00    +0.049 A 
ATOM     34  C   UNL     1       8.708   4.294  -0.137  0.00  0.00    +0.050 A 
BRANCH  32  35
ATOM     35  O   UNL     1      10.766   1.323   0.289  0.00  0.00    -0.495 OA
ATOM     36  C   UNL     1      10.541  -0.085   0.375  0.00  0.00    +0.277 C 
ENDBRANCH  32  35
ENDBRANCH  28  29
ENDBRANCH   9  28
TORSDOF 8
