REMARK  Name = ZINC20028736
REMARK  14 active torsions:
REMARK  status: ('A' for Active; 'I' for Inactive)
REMARK    1  A    between atoms: C_1  and  C_2
REMARK    2  A    between atoms: C_5  and  N_8
REMARK    3  A    between atoms: C_9  and  C_11
REMARK    4  A    between atoms: C_11  and  S_12
REMARK    5  A    between atoms: S_12  and  C_13
REMARK    6  A    between atoms: C_14  and  C_35
REMARK    7  A    between atoms: C_15  and  C_28
REMARK    8  A    between atoms: C_17  and  C_21
REMARK    9  A    between atoms: C_18  and  C_20
REMARK   10  A    between atoms: C_21  and  O_23
REMARK   11  A    between atoms: O_23  and  C_24
REMARK   12  A    between atoms: C_24  and  C_25
REMARK   13  A    between atoms: C_25  and  O_26
REMARK   14  A    between atoms: O_26  and  C_27
REMARK                            x       y       z     vdW  Elec       q    Type
REMARK                         _______ _______ _______ _____ _____    ______ ____
ROOT
ATOM      1  C   UNL     1       3.864  -6.549  -0.522  0.00  0.00    +0.080 C 
ATOM      2  C   UNL     1       4.924  -7.390  -0.653  0.00  0.00    +0.069 C 
ATOM      3  C   UNL     1       4.733  -8.877  -0.747  0.00  0.00    +0.102 C 
ATOM      4  C   UNL     1       3.306  -9.211  -1.078  0.00  0.00    +0.066 C 
ATOM      5  C   UNL     1       2.319  -8.310  -0.937  0.00  0.00    +0.016 C 
ATOM      6  N   UNL     1       2.579  -7.044  -0.491  0.00  0.00    -0.312 N 
ATOM      7  C   UNL     1       0.904  -8.701  -1.276  0.00  0.00    +0.061 C 
ATOM      8  H   UNL     1       1.758  -6.420  -0.108  0.00  0.00    +0.152 HD
ENDROOT
BRANCH   3   9
ATOM      9  C   UNL     1       5.098  -9.513   0.569  0.00  0.00    -0.016 A 
ATOM     10  C   UNL     1       4.403  -9.177   1.716  0.00  0.00    +0.006 A 
ATOM     11  C   UNL     1       4.734  -9.764   2.922  0.00  0.00    +0.000 A 
ATOM     12  C   UNL     1       5.769 -10.679   2.986  0.00  0.00    +0.001 A 
ATOM     13  C   UNL     1       6.468 -11.012   1.841  0.00  0.00    +0.020 A 
ATOM     14  C   UNL     1       6.133 -10.429   0.632  0.00  0.00    +0.045 A 
ATOM     15 CL   UNL     1       7.011 -10.846  -0.807  0.00  0.00    -0.083 Cl
ENDBRANCH   3   9
BRANCH   4  16
ATOM     16  C   UNL     1       2.994 -10.506  -1.550  0.00  0.00    +0.338 C 
ATOM     17  O   UNL     1       1.843 -10.793  -1.823  0.00  0.00    -0.245 OA
BRANCH  16  18
ATOM     18  O   UNL     1       3.972 -11.424  -1.698  0.00  0.00    -0.459 OA
BRANCH  18  19
ATOM     19  C   UNL     1       3.585 -12.712  -2.180  0.00  0.00    +0.260 C 
BRANCH  19  20
ATOM     20  C   UNL     1       4.819 -13.611  -2.282  0.00  0.00    +0.200 C 
BRANCH  20  21
ATOM     21  O   UNL     1       5.350 -13.840  -0.975  0.00  0.00    -0.380 OA
ATOM     22  C   UNL     1       6.512 -14.672  -0.958  0.00  0.00    +0.194 C 
ENDBRANCH  20  21
ENDBRANCH  19  20
ENDBRANCH  18  19
ENDBRANCH  16  18
ENDBRANCH   4  16
BRANCH   2  23
ATOM     23  C   UNL     1       6.249  -6.849  -0.697  0.00  0.00    +0.098 C 
ATOM     24  N   UNL     1       7.300  -6.419  -0.732  0.00  0.00    -0.191 NA
ENDBRANCH   2  23
BRANCH   1  25
ATOM     25  S   UNL     1       4.135  -4.812  -0.398  0.00  0.00    -0.100 S 
BRANCH  25  26
ATOM     26  C   UNL     1       2.425  -4.236  -0.258  0.00  0.00    +0.171 C 
BRANCH  26  28
ATOM     27  N   UNL     1       1.237  -2.079  -0.020  0.00  0.00    -0.285 N 
ATOM     28  C   UNL     1       2.410  -2.734  -0.137  0.00  0.00    +0.227 C 
ATOM     29  O   UNL     1       3.452  -2.114  -0.144  0.00  0.00    -0.275 OA
ATOM     30  H   UNL     1       0.298  -2.645   0.074  0.00  0.00    +0.155 HD
BRANCH  27  35
ATOM     31  C   UNL     1       1.143   3.593  -0.015  0.00  0.00    +0.044 C 
ATOM     32  C   UNL     1       1.168   2.086  -0.017  0.00  0.00    -0.050 A 
ATOM     33  C   UNL     1       2.111   1.412  -0.771  0.00  0.00    +0.005 A 
ATOM     34  C   UNL     1       2.137   0.031  -0.774  0.00  0.00    +0.023 A 
ATOM     35  C   UNL     1       1.214  -0.680  -0.019  0.00  0.00    +0.033 A 
ATOM     36  C   UNL     1       0.269  -0.001   0.738  0.00  0.00    +0.023 A 
ATOM     37  C   UNL     1       0.248   1.380   0.737  0.00  0.00    +0.005 A 
ENDBRANCH  27  35
ENDBRANCH  26  28
ENDBRANCH  25  26
ENDBRANCH   1  25
TORSDOF 11
