REMARK  Name = ZINC15733310
REMARK  5 active torsions:
REMARK  status: ('A' for Active; 'I' for Inactive)
REMARK    1  A    between atoms: C_3  and  C_8
REMARK    2  A    between atoms: C_8  and  N_54
REMARK    3  A    between atoms: C_11  and  C_14
REMARK    4  A    between atoms: C_14  and  N_15
REMARK    5  A    between atoms: C_16  and  C_18
REMARK                            x       y       z     vdW  Elec       q    Type
REMARK                         _______ _______ _______ _____ _____    ______ ____
ROOT
ATOM      1  C   UNL     1      -4.803   0.622   5.244  0.00  0.00    +0.108 C 
ENDROOT
BRANCH   1   4
ATOM      2  C   UNL     1      -2.804   1.930   2.225  0.00  0.00    -0.078 C 
ATOM      3  C   UNL     1      -3.103   1.590   3.687  0.00  0.00    -0.014 C 
ATOM      4  C   UNL     1      -4.520   1.021   3.794  0.00  0.00    +0.003 C 
ATOM      5  C   UNL     1      -4.637  -0.211   2.892  0.00  0.00    -0.014 C 
ATOM      6  C   UNL     1      -4.293   0.181   1.454  0.00  0.00    -0.078 C 
ATOM      7  N   UNL     1      -2.909   0.699   1.415  0.00  0.00    +0.382 N 
ATOM      8  H   UNL     1      -2.277  -0.011   1.804  0.00  0.00    -0.081 HD
BRANCH   7   9
ATOM      9  C   UNL     1      -2.513   0.978   0.019  0.00  0.00    -0.043 C 
BRANCH   9  12
ATOM     10  C   UNL     1       1.176   1.783   0.000  0.00  0.00    +0.003 A 
ATOM     11  C   UNL     1      -0.013   1.076   0.008  0.00  0.00    +0.002 A 
ATOM     12  C   UNL     1      -1.219   1.750   0.017  0.00  0.00    -0.061 A 
ATOM     13  C   UNL     1      -1.239   3.132   0.031  0.00  0.00    +0.040 A 
ATOM     14  C   UNL     1      -0.050   3.841   0.023  0.00  0.00    +0.124 A 
ATOM     15  C   UNL     1       1.158   3.164   0.008  0.00  0.00    +0.038 A 
ATOM     16  F   UNL     1      -0.068   5.192   0.030  0.00  0.00    -0.205 F 
ENDBRANCH   9  12
ENDBRANCH   7   9
ENDBRANCH   1   4
BRANCH   1  17
ATOM     17  N   UNL     1      -4.810   1.819   6.088  0.00  0.00    -0.310 N 
ATOM     18  C   UNL     1      -5.040   1.710   7.411  0.00  0.00    +0.266 C 
ATOM     19  O   UNL     1      -5.242   0.618   7.904  0.00  0.00    -0.268 OA
ATOM     20  H   UNL     1      -4.648   2.691   5.694  0.00  0.00    +0.149 HD
BRANCH  18  21
ATOM     21  C   UNL     1      -5.046   2.922   8.265  0.00  0.00    +0.171 A 
ATOM     22  C   UNL     1      -5.268   2.978   9.649  0.00  0.00    +0.032 A 
ATOM     23  C   UNL     1      -5.144   4.317   9.946  0.00  0.00    +0.172 A 
ATOM     24  O   UNL     1      -4.908   4.949   8.809  0.00  0.00    -0.354 OA
ATOM     25  N   UNL     1      -4.839   4.166   7.879  0.00  0.00    -0.073 NA
ATOM     26  C   UNL     1      -5.255   4.758  11.360  0.00  0.00    +0.030 A 
ATOM     27  C   UNL     1      -5.383   6.063  11.837  0.00  0.00    +0.019 A 
ATOM     28  C   UNL     1      -5.495   6.250  13.171  0.00  0.00    +0.046 A 
ATOM     29  S   UNL     1      -5.417   4.582  13.801  0.00  0.00    -0.101 S 
ATOM     30  C   UNL     1      -5.236   3.750  12.309  0.00  0.00    +0.001 A 
ATOM     31  C   UNL     1      -5.064   2.292  12.038  0.00  0.00    +0.048 C 
ATOM     32  C   UNL     1      -5.599   1.916  10.652  0.00  0.00    +0.046 C 
ENDBRANCH  18  21
ENDBRANCH   1  17
TORSDOF 5
