REMARK  Name = ZINC15959316
REMARK  4 active torsions:
REMARK  status: ('A' for Active; 'I' for Inactive)
REMARK    1  A    between atoms: C_4  and  C_7
REMARK    2  A    between atoms: N_25  and  C_28
REMARK    3  A    between atoms: C_33  and  C_34
REMARK    4  A    between atoms: N_36  and  C_37
REMARK                            x       y       z     vdW  Elec       q    Type
REMARK                         _______ _______ _______ _____ _____    ______ ____
ROOT
ATOM      1  C   UNL     1      -0.070   5.347   0.030  0.00  0.00    +0.155 C 
ATOM      2  C   UNL     1      -0.292   5.872  -1.375  0.00  0.00    +0.046 A 
ATOM      3  C   UNL     1      -1.418   6.504  -1.768  0.00  0.00    -0.015 A 
ATOM      4  C   UNL     1      -1.243   6.838  -3.169  0.00  0.00    +0.003 A 
ATOM      5  C   UNL     1      -2.065   7.485  -4.096  0.00  0.00    +0.010 A 
ATOM      6  C   UNL     1      -1.567   7.636  -5.367  0.00  0.00    +0.001 A 
ATOM      7  C   UNL     1      -0.312   7.171  -5.726  0.00  0.00    +0.002 A 
ATOM      8  C   UNL     1       0.522   6.527  -4.828  0.00  0.00    +0.026 A 
ATOM      9  C   UNL     1       0.043   6.361  -3.530  0.00  0.00    +0.047 A 
ATOM     10  N   UNL     1       0.588   5.784  -2.420  0.00  0.00    -0.356 N 
ATOM     11  H   UNL     1       1.467   5.375  -2.377  0.00  0.00    +0.166 HD
ATOM     12  C   UNL     1      -2.615   6.799  -0.898  0.00  0.00    +0.069 C 
ATOM     13  C   UNL     1      -2.590   5.882   0.330  0.00  0.00    +0.170 C 
ATOM     14  N   UNL     1      -1.200   5.832   0.834  0.00  0.00    -0.260 N 
ATOM     15  C   UNL     1      -1.213   6.304   2.082  0.00  0.00    +0.317 C 
ATOM     16  O   UNL     1      -0.235   6.344   2.802  0.00  0.00    -0.252 OA
ATOM     17  N   UNL     1      -2.430   6.729   2.448  0.00  0.00    -0.192 N 
ATOM     18  C   UNL     1      -3.340   6.539   1.471  0.00  0.00    +0.248 C 
ATOM     19  O   UNL     1      -4.516   6.833   1.499  0.00  0.00    -0.273 OA
ENDROOT
BRANCH   1  23
ATOM     20  C   UNL     1      -0.013   1.076   0.008  0.00  0.00    +0.000 A 
ATOM     21  C   UNL     1       1.130   1.781   0.336  0.00  0.00    +0.000 A 
ATOM     22  C   UNL     1       1.113   3.163   0.339  0.00  0.00    +0.006 A 
ATOM     23  C   UNL     1      -0.050   3.840   0.022  0.00  0.00    -0.021 A 
ATOM     24  C   UNL     1      -1.194   3.135  -0.301  0.00  0.00    +0.006 A 
ATOM     25  C   UNL     1      -1.176   1.753  -0.308  0.00  0.00    +0.000 A 
ENDBRANCH   1  23
BRANCH  17  26
ATOM     26  C   UNL     1      -2.721   7.299   3.690  0.00  0.00    +0.058 A 
ATOM     27  C   UNL     1      -2.614   8.670   3.870  0.00  0.00    +0.025 A 
ATOM     28  C   UNL     1      -2.906   9.232   5.096  0.00  0.00    +0.002 A 
ATOM     29  C   UNL     1      -3.297   8.433   6.158  0.00  0.00    +0.001 A 
ATOM     30  C   UNL     1      -3.404   7.068   5.999  0.00  0.00    +0.015 A 
ATOM     31  C   UNL     1      -3.117   6.486   4.762  0.00  0.00    +0.059 A 
BRANCH  31  32
ATOM     32  C   UNL     1      -3.228   5.026   4.585  0.00  0.00    +0.246 C 
ATOM     33  O   UNL     1      -2.977   4.523   3.507  0.00  0.00    -0.270 OA
ATOM     34  N   UNL     1      -3.609   4.249   5.618  0.00  0.00    -0.308 N 
ATOM     35  H   UNL     1      -3.809   4.650   6.478  0.00  0.00    +0.149 HD
BRANCH  34  36
ATOM     36  C   UNL     1      -3.720   2.799   5.442  0.00  0.00    +0.073 C 
ATOM     37  C   UNL     1      -5.123   2.436   4.914  0.00  0.00    +0.022 C 
ATOM     38  C   UNL     1      -5.467   1.107   5.633  0.00  0.00    +0.002 C 
ATOM     39  C   UNL     1      -4.877   1.321   7.049  0.00  0.00    +0.002 C 
ATOM     40  C   UNL     1      -3.563   2.090   6.799  0.00  0.00    +0.022 C 
ENDBRANCH  34  36
ENDBRANCH  31  32
ENDBRANCH  17  26
TORSDOF 4
