REMARK  Name = ZINC45254554
REMARK  9 active torsions:
REMARK  status: ('A' for Active; 'I' for Inactive)
REMARK    1  A    between atoms: C_1  and  C_2
REMARK    2  A    between atoms: C_2  and  C_3
REMARK    3  A    between atoms: C_3  and  C_4
REMARK    4  A    between atoms: C_6  and  N_17
REMARK    5  A    between atoms: C_10  and  N_16
REMARK    6  A    between atoms: C_11  and  C_13
REMARK    7  A    between atoms: C_20  and  C_23
REMARK    8  A    between atoms: C_23  and  O_25
REMARK    9  A    between atoms: O_25  and  C_26
REMARK                            x       y       z     vdW  Elec       q    Type
REMARK                         _______ _______ _______ _____ _____    ______ ____
ROOT
ATOM      1  C   UNL     1       0.729  -1.804  -1.247  0.00  0.00    -0.033 A 
ATOM      2  C   UNL     1       1.881  -2.388  -0.815  0.00  0.00    +0.046 A 
ATOM      3  C   UNL     1       1.991  -3.779  -0.756  0.00  0.00    +0.100 A 
ATOM      4  N   UNL     1       0.973  -4.545  -1.121  0.00  0.00    -0.337 N 
ATOM      5  C   UNL     1      -0.158  -4.021  -1.545  0.00  0.00    +0.089 A 
ATOM      6  C   UNL     1      -0.362  -2.626  -1.631  0.00  0.00    +0.030 A 
ATOM      7  C   UNL     1      -1.674  -2.222  -2.113  0.00  0.00    +0.054 A 
ATOM      8  C   UNL     1      -2.585  -3.207  -2.430  0.00  0.00    +0.097 A 
ATOM      9  S   UNL     1      -1.694  -4.715  -2.102  0.00  0.00    -0.064 S 
ATOM     10  H   UNL     1       1.063  -5.510  -1.076  0.00  0.00    +0.168 HD
ENDROOT
BRANCH   3  11
ATOM     11  N   UNL     1       3.170  -4.361  -0.315  0.00  0.00    -0.317 N 
ATOM     12  C   UNL     1       4.254  -3.533   0.232  0.00  0.00    +0.107 C 
ATOM     13  C   UNL     1       4.637  -4.073   1.614  0.00  0.00    +0.033 C 
ATOM     14  C   UNL     1       4.978  -5.561   1.499  0.00  0.00    +0.101 C 
ATOM     15  C   UNL     1       3.752  -6.330   1.002  0.00  0.00    +0.033 C 
ATOM     16  C   UNL     1       3.357  -5.816  -0.381  0.00  0.00    +0.107 C 
BRANCH  14  17
ATOM     17  C   UNL     1       5.388  -6.088   2.850  0.00  0.00    +0.310 C 
ATOM     18  O   UNL     1       5.406  -5.349   3.806  0.00  0.00    -0.251 OA
BRANCH  17  19
ATOM     19  O   UNL     1       5.734  -7.377   2.991  0.00  0.00    -0.468 OA
ATOM     20  C   UNL     1       6.112  -7.808   4.300  0.00  0.00    +0.280 C 
ENDBRANCH  17  19
ENDBRANCH  14  17
ENDBRANCH   3  11
BRANCH   8  21
ATOM     21  C   UNL     1      -3.908  -3.055  -2.912  0.00  0.00    +0.250 C 
ATOM     22  O   UNL     1      -4.366  -1.942  -3.094  0.00  0.00    -0.270 OA
ATOM     23  N   UNL     1      -4.659  -4.144  -3.170  0.00  0.00    -0.325 N 
ATOM     24  H   UNL     1      -4.294  -5.031  -3.026  0.00  0.00    +0.145 HD
ATOM     25  H   UNL     1      -5.565  -4.041  -3.501  0.00  0.00    +0.145 HD
ENDBRANCH   8  21
BRANCH   7  26
ATOM     26  N   UNL     1      -2.000  -0.880  -2.249  0.00  0.00    -0.356 N 
ATOM     27  H   UNL     1      -1.324  -0.200  -2.104  0.00  0.00    +0.142 HD
ATOM     28  H   UNL     1      -2.903  -0.623  -2.490  0.00  0.00    +0.142 HD
ENDBRANCH   7  26
BRANCH   1  29
ATOM     29  C   UNL     1       0.613  -0.303  -1.310  0.00  0.00    +0.036 C 
BRANCH  29  31
ATOM     30  C   UNL     1       1.762   1.855  -0.796  0.00  0.00    +0.004 C 
ATOM     31  C   UNL     1       1.880   0.331  -0.732  0.00  0.00    +0.001 C 
ENDBRANCH  29  31
ENDBRANCH   1  29
TORSDOF 7
