REMARK  Name = ZINC13494298
REMARK  8 active torsions:
REMARK  status: ('A' for Active; 'I' for Inactive)
REMARK    1  A    between atoms: C_4  and  C_7
REMARK    2  A    between atoms: C_7  and  C_8
REMARK    3  A    between atoms: C_8  and  N_9
REMARK    4  A    between atoms: C_10  and  C_14
REMARK    5  A    between atoms: C_14  and  N_63
REMARK    6  A    between atoms: C_15  and  C_16
REMARK    7  A    between atoms: C_15  and  N_63
REMARK    8  A    between atoms: C_31  and  N_63
REMARK                            x       y       z     vdW  Elec       q    Type
REMARK                         _______ _______ _______ _____ _____    ______ ____
ROOT
ATOM      1  N   UNL     1      -0.892   1.384  -1.070  0.00  0.00    +0.389 N 
ATOM      2  H   UNL     1      -1.786   1.041  -0.697  0.00  0.00    -0.080 HD
ENDROOT
BRANCH   1   3
ATOM      3  C   UNL     1      -0.930   2.861  -1.124  0.00  0.00    -0.068 C 
ATOM      4  C   UNL     1      -2.267   3.314  -1.748  0.00  0.00    -0.015 C 
ATOM      5  C   UNL     1      -1.891   4.562  -2.585  0.00  0.00    -0.002 C 
ATOM      6  C   UNL     1      -0.511   4.176  -3.173  0.00  0.00    -0.002 C 
ATOM      7  C   UNL     1       0.186   3.409  -2.030  0.00  0.00    -0.015 C 
ENDBRANCH   1   3
BRANCH   1   8
ATOM      8  C   UNL     1      -0.695   0.834  -2.427  0.00  0.00    +0.001 C 
BRANCH   8  10
ATOM      9  N   UNL     1      -3.036   0.074  -3.096  0.00  0.00    -0.231 N 
ATOM     10  C   UNL     1      -1.997   0.926  -3.180  0.00  0.00    +0.135 A 
ATOM     11  N   UNL     1      -2.336   1.848  -4.048  0.00  0.00    -0.115 NA
ATOM     12  N   UNL     1      -3.522   1.580  -4.471  0.00  0.00    -0.023 NA
ATOM     13  N   UNL     1      -3.950   0.510  -3.896  0.00  0.00    -0.044 NA
BRANCH   9  14
ATOM     14  C   UNL     1      -3.115  -1.121  -2.253  0.00  0.00    +0.152 C 
BRANCH  14  15
ATOM     15  C   UNL     1      -3.705  -0.747  -0.892  0.00  0.00    +0.058 C 
BRANCH  15  19
ATOM     16  C   UNL     1      -3.937  -4.233   1.566  0.00  0.00    +0.000 A 
ATOM     17  C   UNL     1      -2.799  -3.448   1.585  0.00  0.00    +0.000 A 
ATOM     18  C   UNL     1      -2.724  -2.321   0.789  0.00  0.00    +0.004 A 
ATOM     19  C   UNL     1      -3.787  -1.977  -0.025  0.00  0.00    -0.046 A 
ATOM     20  C   UNL     1      -4.927  -2.758  -0.039  0.00  0.00    +0.004 A 
ATOM     21  C   UNL     1      -5.000  -3.889   0.753  0.00  0.00    +0.000 A 
ENDBRANCH  15  19
ENDBRANCH  14  15
ENDBRANCH   9  14
ENDBRANCH   8  10
ENDBRANCH   1   8
BRANCH   1  22
ATOM     22  C   UNL     1       0.201   0.939  -0.180  0.00  0.00    -0.037 C 
BRANCH  22  23
ATOM     23  C   UNL     1      -0.113   1.369   1.230  0.00  0.00    +0.001 A 
ATOM     24  C   UNL     1      -0.787   0.530   2.058  0.00  0.00    +0.017 A 
ATOM     25  C   UNL     1      -1.072   0.973   3.422  0.00  0.00    +0.002 A 
ATOM     26  C   UNL     1      -1.759   0.148   4.321  0.00  0.00    +0.059 A 
ATOM     27  C   UNL     1      -2.016   0.594   5.598  0.00  0.00    +0.167 A 
ATOM     28  C   UNL     1      -1.592   1.867   5.999  0.00  0.00    +0.168 A 
ATOM     29  C   UNL     1      -0.914   2.689   5.118  0.00  0.00    +0.075 A 
ATOM     30  C   UNL     1      -0.648   2.254   3.826  0.00  0.00    +0.053 A 
ATOM     31  N   UNL     1       0.027   3.061   2.933  0.00  0.00    -0.322 N 
ATOM     32  H   UNL     1       0.318   3.943   3.211  0.00  0.00    +0.169 HD
ATOM     33  C   UNL     1       0.288   2.642   1.682  0.00  0.00    +0.251 A 
ATOM     34  O   UNL     1       0.886   3.382   0.920  0.00  0.00    -0.268 OA
ATOM     35  O   UNL     1      -1.968   2.059   7.297  0.00  0.00    -0.453 OA
ATOM     36  C   UNL     1      -2.258   0.747   7.813  0.00  0.00    +0.466 C 
ATOM     37  O   UNL     1      -2.654  -0.002   6.649  0.00  0.00    -0.453 OA
ENDBRANCH  22  23
ENDBRANCH   1  22
TORSDOF 8
