REMARK  Name = ZINC42632192
REMARK  5 active torsions:
REMARK  status: ('A' for Active; 'I' for Inactive)
REMARK    1  A    between atoms: C_1  and  C_2
REMARK    2  A    between atoms: C_2  and  C_3
REMARK    3  A    between atoms: C_3  and  C_4
REMARK    4  A    between atoms: C_6  and  C_9
REMARK    5  A    between atoms: C_9  and  N_10
REMARK                            x       y       z     vdW  Elec       q    Type
REMARK                         _______ _______ _______ _____ _____    ______ ____
ROOT
ATOM      1  N   UNL     1       1.826  -5.596   0.904  0.00  0.00    +0.388 N 
ATOM      2  C   UNL     1       2.118  -4.506   1.842  0.00  0.00    -0.078 C 
ATOM      3  C   UNL     1       1.614  -4.880   3.238  0.00  0.00    -0.018 C 
ATOM      4  C   UNL     1       2.317  -6.159   3.703  0.00  0.00    +0.000 C 
ATOM      5  C   UNL     1       2.065  -7.268   2.678  0.00  0.00    -0.025 C 
ATOM      6  C   UNL     1       2.554  -6.806   1.304  0.00  0.00    -0.065 C 
ATOM      7  C   UNL     1       4.052  -6.503   1.370  0.00  0.00    -0.015 C 
ATOM      8  C   UNL     1       4.811  -7.766   1.784  0.00  0.00    -0.002 C 
ATOM      9  C   UNL     1       4.323  -8.224   3.160  0.00  0.00    +0.000 C 
ATOM     10  C   UNL     1       2.824  -8.529   3.095  0.00  0.00    +0.002 C 
ATOM     11  H   UNL     1       0.835  -5.784   0.908  0.00  0.00    -0.081 HD
ENDROOT
BRANCH   1  12
ATOM     12  C   UNL     1       2.242  -5.200  -0.449  0.00  0.00    +0.022 C 
BRANCH  12  15
ATOM     13  C   UNL     1       0.739  -2.004  -1.265  0.00  0.00    +0.172 A 
ATOM     14  N   UNL     1       1.694  -2.772  -0.730  0.00  0.00    -0.198 NA
ATOM     15  C   UNL     1       1.409  -4.032  -0.909  0.00  0.00    +0.211 A 
ATOM     16  O   UNL     1       0.249  -4.109  -1.573  0.00  0.00    -0.340 OA
ATOM     17  N   UNL     1      -0.174  -2.771  -1.790  0.00  0.00    -0.061 NA
BRANCH  13  18
ATOM     18  C   UNL     1       0.718  -0.497  -1.257  0.00  0.00    +0.079 C 
BRANCH  18  20
ATOM     19  C   UNL     1      -0.019   1.526   0.010  0.00  0.00    +0.004 C 
ATOM     20  C   UNL     1       0.002  -0.004   0.002  0.00  0.00    +0.004 C 
ENDBRANCH  18  20
ENDBRANCH  13  18
ENDBRANCH  12  15
ENDBRANCH   1  12
TORSDOF 4
