REMARK  Name = ZINC04057188
REMARK  9 active torsions:
REMARK  status: ('A' for Active; 'I' for Inactive)
REMARK    1  A    between atoms: N_9  and  C_12
REMARK    2  A    between atoms: C_12  and  C_13
REMARK    3  A    between atoms: N_15  and  C_16
REMARK    4  A    between atoms: C_16  and  C_17
REMARK    5  A    between atoms: N_19  and  C_20
REMARK    6  A    between atoms: C_20  and  C_21
REMARK    7  A    between atoms: C_21  and  C_22
REMARK    8  A    between atoms: C_22  and  N_23
REMARK    9  A    between atoms: N_26  and  C_29
REMARK                            x       y       z     vdW  Elec       q    Type
REMARK                         _______ _______ _______ _____ _____    ______ ____
ROOT
ATOM      1  C   UNL     1       8.278  -4.633  -3.115  0.00  0.00    +0.230 C 
ATOM      2  O   UNL     1       8.815  -4.952  -2.075  0.00  0.00    -0.274 OA
ATOM      3  N   UNL     1       8.848  -4.952  -4.293  0.00  0.00    -0.314 N 
ATOM      4  H   UNL     1       8.419  -4.697  -5.125  0.00  0.00    +0.149 HD
ENDROOT
BRANCH   1   5
ATOM      5  C   UNL     1       6.973  -3.879  -3.089  0.00  0.00    +0.200 C 
BRANCH   5   8
ATOM      6  C   UNL     1       5.422  -2.997  -1.430  0.00  0.00    +0.233 C 
ATOM      7  O   UNL     1       4.729  -2.589  -2.338  0.00  0.00    -0.274 OA
ATOM      8  N   UNL     1       6.566  -3.656  -1.699  0.00  0.00    -0.305 N 
ATOM      9  H   UNL     1       7.120  -3.982  -0.973  0.00  0.00    +0.149 HD
BRANCH   6  10
ATOM     10  C   UNL     1       5.003  -2.767  -0.001  0.00  0.00    +0.220 C 
BRANCH  10  19
ATOM     11  C   UNL     1       0.059   1.365   0.119  0.00  0.00    +0.001 A 
ATOM     12  C   UNL     1       1.246   2.087   0.116  0.00  0.00    +0.001 A 
ATOM     13  C   UNL     1       2.455   1.449   0.092  0.00  0.00    +0.014 A 
ATOM     14  C   UNL     1       2.496   0.055   0.071  0.00  0.00    +0.047 A 
ATOM     15  C   UNL     1       1.288  -0.680   0.074  0.00  0.00    -0.011 A 
ATOM     16  C   UNL     1       0.069  -0.002   0.098  0.00  0.00    +0.009 A 
ATOM     17  C   UNL     1       1.363  -2.142   0.051  0.00  0.00    +0.026 A 
ATOM     18  C   UNL     1       2.566  -2.740   0.027  0.00  0.00    +0.090 A 
ATOM     19  N   UNL     1       3.734  -2.034   0.025  0.00  0.00    -0.306 N 
ATOM     20  C   UNL     1       3.761  -0.687   0.044  0.00  0.00    +0.259 A 
ATOM     21  O   UNL     1       4.824  -0.092   0.041  0.00  0.00    -0.267 OA
ENDBRANCH  10  19
ENDBRANCH   6  10
ENDBRANCH   5   8
ENDBRANCH   1   5
BRANCH   3  22
ATOM     22  C   UNL     1      10.117  -5.685  -4.319  0.00  0.00    +0.102 C 
BRANCH  22  23
ATOM     23  C   UNL     1      10.542  -5.919  -5.770  0.00  0.00    +0.000 C 
BRANCH  23  24
ATOM     24  C   UNL     1      11.867  -6.684  -5.796  0.00  0.00    -0.077 C 
BRANCH  24  25
ATOM     25  N   UNL     1      12.275  -6.908  -7.189  0.00  0.00    +0.382 N 
ATOM     26  C   UNL     1      12.548  -5.616  -7.831  0.00  0.00    -0.060 C 
ATOM     27  C   UNL     1      12.862  -5.840  -9.314  0.00  0.00    +0.086 C 
ATOM     28  N   UNL     1      13.961  -6.813  -9.416  0.00  0.00    -0.333 N 
ATOM     29  C   UNL     1      13.842  -8.074  -8.668  0.00  0.00    +0.086 C 
ATOM     30  C   UNL     1      13.481  -7.744  -7.215  0.00  0.00    -0.060 C 
ATOM     31  H   UNL     1      11.531  -7.377  -7.685  0.00  0.00    -0.082 HD
BRANCH  28  32
ATOM     32  C   UNL     1      15.085  -6.547 -10.201  0.00  0.00    +0.031 A 
ATOM     33  C   UNL     1      16.161  -7.426 -10.197  0.00  0.00    +0.023 A 
ATOM     34  C   UNL     1      17.271  -7.161 -10.974  0.00  0.00    +0.003 A 
ATOM     35  C   UNL     1      17.314  -6.021 -11.756  0.00  0.00    +0.020 A 
ATOM     36  C   UNL     1      16.244  -5.143 -11.763  0.00  0.00    +0.043 A 
ATOM     37  C   UNL     1      15.128  -5.406 -10.992  0.00  0.00    +0.043 A 
ATOM     38 CL   UNL     1      16.302  -3.714 -12.746  0.00  0.00    -0.083 Cl
ENDBRANCH  28  32
ENDBRANCH  24  25
ENDBRANCH  23  24
ENDBRANCH  22  23
ENDBRANCH   3  22
TORSDOF 9
