REMARK  Name = ZINC40724439
REMARK  4 active torsions:
REMARK  status: ('A' for Active; 'I' for Inactive)
REMARK    1  A    between atoms: C_6  and  C_7
REMARK    2  A    between atoms: N_9  and  N_10
REMARK    3  A    between atoms: C_12  and  N_22
REMARK    4  A    between atoms: C_13  and  N_17
REMARK                            x       y       z     vdW  Elec       q    Type
REMARK                         _______ _______ _______ _____ _____    ______ ____
ROOT
ATOM      1  N   UNL     1      -2.790  -3.142  -1.217  0.00  0.00    -0.247 N 
ATOM      2  C   UNL     1      -2.594  -4.374  -0.605  0.00  0.00    +0.161 A 
ATOM      3  C   UNL     1      -3.661  -5.043  -0.002  0.00  0.00    +0.107 A 
ATOM      4  C   UNL     1      -3.410  -6.278   0.598  0.00  0.00    +0.147 A 
ATOM      5  N   UNL     1      -2.172  -6.767   0.573  0.00  0.00    -0.219 NA
ATOM      6  C   UNL     1      -1.193  -6.103  -0.007  0.00  0.00    +0.225 A 
ATOM      7  N   UNL     1      -1.389  -4.937  -0.589  0.00  0.00    -0.217 NA
ATOM      8  H   UNL     1      -3.672  -2.738  -1.224  0.00  0.00    +0.172 HD
ENDROOT
BRANCH   4   9
ATOM      9  N   UNL     1      -4.436  -6.986   1.212  0.00  0.00    -0.314 N 
ATOM     10  C   UNL     1      -5.859  -6.616   1.199  0.00  0.00    +0.106 C 
ATOM     11  C   UNL     1      -6.615  -7.676   2.028  0.00  0.00    +0.020 C 
ATOM     12  C   UNL     1      -5.503  -8.269   2.932  0.00  0.00    +0.020 C 
ATOM     13  C   UNL     1      -4.279  -8.235   1.979  0.00  0.00    +0.106 C 
ENDBRANCH   4   9
BRANCH   1  16
ATOM     14  C   UNL     1      -1.902  -1.287  -2.417  0.00  0.00    +0.260 C 
ATOM     15  O   UNL     1      -3.007  -0.781  -2.426  0.00  0.00    -0.269 OA
ATOM     16  N   UNL     1      -1.713  -2.482  -1.823  0.00  0.00    -0.231 N 
ATOM     17  H   UNL     1      -0.831  -2.886  -1.816  0.00  0.00    +0.173 HD
BRANCH  14  23
ATOM     18  C   UNL     1      -0.959   0.646  -3.672  0.00  0.00    +0.014 A 
ATOM     19  C   UNL     1       0.105   1.291  -4.268  0.00  0.00    +0.016 A 
ATOM     20  C   UNL     1       1.363   0.713  -4.255  0.00  0.00    +0.018 A 
ATOM     21  C   UNL     1       1.561  -0.515  -3.646  0.00  0.00    +0.016 A 
ATOM     22  C   UNL     1       0.505  -1.170  -3.048  0.00  0.00    +0.014 A 
ATOM     23  C   UNL     1      -0.766  -0.592  -3.057  0.00  0.00    +0.038 A 
ATOM     24 BR   UNL     1       2.817   1.603  -5.074  0.00  0.00    -0.050 Br
ENDBRANCH  14  23
ENDBRANCH   1  16
BRANCH   3  25
ATOM     25  N   UNL     1      -4.952  -4.489   0.001  0.00  0.00    -0.353 N 
ATOM     26  H   UNL     1      -5.067  -3.530   0.085  0.00  0.00    +0.143 HD
ATOM     27  H   UNL     1      -5.727  -5.065  -0.082  0.00  0.00    +0.143 HD
ENDBRANCH   3  25
TORSDOF 4
