REMARK  Name = ZINC11294130
REMARK  11 active torsions:
REMARK  status: ('A' for Active; 'I' for Inactive)
REMARK    1  A    between atoms: C_1  and  C_2
REMARK    2  A    between atoms: C_2  and  C_3
REMARK    3  A    between atoms: C_3  and  N_55
REMARK    4  A    between atoms: C_4  and  C_5
REMARK    5  A    between atoms: C_4  and  N_55
REMARK    6  A    between atoms: N_7  and  C_8
REMARK    7  A    between atoms: C_16  and  C_17
REMARK    8  A    between atoms: C_16  and  N_55
REMARK    9  A    between atoms: N_19  and  C_20
REMARK   10  A    between atoms: C_23  and  C_29
REMARK   11  A    between atoms: C_30  and  C_32
REMARK                            x       y       z     vdW  Elec       q    Type
REMARK                         _______ _______ _______ _____ _____    ______ ____
ROOT
ATOM      1  C   UNL     1       3.006   1.158   0.143  0.00  0.00    +0.020 C 
ENDROOT
BRANCH   1   2
ATOM      2  C   UNL     1       3.546  -0.248   0.197  0.00  0.00    +0.203 C 
ATOM      3  O   UNL     1       2.807  -1.171   0.465  0.00  0.00    -0.277 OA
ATOM      4  N   UNL     1       4.850  -0.479  -0.053  0.00  0.00    -0.257 N 
ATOM      5  H   UNL     1       5.441   0.260  -0.268  0.00  0.00    +0.158 HD
BRANCH   4   6
ATOM      6  C   UNL     1       5.346  -1.770  -0.004  0.00  0.00    +0.206 A 
ATOM      7  C   UNL     1       6.648  -2.143  -0.236  0.00  0.00    +0.110 A 
ATOM      8  C   UNL     1       6.677  -3.616  -0.064  0.00  0.00    +0.053 A 
ATOM      9  C   UNL     1       7.960  -4.299  -0.256  0.00  0.00    +0.070 A 
ATOM     10  N   UNL     1       9.015  -3.611  -0.564  0.00  0.00    -0.175 NA
ATOM     11  N   UNL     1       9.012  -2.228  -0.731  0.00  0.00    -0.242 N 
ATOM     12  H   UNL     1       9.844  -1.786  -0.962  0.00  0.00    +0.192 HD
ATOM     13  C   UNL     1       7.900  -1.478  -0.584  0.00  0.00    +0.277 A 
ATOM     14  O   UNL     1       7.940  -0.271  -0.738  0.00  0.00    -0.266 OA
ATOM     15  C   UNL     1       8.052  -5.795  -0.095  0.00  0.00    +0.068 C 
ATOM     16  C   UNL     1       5.414  -3.974   0.248  0.00  0.00    +0.114 A 
ATOM     17  O   UNL     1       4.640  -2.874   0.286  0.00  0.00    -0.445 OA
ATOM     18  C   UNL     1       4.946  -5.381   0.518  0.00  0.00    +0.087 C 
ENDBRANCH   4   6
ENDBRANCH   1   2
BRANCH   1  19
ATOM     19  N   UNL     1       1.557   1.124   0.433  0.00  0.00    +0.391 N 
ATOM     20  H   UNL     1       1.110   0.433  -0.181  0.00  0.00    -0.080 HD
BRANCH  19  21
ATOM     21  C   UNL     1       1.333   0.731   1.841  0.00  0.00    -0.078 C 
BRANCH  21  23
ATOM     22  C   UNL     1      -0.326  -0.287   3.407  0.00  0.00    +0.002 C 
ATOM     23  C   UNL     1      -0.115   0.262   1.995  0.00  0.00    -0.022 C 
ENDBRANCH  21  23
ENDBRANCH  19  21
BRANCH  19  24
ATOM     24  C   UNL     1       0.959   2.451   0.178  0.00  0.00    +0.020 C 
BRANCH  24  25
ATOM     25  C   UNL     1       0.748   2.607  -1.306  0.00  0.00    +0.201 C 
ATOM     26  O   UNL     1       0.976   1.679  -2.052  0.00  0.00    -0.278 OA
ATOM     27  N   UNL     1       0.311   3.781  -1.804  0.00  0.00    -0.286 N 
ATOM     28  H   UNL     1       0.205   4.547  -1.219  0.00  0.00    +0.155 HD
BRANCH  27  29
ATOM     29  C   UNL     1       0.011   3.894  -3.167  0.00  0.00    +0.052 A 
ATOM     30  C   UNL     1      -0.248   2.756  -3.920  0.00  0.00    +0.026 A 
ATOM     31  C   UNL     1      -0.544   2.870  -5.264  0.00  0.00    +0.022 A 
ATOM     32  C   UNL     1      -0.583   4.118  -5.862  0.00  0.00    +0.042 A 
ATOM     33  C   UNL     1      -0.326   5.254  -5.115  0.00  0.00    +0.041 A 
ATOM     34  C   UNL     1      -0.035   5.146  -3.768  0.00  0.00    +0.064 A 
ATOM     35 CL   UNL     1       0.280   6.573  -2.830  0.00  0.00    -0.082 Cl
ATOM     36 CL   UNL     1      -0.956   4.258  -7.551  0.00  0.00    -0.083 Cl
ENDBRANCH  27  29
ENDBRANCH  24  25
ENDBRANCH  19  24
ENDBRANCH   1  19
TORSDOF 8
