REMARK  Name = ZINC09041985
REMARK  8 active torsions:
REMARK  status: ('A' for Active; 'I' for Inactive)
REMARK    1  A    between atoms: C_1  and  C_2
REMARK    2  A    between atoms: C_2  and  O_3
REMARK    3  A    between atoms: O_3  and  C_4
REMARK    4  A    between atoms: C_9  and  C_10
REMARK    5  A    between atoms: N_11  and  N_12
REMARK    6  A    between atoms: C_13  and  C_15
REMARK    7  A    between atoms: C_15  and  N_16
REMARK    8  A    between atoms: C_27  and  C_31
REMARK                            x       y       z     vdW  Elec       q    Type
REMARK                         _______ _______ _______ _____ _____    ______ ____
ROOT
ATOM      1  N   UNL     1      -4.952   0.594   0.054  0.00  0.00    -0.205 N 
ATOM      2  C   UNL     1      -4.801   1.933   0.060  0.00  0.00    +0.254 C 
ATOM      3  O   UNL     1      -3.688   2.418   0.052  0.00  0.00    -0.272 OA
ATOM      4  H   UNL     1      -5.841   0.206   0.060  0.00  0.00    +0.177 HD
ENDROOT
BRANCH   1   6
ATOM      5  C   UNL     1      -3.970  -1.528   0.032  0.00  0.00    +0.142 C 
ATOM      6  N   UNL     1      -3.825  -0.238   0.038  0.00  0.00    -0.188 NA
BRANCH   5  12
ATOM      7  C   UNL     1      -1.498  -1.847   0.006  0.00  0.00    +0.129 A 
ATOM      8  C   UNL     1      -0.390  -2.679  -0.014  0.00  0.00    +0.047 A 
ATOM      9  C   UNL     1      -0.553  -4.051  -0.014  0.00  0.00    +0.019 A 
ATOM     10  C   UNL     1      -1.823  -4.606  -0.005  0.00  0.00    +0.019 A 
ATOM     11  C   UNL     1      -2.937  -3.792   0.010  0.00  0.00    +0.028 A 
ATOM     12  C   UNL     1      -2.785  -2.404   0.016  0.00  0.00    +0.037 A 
ATOM     13 BR   UNL     1      -2.029  -6.485  -0.013  0.00  0.00    -0.050 Br
BRANCH   7  14
ATOM     14  O   UNL     1      -1.339  -0.499   0.012  0.00  0.00    -0.492 OA
BRANCH  14  16
ATOM     15  C   UNL     1      -0.019   1.526   0.010  0.00  0.00    +0.048 C 
ATOM     16  C   UNL     1       0.002  -0.004   0.002  0.00  0.00    +0.226 C 
ENDBRANCH  14  16
ENDBRANCH   7  14
ENDBRANCH   5  12
ENDBRANCH   1   6
BRANCH   2  17
ATOM     17  C   UNL     1      -6.013   2.828   0.077  0.00  0.00    +0.246 C 
BRANCH  17  18
ATOM     18  N   UNL     1      -5.585   4.229   0.081  0.00  0.00    -0.201 N 
ATOM     19  C   UNL     1      -5.402   4.872  -1.088  0.00  0.00    +0.279 A 
ATOM     20  O   UNL     1      -5.588   4.300  -2.148  0.00  0.00    -0.265 OA
ATOM     21  C   UNL     1      -4.984   6.245  -1.063  0.00  0.00    +0.079 A 
ATOM     22  C   UNL     1      -4.728   7.131  -2.197  0.00  0.00    -0.023 A 
ATOM     23  C   UNL     1      -4.338   8.393  -1.913  0.00  0.00    -0.004 A 
ATOM     24  S   UNL     1      -4.293   8.472  -0.143  0.00  0.00    -0.071 S 
ATOM     25  C   UNL     1      -4.798   6.806   0.210  0.00  0.00    +0.138 A 
ATOM     26  N   UNL     1      -4.996   6.116   1.329  0.00  0.00    -0.123 NA
ATOM     27  N   UNL     1      -5.377   4.885   1.298  0.00  0.00    -0.061 NA
ATOM     28  C   UNL     1      -4.018   9.485  -2.887  0.00  0.00    +0.046 C 
ATOM     29  C   UNL     1      -4.556   9.075  -4.266  0.00  0.00    -0.009 C 
ATOM     30  C   UNL     1      -4.123   7.635  -4.553  0.00  0.00    +0.008 C 
ATOM     31  C   UNL     1      -4.886   6.671  -3.643  0.00  0.00    +0.037 C 
ATOM     32  C   UNL     1      -3.983  10.006  -5.337  0.00  0.00    +0.008 C 
ENDBRANCH  17  18
ENDBRANCH   2  17
TORSDOF 6
