REMARK  Name = ZINC01110371
REMARK  10 active torsions:
REMARK  status: ('A' for Active; 'I' for Inactive)
REMARK    1  A    between atoms: C_1  and  C_2
REMARK    2  A    between atoms: C_3  and  C_28
REMARK    3  A    between atoms: C_4  and  C_12
REMARK    4  A    between atoms: C_6  and  C_10
REMARK    5  A    between atoms: C_7  and  N_9
REMARK    6  A    between atoms: C_17  and  O_18
REMARK    7  A    between atoms: O_18  and  C_19
REMARK    8  A    between atoms: C_19  and  C_20
REMARK    9  A    between atoms: C_28  and  O_30
REMARK   10  A    between atoms: O_30  and  C_31
REMARK                            x       y       z     vdW  Elec       q    Type
REMARK                         _______ _______ _______ _____ _____    ______ ____
ROOT
ATOM      1  C   UNL     1      -0.192   5.651   0.571  0.00  0.00    +0.087 C 
ATOM      2  C   UNL     1      -0.106   4.174   0.281  0.00  0.00    +0.115 C 
ATOM      3  C   UNL     1       1.101   3.597   0.217  0.00  0.00    +0.087 C 
ATOM      4  C   UNL     1       1.245   2.127  -0.066  0.00  0.00    +0.108 C 
ATOM      5  C   UNL     1      -0.073   1.435   0.151  0.00  0.00    +0.098 C 
ATOM      6  C   UNL     1      -1.226   2.144   0.215  0.00  0.00    +0.198 C 
ATOM      7  O   UNL     1      -1.240   3.483   0.098  0.00  0.00    -0.445 OA
ENDROOT
BRANCH   4   8
ATOM      8  C   UNL     1       1.684   1.933  -1.495  0.00  0.00    +0.008 A 
ATOM      9  C   UNL     1       0.891   2.391  -2.530  0.00  0.00    +0.023 A 
ATOM     10  C   UNL     1       1.293   2.212  -3.841  0.00  0.00    +0.018 A 
ATOM     11  C   UNL     1       2.489   1.575  -4.120  0.00  0.00    +0.019 A 
ATOM     12  C   UNL     1       3.285   1.116  -3.088  0.00  0.00    +0.047 A 
ATOM     13  C   UNL     1       2.886   1.299  -1.772  0.00  0.00    +0.125 A 
ATOM     14 BR   UNL     1       0.206   2.840  -5.255  0.00  0.00    -0.050 Br
BRANCH  13  15
ATOM     15  O   UNL     1       3.670   0.852  -0.755  0.00  0.00    -0.487 OA
BRANCH  15  16
ATOM     16  C   UNL     1       4.894   0.209  -1.114  0.00  0.00    +0.264 C 
BRANCH  16  17
ATOM     17  C   UNL     1       5.624  -0.215   0.134  0.00  0.00    -0.010 A 
ATOM     18  C   UNL     1       6.526   0.644   0.733  0.00  0.00    +0.008 A 
ATOM     19  C   UNL     1       7.192   0.258   1.881  0.00  0.00    +0.020 A 
ATOM     20  C   UNL     1       6.963  -0.993   2.425  0.00  0.00    +0.041 A 
ATOM     21  C   UNL     1       6.064  -1.855   1.822  0.00  0.00    +0.020 A 
ATOM     22  C   UNL     1       5.395  -1.466   0.677  0.00  0.00    +0.008 A 
ATOM     23 CL   UNL     1       7.803  -1.482   3.863  0.00  0.00    -0.084 Cl
ENDBRANCH  16  17
ENDBRANCH  15  16
ENDBRANCH  13  15
ENDBRANCH   4   8
BRANCH   6  24
ATOM     24  N   UNL     1      -2.410   1.478   0.410  0.00  0.00    -0.328 N 
ATOM     25  H   UNL     1      -2.414   0.512   0.501  0.00  0.00    +0.145 HD
ATOM     26  H   UNL     1      -3.243   1.973   0.458  0.00  0.00    +0.145 HD
ENDBRANCH   6  24
BRANCH   5  27
ATOM     27  C   UNL     1      -0.111   0.009   0.287  0.00  0.00    +0.101 C 
ATOM     28  N   UNL     1      -0.141  -1.121   0.394  0.00  0.00    -0.191 NA
ENDBRANCH   5  27
BRANCH   3  29
ATOM     29  C   UNL     1       2.261   4.385   0.420  0.00  0.00    +0.339 C 
ATOM     30  O   UNL     1       2.885   4.292   1.460  0.00  0.00    -0.245 OA
BRANCH  29  31
ATOM     31  O   UNL     1       2.674   5.238  -0.540  0.00  0.00    -0.465 OA
ATOM     32  C   UNL     1       3.851   6.000  -0.269  0.00  0.00    +0.280 C 
ENDBRANCH  29  31
ENDBRANCH   3  29
TORSDOF 8
