REMARK  Name = ZINC39325819
REMARK  5 active torsions:
REMARK  status: ('A' for Active; 'I' for Inactive)
REMARK    1  A    between atoms: C_1  and  C_2
REMARK    2  A    between atoms: C_2  and  C_3
REMARK    3  A    between atoms: C_5  and  C_17
REMARK    4  A    between atoms: C_7  and  C_15
REMARK    5  A    between atoms: C_8  and  N_14
REMARK                            x       y       z     vdW  Elec       q    Type
REMARK                         _______ _______ _______ _____ _____    ______ ____
ROOT
ATOM      1  C   UNL     1       0.707  -0.490  -1.238  0.00  0.00    +0.069 C 
ATOM      2  C   UNL     1       1.976  -0.816  -1.299  0.00  0.00    +0.030 C 
ATOM      3  C   UNL     1       3.060  -0.961  -0.266  0.00  0.00    +0.099 C 
ATOM      4  C   UNL     1       3.816  -2.221  -0.645  0.00  0.00    +0.098 C 
ATOM      5  C   UNL     1       3.588  -2.862  -1.810  0.00  0.00    +0.195 C 
ATOM      6  O   UNL     1       2.690  -2.522  -2.752  0.00  0.00    -0.448 OA
ATOM      7  C   UNL     1       2.226  -1.170  -2.765  0.00  0.00    +0.343 C 
ATOM      8  N   UNL     1       0.883  -1.050  -3.341  0.00  0.00    -0.138 NA
ATOM      9  N   UNL     1       0.119  -0.659  -2.450  0.00  0.00    -0.155 NA
ENDROOT
BRANCH   3  10
ATOM     10  C   UNL     1       3.979   0.233  -0.304  0.00  0.00    -0.013 A 
ATOM     11  C   UNL     1       4.669   0.536  -1.464  0.00  0.00    +0.055 A 
ATOM     12  C   UNL     1       5.514   1.632  -1.502  0.00  0.00    +0.167 A 
ATOM     13  C   UNL     1       5.667   2.429  -0.369  0.00  0.00    +0.168 A 
ATOM     14  C   UNL     1       4.973   2.120   0.789  0.00  0.00    +0.069 A 
ATOM     15  C   UNL     1       4.127   1.026   0.819  0.00  0.00    +0.049 A 
ATOM     16 CL   UNL     1       3.253   0.645   2.270  0.00  0.00    -0.083 Cl
ATOM     17  O   UNL     1       6.544   3.434  -0.658  0.00  0.00    -0.453 OA
ATOM     18  C   UNL     1       7.237   3.010  -1.847  0.00  0.00    +0.466 C 
ATOM     19  O   UNL     1       6.295   2.139  -2.500  0.00  0.00    -0.453 OA
ENDBRANCH   3  10
BRANCH   5  20
ATOM     20  N   UNL     1       4.352  -3.974  -2.061  0.00  0.00    -0.329 N 
ATOM     21  H   UNL     1       5.015  -4.263  -1.414  0.00  0.00    +0.145 HD
ATOM     22  H   UNL     1       4.228  -4.472  -2.884  0.00  0.00    +0.145 HD
ENDBRANCH   5  20
BRANCH   1  24
ATOM     23  C   UNL     1      -0.019   1.526   0.010  0.00  0.00    +0.010 C 
ATOM     24  C   UNL     1       0.002  -0.004   0.002  0.00  0.00    +0.054 C 
ENDBRANCH   1  24
BRANCH   4  25
ATOM     25  C   UNL     1       4.797  -2.744   0.258  0.00  0.00    +0.101 C 
ATOM     26  N   UNL     1       5.575  -3.158   0.975  0.00  0.00    -0.191 NA
ENDBRANCH   4  25
TORSDOF 4
