REMARK  Name = ZINC26395981
REMARK  14 active torsions:
REMARK  status: ('A' for Active; 'I' for Inactive)
REMARK    1  A    between atoms: C_1  and  C_2
REMARK    2  A    between atoms: C_2  and  O_3
REMARK    3  A    between atoms: O_3  and  C_4
REMARK    4  A    between atoms: C_4  and  C_6
REMARK    5  A    between atoms: C_15  and  C_17
REMARK    6  A    between atoms: C_17  and  C_19
REMARK    7  A    between atoms: C_17  and  N_28
REMARK    8  A    between atoms: C_19  and  O_20
REMARK    9  A    between atoms: O_20  and  C_21
REMARK   10  A    between atoms: C_21  and  C_22
REMARK   11  A    between atoms: C_29  and  C_31
REMARK   12  A    between atoms: C_31  and  C_32
REMARK   13  A    between atoms: C_31  and  C_33
REMARK   14  A    between atoms: C_31  and  N_34
REMARK                            x       y       z     vdW  Elec       q    Type
REMARK                         _______ _______ _______ _____ _____    ______ ____
ROOT
ATOM      1  C   UNL     1      -4.625  -1.159  -5.286  0.00  0.00    +0.129 C 
ATOM      2  C   UNL     1      -3.638  -0.463  -4.323  0.00  0.00    +0.031 C 
ATOM      3  C   UNL     1      -2.806  -1.645  -3.794  0.00  0.00    -0.000 C 
ATOM      4  C   UNL     1      -3.415  -2.172  -2.498  0.00  0.00    +0.030 C 
ATOM      5  C   UNL     1      -3.393  -1.065  -1.438  0.00  0.00    +0.108 C 
ATOM      6  N   UNL     1      -2.018  -0.560  -1.312  0.00  0.00    -0.300 N 
ATOM      7  C   UNL     1      -1.325  -0.088  -2.518  0.00  0.00    +0.108 C 
ATOM      8  C   UNL     1      -1.361  -1.208  -3.571  0.00  0.00    +0.030 C 
ATOM      9  C   UNL     1      -1.407  -0.525  -0.111  0.00  0.00    +0.238 C 
ATOM     10  O   UNL     1      -1.992  -0.912   0.878  0.00  0.00    -0.273 OA
ATOM     11  C   UNL     1      -2.873  -2.702  -4.871  0.00  0.00    -0.037 A 
ATOM     12  C   UNL     1      -3.920  -2.423  -5.731  0.00  0.00    -0.030 A 
ATOM     13  C   UNL     1      -4.173  -3.261  -6.803  0.00  0.00    +0.005 A 
ATOM     14  C   UNL     1      -3.385  -4.376  -7.016  0.00  0.00    +0.000 A 
ATOM     15  C   UNL     1      -2.340  -4.656  -6.156  0.00  0.00    +0.000 A 
ATOM     16  C   UNL     1      -2.085  -3.820  -5.086  0.00  0.00    +0.004 A 
ENDROOT
BRANCH   1  17
ATOM     17  C   UNL     1      -4.910  -0.274  -6.472  0.00  0.00    +0.315 C 
ATOM     18  O   UNL     1      -4.425   0.831  -6.532  0.00  0.00    -0.250 OA
BRANCH  17  19
ATOM     19  O   UNL     1      -5.704  -0.713  -7.462  0.00  0.00    -0.464 OA
BRANCH  19  21
ATOM     20  C   UNL     1      -6.856  -0.477  -9.594  0.00  0.00    +0.048 C 
ATOM     21  C   UNL     1      -5.935   0.193  -8.572  0.00  0.00    +0.229 C 
ENDBRANCH  19  21
ENDBRANCH  17  19
ENDBRANCH   1  17
BRANCH   9  22
ATOM     22  C   UNL     1       0.002  -0.004   0.002  0.00  0.00    +0.185 C 
BRANCH  22  23
ATOM     23  N   UNL     1       0.604  -0.491   1.246  0.00  0.00    -0.303 N 
ATOM     24  C   UNL     1       0.046  -0.180   2.432  0.00  0.00    +0.202 C 
ATOM     25  O   UNL     1      -0.955   0.504   2.470  0.00  0.00    -0.277 OA
ATOM     26  H   UNL     1       1.512  -1.111   1.211  0.00  0.00    +0.149 HD
BRANCH  24  27
ATOM     27  C   UNL     1       0.665  -0.681   3.711  0.00  0.00    +0.001 C 
ATOM     28  C   UNL     1       0.283   0.252   4.862  0.00  0.00    -0.001 C 
ATOM     29  C   UNL     1       0.154  -2.092   4.007  0.00  0.00    -0.001 C 
BRANCH  27  30
ATOM     30  N   UNL     1       2.127  -0.709   3.569  0.00  0.00    +0.387 N 
ATOM     31  H   UNL     1       2.579  -1.075   4.502  0.00  0.00    -0.089 HD
ATOM     32  H   UNL     1       2.495   0.305   3.356  0.00  0.00    -0.089 HD
ATOM     33  H   UNL     1       2.402  -1.380   2.741  0.00  0.00    -0.089 HD
ENDBRANCH  27  30
ENDBRANCH  24  27
ENDBRANCH  22  23
BRANCH  22  34
ATOM     34  C   UNL     1      -0.019   1.526   0.010  0.00  0.00    +0.192 C 
BRANCH  34  35
ATOM     35  O   UNL     1       1.322   2.020   0.000  0.00  0.00    -0.373 OA
BRANCH  35  36
ATOM     36  C   UNL     1       1.415   3.446   0.007  0.00  0.00    +0.195 C 
BRANCH  36  37
ATOM     37  C   UNL     1       2.866   3.855  -0.005  0.00  0.00    -0.022 A 
ATOM     38  C   UNL     1       3.541   4.041   1.187  0.00  0.00    +0.006 A 
ATOM     39  C   UNL     1       4.873   4.411   1.176  0.00  0.00    +0.000 A 
ATOM     40  C   UNL     1       5.527   4.604  -0.026  0.00  0.00    +0.000 A 
ATOM     41  C   UNL     1       4.850   4.423  -1.218  0.00  0.00    +0.000 A 
ATOM     42  C   UNL     1       3.520   4.048  -1.207  0.00  0.00    +0.006 A 
ENDBRANCH  36  37
ENDBRANCH  35  36
ENDBRANCH  34  35
ENDBRANCH  22  34
ENDBRANCH   9  22
TORSDOF 11
