REMARK  Name = ZINC13794284
REMARK  10 active torsions:
REMARK  status: ('A' for Active; 'I' for Inactive)
REMARK    1  A    between atoms: C_1  and  C_2
REMARK    2  A    between atoms: C_2  and  N_3
REMARK    3  A    between atoms: C_7  and  C_26
REMARK    4  A    between atoms: N_12  and  C_13
REMARK    5  A    between atoms: C_13  and  C_15
REMARK    6  A    between atoms: N_21  and  S_22
REMARK    7  A    between atoms: S_22  and  C_25
REMARK    8  A    between atoms: C_26  and  O_28
REMARK    9  A    between atoms: O_28  and  C_29
REMARK   10  A    between atoms: C_29  and  C_30
REMARK                            x       y       z     vdW  Elec       q    Type
REMARK                         _______ _______ _______ _____ _____    ______ ____
ROOT
ATOM      1  N   UNL     1      -6.094   1.501  -0.449  0.00  0.00    -0.321 N 
ATOM      2  C   UNL     1      -7.040   0.509  -0.592  0.00  0.00    +0.058 A 
ATOM      3  C   UNL     1      -8.435   0.647  -0.709  0.00  0.00    +0.028 A 
ATOM      4  C   UNL     1      -9.239  -0.441  -0.845  0.00  0.00    +0.017 A 
ATOM      5  C   UNL     1      -8.709  -1.736  -0.875  0.00  0.00    +0.060 A 
ATOM      6  C   UNL     1      -7.324  -1.903  -0.761  0.00  0.00    +0.032 A 
ATOM      7  C   UNL     1      -6.524  -0.798  -0.624  0.00  0.00    +0.040 A 
ATOM      8  S   UNL     1      -4.774  -0.549  -0.460  0.00  0.00    -0.052 S 
ATOM      9  C   UNL     1      -4.776   1.182  -0.351  0.00  0.00    +0.166 A 
ATOM     10  N   UNL     1      -3.736   2.001  -0.210  0.00  0.00    -0.155 NA
ENDROOT
BRANCH   1  12
ATOM     11  C   UNL     1      -6.528   3.479  -1.821  0.00  0.00    +0.027 C 
ATOM     12  C   UNL     1      -6.511   2.905  -0.403  0.00  0.00    +0.121 C 
ENDBRANCH   1  12
BRANCH  10  13
ATOM     13  C   UNL     1      -2.506   1.506  -0.129  0.00  0.00    +0.257 C 
ATOM     14  O   UNL     1      -2.330   0.304  -0.184  0.00  0.00    -0.272 OA
BRANCH  13  15
ATOM     15  C   UNL     1      -1.329   2.433   0.030  0.00  0.00    +0.167 C 
ATOM     16  C   UNL     1      -0.455   2.368  -1.221  0.00  0.00    +0.030 C 
ATOM     17  C   UNL     1       0.811   3.199  -1.000  0.00  0.00    +0.003 C 
ATOM     18  C   UNL     1       1.603   2.623   0.176  0.00  0.00    +0.017 C 
ATOM     19  C   UNL     1       0.750   2.695   1.446  0.00  0.00    +0.110 C 
ATOM     20  N   UNL     1      -0.531   2.021   1.194  0.00  0.00    -0.169 NA
BRANCH  20  21
ATOM     21  S   UNL     1      -1.063   0.816   2.197  0.00  0.00    +0.030 S 
ATOM     22  O   UNL     1      -0.400   1.053   3.432  0.00  0.00    -0.158 OA
ATOM     23  O   UNL     1      -2.480   0.873   2.113  0.00  0.00    -0.158 OA
ATOM     24  C   UNL     1      -0.453  -0.719   1.446  0.00  0.00    +0.215 C 
ENDBRANCH  20  21
ENDBRANCH  13  15
ENDBRANCH  10  13
BRANCH   5  25
ATOM     25  C   UNL     1      -9.595  -2.905  -1.023  0.00  0.00    +0.339 C 
ATOM     26  O   UNL     1      -9.124  -4.025  -1.048  0.00  0.00    -0.245 OA
BRANCH  25  27
ATOM     27  O   UNL     1     -10.927  -2.732  -1.131  0.00  0.00    -0.461 OA
BRANCH  27  28
ATOM     28  C   UNL     1     -11.738  -3.928  -1.275  0.00  0.00    +0.229 C 
ATOM     29  C   UNL     1     -13.213  -3.535  -1.382  0.00  0.00    +0.048 C 
ENDBRANCH  27  28
ENDBRANCH  25  27
ENDBRANCH   5  25
TORSDOF 7
