REMARK  Name = ZINC09589476
REMARK  9 active torsions:
REMARK  status: ('A' for Active; 'I' for Inactive)
REMARK    1  A    between atoms: C_1  and  C_2
REMARK    2  A    between atoms: C_6  and  C_8
REMARK    3  A    between atoms: C_9  and  C_30
REMARK    4  A    between atoms: C_13  and  C_18
REMARK    5  A    between atoms: N_20  and  C_21
REMARK    6  A    between atoms: C_21  and  C_22
REMARK    7  A    between atoms: C_22  and  N_70
REMARK    8  A    between atoms: C_27  and  C_29
REMARK    9  A    between atoms: C_34  and  C_36
REMARK                            x       y       z     vdW  Elec       q    Type
REMARK                         _______ _______ _______ _____ _____    ______ ____
ROOT
ATOM      1  C   UNL     1      -6.941  12.099  -3.963  0.00  0.00    +0.098 A 
ATOM      2  C   UNL     1      -7.460  11.072  -4.864  0.00  0.00    +0.098 A 
ATOM      3  N   UNL     1      -7.066   9.820  -4.723  0.00  0.00    -0.243 NA
ATOM      4  C   UNL     1      -6.195   9.497  -3.760  0.00  0.00    +0.091 A 
ATOM      5  C   UNL     1      -5.767   8.167  -3.610  0.00  0.00    +0.043 A 
ATOM      6  C   UNL     1      -4.870   7.847  -2.605  0.00  0.00    +0.039 A 
ATOM      7  C   UNL     1      -4.378   8.844  -1.744  0.00  0.00    +0.015 A 
ATOM      8  C   UNL     1      -4.775  10.135  -1.877  0.00  0.00    +0.030 A 
ATOM      9  C   UNL     1      -5.691  10.493  -2.886  0.00  0.00    +0.090 A 
ATOM     10  N   UNL     1      -6.082  11.766  -3.016  0.00  0.00    -0.243 NA
ENDROOT
BRANCH   1  16
ATOM     11  C   UNL     1      -8.106  16.497  -1.910  0.00  0.00    +0.044 C 
ATOM     12  C   UNL     1      -7.937  15.624  -3.127  0.00  0.00    -0.050 A 
ATOM     13  C   UNL     1      -8.189  16.140  -4.386  0.00  0.00    +0.003 A 
ATOM     14  C   UNL     1      -8.035  15.345  -5.508  0.00  0.00    +0.001 A 
ATOM     15  C   UNL     1      -7.625  14.034  -5.377  0.00  0.00    +0.010 A 
ATOM     16  C   UNL     1      -7.376  13.507  -4.110  0.00  0.00    +0.003 A 
ATOM     17  C   UNL     1      -7.532  14.314  -2.983  0.00  0.00    +0.013 A 
ENDBRANCH   1  16
BRANCH   2  18
ATOM     18  C   UNL     1      -8.424  11.434  -5.929  0.00  0.00    +0.003 A 
ATOM     19  C   UNL     1      -9.375  12.428  -5.705  0.00  0.00    +0.010 A 
ATOM     20  C   UNL     1     -10.266  12.765  -6.703  0.00  0.00    +0.001 A 
ATOM     21  C   UNL     1     -10.224  12.110  -7.921  0.00  0.00    +0.003 A 
ATOM     22  C   UNL     1      -9.286  11.119  -8.148  0.00  0.00    -0.050 A 
ATOM     23  C   UNL     1      -8.386  10.777  -7.159  0.00  0.00    +0.013 A 
ATOM     24  C   UNL     1      -9.248  10.411  -9.478  0.00  0.00    +0.044 C 
ENDBRANCH   2  18
BRANCH   6  25
ATOM     25  C   UNL     1      -4.421   6.448  -2.439  0.00  0.00    +0.244 C 
ATOM     26  O   UNL     1      -4.844   5.583  -3.181  0.00  0.00    -0.270 OA
ATOM     27  N   UNL     1      -3.544   6.132  -1.466  0.00  0.00    -0.313 N 
ATOM     28  H   UNL     1      -3.207   6.822  -0.874  0.00  0.00    +0.149 HD
BRANCH  27  29
ATOM     29  C   UNL     1      -3.100   4.746  -1.302  0.00  0.00    +0.086 C 
BRANCH  29  30
ATOM     30  C   UNL     1      -2.114   4.661  -0.136  0.00  0.00    -0.059 C 
BRANCH  30  37
ATOM     31  C   UNL     1      -0.842   2.845  -1.108  0.00  0.00    -0.078 C 
ATOM     32  C   UNL     1      -0.519   1.355  -0.976  0.00  0.00    -0.019 C 
ATOM     33  C   UNL     1       0.227   1.115   0.340  0.00  0.00    -0.003 C 
ATOM     34  C   UNL     1      -0.633   1.611   1.505  0.00  0.00    -0.016 C 
ATOM     35  C   UNL     1      -0.955   3.093   1.300  0.00  0.00    -0.072 C 
ATOM     36  C   UNL     1      -1.833   3.589   2.451  0.00  0.00    -0.013 C 
ATOM     37  N   UNL     1      -1.694   3.254   0.029  0.00  0.00    +0.382 N 
ATOM     38  H   UNL     1      -2.529   2.657   0.052  0.00  0.00    -0.081 HD
ENDBRANCH  30  37
ENDBRANCH  29  30
ENDBRANCH  27  29
ENDBRANCH   6  25
TORSDOF 6
