REMARK  Name = ZINC44666639
REMARK  4 active torsions:
REMARK  status: ('A' for Active; 'I' for Inactive)
REMARK    1  A    between atoms: C_4  and  C_10
REMARK    2  A    between atoms: C_6  and  N_7
REMARK    3  A    between atoms: N_11  and  C_12
REMARK    4  A    between atoms: C_12  and  C_13
REMARK                            x       y       z     vdW  Elec       q    Type
REMARK                         _______ _______ _______ _____ _____    ______ ____
ROOT
ATOM      1  C   UNL     1       3.613  -0.701  -0.036  0.00  0.00    +0.090 C 
ATOM      2  N   UNL     1       4.769  -0.031  -0.146  0.00  0.00    -0.389 N 
ATOM      3  H   UNL     1       4.770   0.939  -0.141  0.00  0.00    +0.159 HD
ENDROOT
BRANCH   1   7
ATOM      4  C   UNL     1      -0.017   1.387   0.008  0.00  0.00    +0.036 A 
ATOM      5  C   UNL     1       1.134   2.115   0.009  0.00  0.00    +0.054 A 
ATOM      6  C   UNL     1       2.378   1.463  -0.005  0.00  0.00    +0.188 A 
ATOM      7  C   UNL     1       2.401  -0.005  -0.021  0.00  0.00    +0.039 A 
ATOM      8  C   UNL     1       1.171  -0.699  -0.022  0.00  0.00    +0.045 A 
ATOM      9  C   UNL     1       0.002  -0.004  -0.008  0.00  0.00    +0.127 A 
ATOM     10  O   UNL     1       3.420   2.104  -0.004  0.00  0.00    -0.287 OA
BRANCH   9  11
ATOM     11  N   UNL     1      -1.280  -0.745  -0.009  0.00  0.00    +0.056 N 
ATOM     12  O   UNL     1      -2.327  -0.141   0.004  0.00  0.00    -0.126 OA
ATOM     13  O   UNL     1      -1.279  -1.954  -0.022  0.00  0.00    -0.126 OA
ENDBRANCH   9  11
ENDBRANCH   1   7
BRANCH   2  14
ATOM     14  C   UNL     1       6.031  -0.763  -0.272  0.00  0.00    +0.117 C 
BRANCH  14  15
ATOM     15  C   UNL     1       6.648  -0.484  -1.645  0.00  0.00    +0.031 C 
ATOM     16  C   UNL     1       7.039   1.000  -1.735  0.00  0.00    +0.029 C 
ATOM     17  C   UNL     1       7.936   1.189  -2.993  0.00  0.00    +0.166 C 
ATOM     18  S   UNL     1       8.982  -0.324  -2.890  0.00  0.00    -0.031 S 
ATOM     19  O   UNL     1      10.169  -0.017  -2.172  0.00  0.00    -0.174 OA
ATOM     20  O   UNL     1       9.078  -0.908  -4.182  0.00  0.00    -0.174 OA
ATOM     21  C   UNL     1       7.901  -1.371  -1.835  0.00  0.00    +0.171 C 
ENDBRANCH  14  15
ENDBRANCH   2  14
TORSDOF 4
