REMARK  Name = ZINC25187190
REMARK  12 active torsions:
REMARK  status: ('A' for Active; 'I' for Inactive)
REMARK    1  A    between atoms: C_1  and  C_2
REMARK    2  A    between atoms: C_2  and  O_3
REMARK    3  A    between atoms: O_3  and  C_4
REMARK    4  A    between atoms: C_4  and  C_6
REMARK    5  A    between atoms: C_7  and  C_20
REMARK    6  A    between atoms: C_12  and  C_14
REMARK    7  A    between atoms: C_20  and  N_21
REMARK    8  A    between atoms: N_21  and  C_22
REMARK    9  A    between atoms: N_21  and  C_35
REMARK   10  A    between atoms: C_22  and  C_23
REMARK   11  A    between atoms: C_26  and  C_29
REMARK   12  A    between atoms: N_31  and  C_32
REMARK                            x       y       z     vdW  Elec       q    Type
REMARK                         _______ _______ _______ _____ _____    ______ ____
ROOT
ATOM      1  C   UNL     1       3.066  -4.239  -3.741  0.00  0.00    +0.076 C 
ATOM      2  C   UNL     1       1.870  -4.612  -3.235  0.00  0.00    +0.008 C 
ATOM      3  N   UNL     1       0.853  -5.013  -4.053  0.00  0.00    -0.274 N 
ATOM      4  C   UNL     1       0.953  -5.074  -5.387  0.00  0.00    +0.304 C 
ATOM      5  O   UNL     1      -0.009  -5.443  -6.032  0.00  0.00    -0.252 OA
ATOM      6  N   UNL     1       2.085  -4.738  -6.037  0.00  0.00    -0.288 N 
ATOM      7  C   UNL     1       3.242  -4.292  -5.245  0.00  0.00    +0.143 C 
ATOM      8  H   UNL     1      -0.115  -5.309  -3.623  0.00  0.00    +0.156 HD
ATOM      9  H   UNL     1       2.156  -4.792  -7.134  0.00  0.00    +0.151 HD
ENDROOT
BRANCH   7  10
ATOM     10  C   UNL     1       3.620  -2.909  -5.712  0.00  0.00    -0.023 A 
ATOM     11  C   UNL     1       2.634  -1.991  -6.020  0.00  0.00    +0.006 A 
ATOM     12  C   UNL     1       2.980  -0.721  -6.444  0.00  0.00    +0.000 A 
ATOM     13  C   UNL     1       4.312  -0.373  -6.568  0.00  0.00    +0.000 A 
ATOM     14  C   UNL     1       5.298  -1.293  -6.265  0.00  0.00    +0.000 A 
ATOM     15  C   UNL     1       4.952  -2.561  -5.837  0.00  0.00    +0.006 A 
ENDBRANCH   7  10
BRANCH   1  16
ATOM     16  C   UNL     1       4.118  -3.818  -2.895  0.00  0.00    +0.339 C 
ATOM     17  O   UNL     1       3.920  -3.670  -1.704  0.00  0.00    -0.245 OA
BRANCH  16  18
ATOM     18  O   UNL     1       5.343  -3.580  -3.409  0.00  0.00    -0.462 OA
BRANCH  18  20
ATOM     19  C   UNL     1       7.668  -2.938  -3.258  0.00  0.00    +0.048 C 
ATOM     20  C   UNL     1       6.359  -3.157  -2.497  0.00  0.00    +0.229 C 
ENDBRANCH  18  20
ENDBRANCH  16  18
ENDBRANCH   1  16
BRANCH   2  21
ATOM     21  C   UNL     1       1.654  -4.580  -1.744  0.00  0.00    -0.026 C 
BRANCH  21  22
ATOM     22  N   UNL     1       1.324  -3.210  -1.327  0.00  0.00    +0.388 N 
ATOM     23  H   UNL     1       2.097  -2.539  -1.729  0.00  0.00    -0.080 HD
BRANCH  22  24
ATOM     24  C   UNL     1       0.029  -2.790  -1.877  0.00  0.00    -0.068 C 
ATOM     25  C   UNL     1       0.045  -1.811  -3.053  0.00  0.00    -0.017 C 
ATOM     26  C   UNL     1      -0.389  -1.333  -1.666  0.00  0.00    -0.017 C 
ENDBRANCH  22  24
BRANCH  22  27
ATOM     27  C   UNL     1       1.338  -3.088   0.137  0.00  0.00    -0.042 C 
BRANCH  27  28
ATOM     28  C   UNL     1       2.764  -3.022   0.622  0.00  0.00    -0.064 A 
ATOM     29  C   UNL     1       3.437  -1.813   0.616  0.00  0.00    +0.002 A 
ATOM     30  C   UNL     1       4.743  -1.745   1.058  0.00  0.00    +0.013 A 
ATOM     31  C   UNL     1       5.383  -2.899   1.511  0.00  0.00    +0.037 A 
ATOM     32  C   UNL     1       4.698  -4.115   1.515  0.00  0.00    +0.013 A 
ATOM     33  C   UNL     1       3.393  -4.169   1.070  0.00  0.00    +0.002 A 
BRANCH  31  34
ATOM     34  C   UNL     1       6.782  -2.834   1.986  0.00  0.00    +0.244 C 
ATOM     35  O   UNL     1       7.376  -1.774   1.983  0.00  0.00    -0.270 OA
ATOM     36  N   UNL     1       7.398  -3.950   2.424  0.00  0.00    -0.308 N 
ATOM     37  H   UNL     1       6.860  -4.910   2.427  0.00  0.00    +0.149 HD
BRANCH  36  38
ATOM     38  C   UNL     1       8.783  -3.885   2.895  0.00  0.00    +0.073 C 
ATOM     39  C   UNL     1       9.738  -4.990   2.437  0.00  0.00    +0.024 C 
ATOM     40  C   UNL     1       9.243  -4.957   3.885  0.00  0.00    +0.024 C 
ENDBRANCH  36  38
ENDBRANCH  31  34
ENDBRANCH  27  28
ENDBRANCH  22  27
ENDBRANCH  21  22
ENDBRANCH   2  21
TORSDOF 11
