REMARK  Name = ZINC20205886
REMARK  9 active torsions:
REMARK  status: ('A' for Active; 'I' for Inactive)
REMARK    1  A    between atoms: C_1  and  C_2
REMARK    2  A    between atoms: C_5  and  C_36
REMARK    3  A    between atoms: C_6  and  O_8
REMARK    4  A    between atoms: O_8  and  C_9
REMARK    5  A    between atoms: C_9  and  C_10
REMARK    6  A    between atoms: C_10  and  N_11
REMARK    7  A    between atoms: C_13  and  C_20
REMARK    8  A    between atoms: C_31  and  S_32
REMARK    9  A    between atoms: S_32  and  C_35
REMARK                            x       y       z     vdW  Elec       q    Type
REMARK                         _______ _______ _______ _____ _____    ______ ____
ROOT
ATOM      1  N   UNL     1       0.046  -1.791   5.540  0.00  0.00    -0.343 N 
ATOM      2  C   UNL     1       1.062  -1.411   6.340  0.00  0.00    +0.095 A 
ATOM      3  C   UNL     1       0.558  -0.960   7.545  0.00  0.00    +0.001 A 
ATOM      4  C   UNL     1      -0.910  -1.085   7.448  0.00  0.00    +0.007 A 
ATOM      5  C   UNL     1      -1.168  -1.605   6.170  0.00  0.00    +0.050 A 
ATOM      6  C   UNL     1      -2.483  -1.831   5.779  0.00  0.00    +0.026 A 
ATOM      7  C   UNL     1      -3.517  -1.541   6.644  0.00  0.00    +0.002 A 
ATOM      8  C   UNL     1      -3.260  -1.025   7.905  0.00  0.00    +0.001 A 
ATOM      9  C   UNL     1      -1.962  -0.802   8.313  0.00  0.00    +0.010 A 
ENDROOT
BRANCH   3  10
ATOM     10  C   UNL     1       1.299  -0.476   8.647  0.00  0.00    +0.026 C 
ATOM     11  C   UNL     1       2.497  -1.074   8.990  0.00  0.00    +0.078 C 
ATOM     12  C   UNL     1       3.397  -0.494  10.026  0.00  0.00    +0.117 C 
ATOM     13  N   UNL     1       2.963   0.165  11.068  0.00  0.00    -0.386 N 
ATOM     14  N   UNL     1       4.763  -0.727   9.769  0.00  0.00    -0.203 N 
ATOM     15  C   UNL     1       5.106  -1.795   8.967  0.00  0.00    +0.183 C 
ATOM     16  N   UNL     1       4.280  -2.584   8.318  0.00  0.00    -0.152 NA
ATOM     17  C   UNL     1       2.955  -2.330   8.353  0.00  0.00    +0.273 C 
ATOM     18  O   UNL     1       2.154  -3.113   7.868  0.00  0.00    -0.268 OA
ATOM     19  S   UNL     1       6.772  -1.797   9.027  0.00  0.00    +0.049 S 
ATOM     20  N   UNL     1       7.012  -0.419   9.952  0.00  0.00    -0.174 NA
ATOM     21  C   UNL     1       5.814  -0.012  10.235  0.00  0.00    +0.257 C 
ATOM     22  H   UNL     1       2.021   0.381  11.148  0.00  0.00    +0.157 HD
ATOM     23  H   UNL     1       3.583   0.438  11.762  0.00  0.00    +0.157 HD
BRANCH  21  24
ATOM     24  S   UNL     1       5.559   1.437  11.204  0.00  0.00    +0.026 S 
ATOM     25  O   UNL     1       6.770   2.172  11.082  0.00  0.00    -0.167 OA
ATOM     26  O   UNL     1       4.333   1.978  10.732  0.00  0.00    -0.167 OA
ATOM     27  C   UNL     1       5.363   0.833  12.903  0.00  0.00    +0.203 C 
ENDBRANCH  21  24
ENDBRANCH   3  10
BRANCH   1  28
ATOM     28  C   UNL     1       0.208  -2.322   4.184  0.00  0.00    +0.163 C 
BRANCH  28  29
ATOM     29  C   UNL     1       0.068  -1.185   3.170  0.00  0.00    +0.250 C 
BRANCH  29  30
ATOM     30  O   UNL     1       0.226  -1.704   1.848  0.00  0.00    -0.490 OA
BRANCH  30  36
ATOM     31  C   UNL     1      -0.473   2.878   0.320  0.00  0.00    +0.044 C 
ATOM     32  C   UNL     1      -0.210   1.422   0.038  0.00  0.00    -0.047 A 
ATOM     33  C   UNL     1      -0.067   0.985  -1.266  0.00  0.00    +0.004 A 
ATOM     34  C   UNL     1       0.174  -0.350  -1.529  0.00  0.00    +0.007 A 
ATOM     35  C   UNL     1       0.273  -1.253  -0.487  0.00  0.00    -0.009 A 
ATOM     36  C   UNL     1       0.130  -0.818   0.822  0.00  0.00    +0.124 A 
ATOM     37  C   UNL     1      -0.106   0.524   1.083  0.00  0.00    +0.049 A 
ATOM     38  C   UNL     1       0.534  -2.709  -0.774  0.00  0.00    +0.047 C 
ENDBRANCH  30  36
ENDBRANCH  29  30
ENDBRANCH  28  29
ENDBRANCH   1  28
TORSDOF 6
