REMARK  Name = ZINC01150290
REMARK  9 active torsions:
REMARK  status: ('A' for Active; 'I' for Inactive)
REMARK    1  A    between atoms: C_1  and  N_2
REMARK    2  A    between atoms: N_2  and  C_3
REMARK    3  A    between atoms: N_2  and  S_28
REMARK    4  A    between atoms: C_6  and  C_9
REMARK    5  A    between atoms: N_11  and  C_12
REMARK    6  A    between atoms: C_17  and  C_18
REMARK    7  A    between atoms: N_20  and  C_21
REMARK    8  A    between atoms: C_21  and  C_22
REMARK    9  A    between atoms: S_28  and  C_31
REMARK                            x       y       z     vdW  Elec       q    Type
REMARK                         _______ _______ _______ _____ _____    ______ ____
ROOT
ATOM      1  C   UNL     1      -1.276   0.660   1.863  0.00  0.00    +0.248 C 
ATOM      2  O   UNL     1      -1.317   1.852   2.102  0.00  0.00    -0.270 OA
ATOM      3  N   UNL     1      -0.100   0.004   1.904  0.00  0.00    -0.281 N 
ATOM      4  H   UNL     1      -0.055  -0.929   1.643  0.00  0.00    +0.155 HD
ENDROOT
BRANCH   1   8
ATOM      5  C   UNL     1      -4.842  -1.434   0.899  0.00  0.00    +0.051 A 
ATOM      6  C   UNL     1      -4.890  -0.070   1.172  0.00  0.00    +0.025 A 
ATOM      7  C   UNL     1      -3.736   0.612   1.485  0.00  0.00    +0.015 A 
ATOM      8  C   UNL     1      -2.515  -0.067   1.528  0.00  0.00    +0.037 A 
ATOM      9  C   UNL     1      -2.469  -1.436   1.247  0.00  0.00    +0.015 A 
ATOM     10  C   UNL     1      -3.627  -2.113   0.941  0.00  0.00    +0.025 A 
BRANCH   5  12
ATOM     11  C   UNL     1      -7.301  -1.634   1.076  0.00  0.00    +0.157 C 
ATOM     12  N   UNL     1      -6.009  -2.120   0.583  0.00  0.00    -0.206 N 
BRANCH  12  13
ATOM     13  S   UNL     1      -5.940  -3.487  -0.350  0.00  0.00    +0.074 S 
ATOM     14  O   UNL     1      -7.202  -3.604  -0.993  0.00  0.00    -0.150 OA
ATOM     15  O   UNL     1      -4.719  -3.423  -1.073  0.00  0.00    -0.150 OA
BRANCH  13  16
ATOM     16  C   UNL     1      -5.805  -4.860   0.747  0.00  0.00    +0.109 A 
ATOM     17  C   UNL     1      -4.565  -5.409   1.017  0.00  0.00    +0.029 A 
ATOM     18  C   UNL     1      -4.459  -6.482   1.881  0.00  0.00    +0.002 A 
ATOM     19  C   UNL     1      -5.593  -7.014   2.467  0.00  0.00    +0.000 A 
ATOM     20  C   UNL     1      -6.833  -6.468   2.192  0.00  0.00    +0.002 A 
ATOM     21  C   UNL     1      -6.939  -5.391   1.332  0.00  0.00    +0.029 A 
ENDBRANCH  13  16
ENDBRANCH  12  13
ENDBRANCH   5  12
ENDBRANCH   1   8
BRANCH   3  22
ATOM     22  C   UNL     1       1.053   0.668   2.315  0.00  0.00    +0.046 A 
ATOM     23  C   UNL     1       1.298   1.968   1.893  0.00  0.00    +0.024 A 
ATOM     24  C   UNL     1       2.439   2.625   2.306  0.00  0.00    +0.002 A 
ATOM     25  C   UNL     1       3.352   1.993   3.135  0.00  0.00    +0.001 A 
ATOM     26  C   UNL     1       3.128   0.701   3.560  0.00  0.00    +0.015 A 
ATOM     27  C   UNL     1       1.975   0.024   3.154  0.00  0.00    +0.058 A 
BRANCH  27  28
ATOM     28  C   UNL     1       1.730  -1.359   3.605  0.00  0.00    +0.246 C 
ATOM     29  O   UNL     1       0.767  -1.972   3.186  0.00  0.00    -0.270 OA
ATOM     30  N   UNL     1       2.572  -1.942   4.480  0.00  0.00    -0.307 N 
ATOM     31  H   UNL     1       3.340  -1.452   4.814  0.00  0.00    +0.149 HD
BRANCH  30  32
ATOM     32  C   UNL     1       2.328  -3.315   4.928  0.00  0.00    +0.139 C 
BRANCH  32  33
ATOM     33  C   UNL     1       3.406  -3.727   5.897  0.00  0.00    -0.030 A 
ATOM     34  C   UNL     1       4.558  -4.334   5.432  0.00  0.00    +0.005 A 
ATOM     35  C   UNL     1       5.549  -4.707   6.320  0.00  0.00    +0.000 A 
ATOM     36  C   UNL     1       5.384  -4.482   7.674  0.00  0.00    +0.000 A 
ATOM     37  C   UNL     1       4.230  -3.880   8.139  0.00  0.00    +0.000 A 
ATOM     38  C   UNL     1       3.241  -3.502   7.251  0.00  0.00    +0.005 A 
ENDBRANCH  32  33
ENDBRANCH  30  32
ENDBRANCH  27  28
ENDBRANCH   3  22
TORSDOF 8
