REMARK  Name = ZINC34848263
REMARK  12 active torsions:
REMARK  status: ('A' for Active; 'I' for Inactive)
REMARK    1  A    between atoms: C_1  and  C_2
REMARK    2  A    between atoms: C_2  and  S_3
REMARK    3  A    between atoms: S_3  and  C_4
REMARK    4  A    between atoms: C_10  and  C_12
REMARK    5  A    between atoms: C_12  and  S_13
REMARK    6  A    between atoms: S_13  and  C_14
REMARK    7  A    between atoms: N_16  and  C_23
REMARK    8  A    between atoms: C_23  and  C_24
REMARK    9  A    between atoms: C_24  and  N_25
REMARK   10  A    between atoms: C_26  and  C_28
REMARK   11  A    between atoms: C_31  and  C_35
REMARK   12  A    between atoms: C_32  and  C_34
REMARK                            x       y       z     vdW  Elec       q    Type
REMARK                         _______ _______ _______ _____ _____    ______ ____
ROOT
ATOM      1  C   UNL     1       0.066 -11.353  -0.057  0.00  0.00    +0.034 A 
ATOM      2  C   UNL     1      -1.189 -11.840  -0.062  0.00  0.00    +0.101 A 
ATOM      3  N   UNL     1      -1.154 -13.216  -0.068  0.00  0.00    -0.344 N 
ATOM      4  C   UNL     1       0.153 -13.650  -0.068  0.00  0.00    +0.050 A 
ATOM      5  C   UNL     1       0.973 -12.507  -0.068  0.00  0.00    +0.013 A 
ATOM      6  C   UNL     1       2.362 -12.646  -0.073  0.00  0.00    +0.011 A 
ATOM      7  C   UNL     1       2.919 -13.894  -0.083  0.00  0.00    +0.001 A 
ATOM      8  C   UNL     1       2.114 -15.025  -0.087  0.00  0.00    +0.002 A 
ATOM      9  C   UNL     1       0.741 -14.911  -0.073  0.00  0.00    +0.026 A 
ENDROOT
BRANCH   1  10
ATOM     10  S   UNL     1       0.531  -9.653  -0.048  0.00  0.00    -0.114 S 
BRANCH  10  11
ATOM     11  C   UNL     1      -1.051  -8.765  -0.037  0.00  0.00    +0.170 C 
BRANCH  11  18
ATOM     12  C   UNL     1      -1.508  -2.383   0.004  0.00  0.00    +0.160 A 
ATOM     13  N   UNL     1      -0.406  -3.120  -0.005  0.00  0.00    -0.133 NA
ATOM     14  N   UNL     1      -0.447  -4.380  -0.012  0.00  0.00    -0.125 NA
ATOM     15  C   UNL     1      -1.591  -5.045  -0.012  0.00  0.00    +0.189 A 
ATOM     16  S   UNL     1      -2.746  -3.677   0.009  0.00  0.00    -0.024 S 
ATOM     17  N   UNL     1      -1.829  -6.417  -0.020  0.00  0.00    -0.263 N 
ATOM     18  C   UNL     1      -0.794  -7.281  -0.029  0.00  0.00    +0.229 C 
ATOM     19  O   UNL     1       0.345  -6.862  -0.030  0.00  0.00    -0.275 OA
ATOM     20  H   UNL     1      -2.739  -6.752  -0.019  0.00  0.00    +0.157 HD
BRANCH  12  21
ATOM     21  S   UNL     1      -1.700  -0.632   0.015  0.00  0.00    -0.097 S 
BRANCH  21  23
ATOM     22  C   UNL     1      -0.019   1.526   0.010  0.00  0.00    +0.016 C 
ATOM     23  C   UNL     1       0.002  -0.004   0.002  0.00  0.00    +0.073 C 
ENDBRANCH  21  23
ENDBRANCH  12  21
ENDBRANCH  11  18
ENDBRANCH  10  11
ENDBRANCH   1  10
BRANCH   3  24
ATOM     24  C   UNL     1      -2.330 -14.088  -0.074  0.00  0.00    +0.140 C 
BRANCH  24  25
ATOM     25  C   UNL     1      -2.667 -14.500   1.361  0.00  0.00    +0.126 C 
BRANCH  25  26
ATOM     26  N   UNL     1      -3.844 -15.372   1.355  0.00  0.00    -0.310 N 
ATOM     27  C   UNL     1      -4.327 -15.861   2.515  0.00  0.00    +0.244 C 
ATOM     28  O   UNL     1      -3.786 -15.577   3.566  0.00  0.00    -0.270 OA
ATOM     29  H   UNL     1      -4.276 -15.599   0.516  0.00  0.00    +0.149 HD
BRANCH  27  30
ATOM     30  C   UNL     1      -5.514 -16.741   2.509  0.00  0.00    +0.037 A 
ATOM     31  C   UNL     1      -6.135 -17.073   1.304  0.00  0.00    +0.013 A 
ATOM     32  C   UNL     1      -7.242 -17.896   1.305  0.00  0.00    +0.004 A 
ATOM     33  C   UNL     1      -7.738 -18.391   2.498  0.00  0.00    -0.047 A 
ATOM     34  C   UNL     1      -7.128 -18.065   3.696  0.00  0.00    -0.047 A 
ATOM     35  C   UNL     1      -6.016 -17.248   3.708  0.00  0.00    +0.016 A 
ATOM     36  C   UNL     1      -7.676 -18.609   4.991  0.00  0.00    +0.044 C 
ATOM     37  C   UNL     1      -8.949 -19.288   2.492  0.00  0.00    +0.044 C 
ENDBRANCH  27  30
ENDBRANCH  25  26
ENDBRANCH  24  25
ENDBRANCH   3  24
TORSDOF 9
