REMARK  Name = ZINC28285370
REMARK  10 active torsions:
REMARK  status: ('A' for Active; 'I' for Inactive)
REMARK    1  A    between atoms: C_1  and  C_2
REMARK    2  A    between atoms: C_2  and  C_3
REMARK    3  A    between atoms: C_6  and  N_9
REMARK    4  A    between atoms: C_13  and  N_17
REMARK    5  A    between atoms: N_17  and  C_18
REMARK    6  A    between atoms: C_21  and  N_24
REMARK    7  A    between atoms: N_24  and  C_25
REMARK    8  A    between atoms: N_30  and  C_33
REMARK    9  A    between atoms: C_36  and  C_39
REMARK   10  A    between atoms: C_39  and  C_40
REMARK                            x       y       z     vdW  Elec       q    Type
REMARK                         _______ _______ _______ _____ _____    ______ ____
ROOT
ATOM      1  C   UNL     1       0.886   0.680  -0.212  0.00  0.00    +0.028 A 
ATOM      2  C   UNL     1       2.158   0.179  -0.453  0.00  0.00    +0.025 A 
ATOM      3  C   UNL     1       2.349  -1.181  -0.599  0.00  0.00    +0.025 A 
ATOM      4  C   UNL     1       1.267  -2.047  -0.513  0.00  0.00    +0.028 A 
ATOM      5  C   UNL     1      -0.007  -1.545  -0.277  0.00  0.00    +0.025 A 
ATOM      6  C   UNL     1      -0.197  -0.186  -0.127  0.00  0.00    +0.025 A 
ENDROOT
BRANCH   1   7
ATOM      7  N   UNL     1       0.693   2.058  -0.060  0.00  0.00    -0.333 N 
ATOM      8  H   UNL     1      -0.315   2.455   0.126  0.00  0.00    +0.147 HD
BRANCH   7  13
ATOM      9  N   UNL     1       2.445   4.388   1.594  0.00  0.00    -0.209 N 
ATOM     10  C   UNL     1       1.819   5.203   0.736  0.00  0.00    +0.228 C 
ATOM     11  O   UNL     1       1.646   6.392   0.896  0.00  0.00    -0.275 OA
ATOM     12  C   UNL     1       1.361   4.405  -0.465  0.00  0.00    +0.128 C 
ATOM     13  C   UNL     1       1.835   2.972  -0.149  0.00  0.00    +0.166 C 
ATOM     14  C   UNL     1       2.512   3.111   1.197  0.00  0.00    +0.247 C 
ATOM     15  O   UNL     1       3.032   2.209   1.819  0.00  0.00    -0.273 OA
BRANCH   9  19
ATOM     16  C   UNL     1       4.053   5.718   5.203  0.00  0.00    -0.048 A 
ATOM     17  C   UNL     1       4.615   6.122   4.006  0.00  0.00    +0.005 A 
ATOM     18  C   UNL     1       4.085   5.684   2.809  0.00  0.00    +0.024 A 
ATOM     19  C   UNL     1       2.986   4.835   2.808  0.00  0.00    +0.044 A 
ATOM     20  C   UNL     1       2.420   4.435   4.010  0.00  0.00    +0.024 A 
ATOM     21  C   UNL     1       2.958   4.873   5.205  0.00  0.00    +0.005 A 
BRANCH  16  23
ATOM     22  C   UNL     1       3.949   7.503   6.920  0.00  0.00    +0.009 C 
ATOM     23  C   UNL     1       4.634   6.199   6.508  0.00  0.00    +0.032 C 
ENDBRANCH  16  23
ENDBRANCH   9  19
ENDBRANCH   7  13
ENDBRANCH   1   7
BRANCH   4  24
ATOM     24  N   UNL     1       1.459  -3.425  -0.664  0.00  0.00    -0.333 N 
ATOM     25  H   UNL     1       0.602  -4.111  -0.597  0.00  0.00    +0.147 HD
BRANCH  24  26
ATOM     26  C   UNL     1       2.803  -3.954  -0.913  0.00  0.00    +0.166 C 
ATOM     27  C   UNL     1       2.875  -5.449  -0.541  0.00  0.00    +0.128 C 
ATOM     28  C   UNL     1       3.220  -6.124  -1.851  0.00  0.00    +0.228 C 
ATOM     29  O   UNL     1       3.373  -7.316  -2.008  0.00  0.00    -0.275 OA
ATOM     30  N   UNL     1       3.329  -5.195  -2.809  0.00  0.00    -0.209 N 
ATOM     31  C   UNL     1       3.115  -3.941  -2.393  0.00  0.00    +0.247 C 
ATOM     32  O   UNL     1       3.163  -2.952  -3.092  0.00  0.00    -0.273 OA
BRANCH  30  33
ATOM     33  C   UNL     1       3.642  -5.511  -4.139  0.00  0.00    +0.044 A 
ATOM     34  C   UNL     1       2.691  -5.344  -5.136  0.00  0.00    +0.024 A 
ATOM     35  C   UNL     1       3.004  -5.651  -6.446  0.00  0.00    +0.005 A 
ATOM     36  C   UNL     1       4.260  -6.133  -6.763  0.00  0.00    -0.048 A 
ATOM     37  C   UNL     1       5.208  -6.306  -5.771  0.00  0.00    +0.005 A 
ATOM     38  C   UNL     1       4.903  -5.996  -4.460  0.00  0.00    +0.024 A 
BRANCH  36  39
ATOM     39  C   UNL     1       4.596  -6.473  -8.192  0.00  0.00    +0.032 C 
ATOM     40  C   UNL     1       4.245  -7.937  -8.464  0.00  0.00    +0.009 C 
ENDBRANCH  36  39
ENDBRANCH  30  33
ENDBRANCH  24  26
ENDBRANCH   4  24
TORSDOF 8
