REMARK  Name = ZINC06409065
REMARK  7 active torsions:
REMARK  status: ('A' for Active; 'I' for Inactive)
REMARK    1  A    between atoms: C_1  and  C_2
REMARK    2  A    between atoms: C_9  and  C_14
REMARK    3  A    between atoms: C_14  and  C_16
REMARK    4  A    between atoms: C_14  and  N_66
REMARK    5  A    between atoms: N_20  and  C_21
REMARK    6  A    between atoms: C_27  and  N_66
REMARK    7  A    between atoms: C_28  and  N_66
REMARK                            x       y       z     vdW  Elec       q    Type
REMARK                         _______ _______ _______ _____ _____    ______ ____
ROOT
ATOM      1  C   UNL     1       4.870   1.222  -0.108  0.00  0.00    +0.039 C 
ENDROOT
BRANCH   1  10
ATOM      2  C   UNL     1      -2.043   3.485   1.536  0.00  0.00    +0.044 C 
ATOM      3  C   UNL     1      -0.557   3.732   1.480  0.00  0.00    -0.050 A 
ATOM      4  C   UNL     1      -0.045   4.947   1.915  0.00  0.00    +0.005 A 
ATOM      5  C   UNL     1       1.309   5.197   1.869  0.00  0.00    +0.026 A 
ATOM      6  C   UNL     1       2.174   4.221   1.385  0.00  0.00    +0.049 A 
ATOM      7  C   UNL     1       1.652   2.989   0.948  0.00  0.00    -0.001 A 
ATOM      8  C   UNL     1       0.274   2.758   1.005  0.00  0.00    +0.013 A 
ATOM      9  C   UNL     1       2.571   1.969   0.440  0.00  0.00    +0.017 A 
ATOM     10  C   UNL     1       3.897   2.250   0.409  0.00  0.00    +0.011 A 
ATOM     11  C   UNL     1       4.370   3.501   0.858  0.00  0.00    +0.251 A 
ATOM     12  O   UNL     1       5.566   3.733   0.822  0.00  0.00    -0.268 OA
ATOM     13  N   UNL     1       3.534   4.444   1.326  0.00  0.00    -0.322 N 
ATOM     14  H   UNL     1       3.892   5.294   1.628  0.00  0.00    +0.169 HD
ENDBRANCH   1  10
BRANCH   1  15
ATOM     15  C   UNL     1       5.802   0.808   1.002  0.00  0.00    +0.143 A 
ATOM     16  N   UNL     1       6.845   1.473   1.436  0.00  0.00    -0.115 NA
ATOM     17  N   UNL     1       7.379   0.795   2.393  0.00  0.00    -0.023 NA
ATOM     18  N   UNL     1       6.708  -0.289   2.575  0.00  0.00    -0.044 NA
ATOM     19  N   UNL     1       5.728  -0.317   1.737  0.00  0.00    -0.227 N 
BRANCH  19  20
ATOM     20  C   UNL     1       4.722  -1.374   1.609  0.00  0.00    +0.111 C 
ATOM     21  C   UNL     1       3.963  -1.518   2.929  0.00  0.00    +0.027 C 
ATOM     22  C   UNL     1       2.912  -2.623   2.796  0.00  0.00    +0.002 C 
ATOM     23  C   UNL     1       3.603  -3.946   2.458  0.00  0.00    +0.000 C 
ATOM     24  C   UNL     1       4.363  -3.802   1.138  0.00  0.00    +0.002 C 
ATOM     25  C   UNL     1       5.413  -2.697   1.271  0.00  0.00    +0.027 C 
ENDBRANCH  19  20
ENDBRANCH   1  15
BRANCH   1  27
ATOM     26  C   UNL     1       4.787   2.564  -2.122  0.00  0.00    -0.094 C 
ATOM     27  N   UNL     1       5.669   1.815  -1.202  0.00  0.00    +0.389 N 
ATOM     28  H   UNL     1       6.357   2.461  -0.799  0.00  0.00    -0.080 HD
BRANCH  27  29
ATOM     29  C   UNL     1       6.383   0.752  -1.939  0.00  0.00    -0.068 C 
ATOM     30  C   UNL     1       7.579   0.293  -1.103  0.00  0.00    -0.015 C 
ATOM     31  C   UNL     1       8.343  -0.796  -1.860  0.00  0.00    -0.002 C 
ATOM     32  C   UNL     1       8.839  -0.236  -3.195  0.00  0.00    -0.000 C 
ATOM     33  C   UNL     1       7.643   0.223  -4.031  0.00  0.00    -0.002 C 
ATOM     34  C   UNL     1       6.879   1.311  -3.274  0.00  0.00    -0.015 C 
ENDBRANCH  27  29
ENDBRANCH   1  27
TORSDOF 5
