REMARK  Name = ZINC64020494
REMARK  8 active torsions:
REMARK  status: ('A' for Active; 'I' for Inactive)
REMARK    1  A    between atoms: C_1  and  C_2
REMARK    2  A    between atoms: C_2  and  C_3
REMARK    3  A    between atoms: C_3  and  C_4
REMARK    4  A    between atoms: C_6  and  C_9
REMARK    5  A    between atoms: C_9  and  N_10
REMARK    6  A    between atoms: N_10  and  C_11
REMARK    7  A    between atoms: N_10  and  C_12
REMARK    8  A    between atoms: C_12  and  C_13
REMARK                            x       y       z     vdW  Elec       q    Type
REMARK                         _______ _______ _______ _____ _____    ______ ____
ROOT
ATOM      1  C   UNL     1      -1.377  -5.243  -1.695  0.00  0.00    +0.021 C 
ENDROOT
BRANCH   1   4
ATOM      2  C   UNL     1      -1.413  -2.041   0.005  0.00  0.00    +0.172 A 
ATOM      3  N   UNL     1      -1.407  -2.812  -1.088  0.00  0.00    -0.198 NA
ATOM      4  C   UNL     1      -1.389  -4.071  -0.747  0.00  0.00    +0.211 A 
ATOM      5  O   UNL     1      -1.382  -4.143   0.590  0.00  0.00    -0.340 OA
ATOM      6  N   UNL     1      -1.392  -2.803   1.060  0.00  0.00    -0.061 NA
BRANCH   2   7
ATOM      7  C   UNL     1      -1.433  -0.534   0.013  0.00  0.00    +0.079 C 
BRANCH   7   9
ATOM      8  C   UNL     1      -0.019   1.526   0.010  0.00  0.00    +0.004 C 
ATOM      9  C   UNL     1       0.002  -0.004   0.002  0.00  0.00    +0.004 C 
ENDBRANCH   7   9
ENDBRANCH   2   7
ENDBRANCH   1   4
BRANCH   1  10
ATOM     10  N   UNL     1       0.011  -5.604  -2.009  0.00  0.00    +0.384 N 
ATOM     11  C   UNL     1       0.680  -6.083  -0.792  0.00  0.00    -0.096 C 
ATOM     12  H   UNL     1       0.498  -4.795  -2.364  0.00  0.00    -0.082 HD
BRANCH  10  13
ATOM     13  C   UNL     1       0.023  -6.667  -3.023  0.00  0.00    -0.075 C 
BRANCH  13  14
ATOM     14  C   UNL     1       1.466  -6.957  -3.442  0.00  0.00    -0.028 C 
ATOM     15  C   UNL     1       2.047  -5.750  -4.207  0.00  0.00    +0.002 C 
ATOM     16  C   UNL     1       2.931  -6.388  -5.308  0.00  0.00    +0.000 C 
ATOM     17  C   UNL     1       2.106  -7.629  -5.731  0.00  0.00    +0.000 C 
ATOM     18  C   UNL     1       1.504  -8.152  -4.411  0.00  0.00    +0.002 C 
ENDBRANCH  13  14
ENDBRANCH  10  13
ENDBRANCH   1  10
TORSDOF 6
