REMARK  Name = ZINC67637617
REMARK  6 active torsions:
REMARK  status: ('A' for Active; 'I' for Inactive)
REMARK    1  A    between atoms: C_3  and  C_6
REMARK    2  A    between atoms: C_8  and  C_11
REMARK    3  A    between atoms: C_11  and  O_13
REMARK    4  A    between atoms: O_13  and  C_14
REMARK    5  A    between atoms: C_17  and  O_20
REMARK    6  A    between atoms: O_20  and  C_21
REMARK                            x       y       z     vdW  Elec       q    Type
REMARK                         _______ _______ _______ _____ _____    ______ ____
ROOT
ATOM      1  C   UNL     1       6.976  -3.710   0.001  0.00  0.00    +0.132 A 
ATOM      2  C   UNL     1       8.350  -3.528   0.059  0.00  0.00    +0.050 A 
ATOM      3  C   UNL     1       9.195  -4.616  -0.041  0.00  0.00    +0.049 A 
ATOM      4  C   UNL     1       8.670  -5.890  -0.201  0.00  0.00    +0.122 A 
ATOM      5  C   UNL     1       7.296  -6.071  -0.260  0.00  0.00    +0.049 A 
ATOM      6  C   UNL     1       6.450  -4.984  -0.153  0.00  0.00    +0.050 A 
ENDROOT
BRANCH   1   7
ATOM      7  O   UNL     1       6.144  -2.639   0.099  0.00  0.00    -0.421 OA
BRANCH   7   8
ATOM      8  C   UNL     1       6.018  -1.834  -0.975  0.00  0.00    +0.363 C 
ATOM      9  O   UNL     1       6.706  -2.022  -1.959  0.00  0.00    -0.243 OA
BRANCH   8  12
ATOM     10  C   UNL     1       3.435   0.496   0.085  0.00  0.00    +0.144 A 
ATOM     11  N   UNL     1       4.292  -0.510   0.113  0.00  0.00    -0.229 NA
ATOM     12  C   UNL     1       5.048  -0.727  -0.955  0.00  0.00    +0.156 A 
ATOM     13  C   UNL     1       4.910   0.105  -2.048  0.00  0.00    +0.082 A 
ATOM     14  S   UNL     1       3.708   1.170  -1.544  0.00  0.00    -0.072 S 
BRANCH  10  17
ATOM     15  C   UNL     1       0.931   2.053   2.248  0.00  0.00    +0.042 A 
ATOM     16  C   UNL     1       1.631   1.990   1.028  0.00  0.00    +0.052 A 
ATOM     17  C   UNL     1       2.495   0.942   1.126  0.00  0.00    +0.160 A 
ATOM     18  O   UNL     1       2.339   0.383   2.343  0.00  0.00    -0.461 OA
ATOM     19  C   UNL     1       1.395   1.052   3.023  0.00  0.00    +0.196 A 
ENDBRANCH  10  17
ENDBRANCH   8  12
ENDBRANCH   7   8
ENDBRANCH   1   7
BRANCH   4  20
ATOM     20  O   UNL     1       9.502  -6.960  -0.300  0.00  0.00    -0.480 OA
BRANCH  20  21
ATOM     21  C   UNL     1      10.901  -6.710  -0.152  0.00  0.00    +0.259 C 
ATOM     22  C   UNL     1      11.698  -7.834  -0.820  0.00  0.00    +0.054 C 
ATOM     23  C   UNL     1      10.982  -9.164  -0.667  0.00  0.00    +0.006 C 
ATOM     24  C   UNL     1      10.913  -9.663   0.765  0.00  0.00    +0.019 C 
ATOM     25  C   UNL     1      10.023  -8.755   1.616  0.00  0.00    +0.104 C 
ATOM     26  N   UNL     1      10.841  -7.646   2.134  0.00  0.00    -0.312 N 
ATOM     27  C   UNL     1      11.258  -6.671   1.319  0.00  0.00    +0.254 C 
ATOM     28  O   UNL     1      11.927  -5.758   1.755  0.00  0.00    -0.272 OA
ATOM     29  H   UNL     1      11.077  -7.620   3.075  0.00  0.00    +0.149 HD
ENDBRANCH  20  21
ENDBRANCH   4  20
TORSDOF 6
