REMARK  Name = ZINC49716819
REMARK  2 active torsions:
REMARK  status: ('A' for Active; 'I' for Inactive)
REMARK    1  A    between atoms: C_3  and  N_10
REMARK    2  A    between atoms: C_6  and  C_7
REMARK                            x       y       z     vdW  Elec       q    Type
REMARK                         _______ _______ _______ _____ _____    ______ ____
ROOT
ATOM      1  C   UNL     1      -0.017   1.393   0.010  0.00  0.00    +0.021 A 
ATOM      2  C   UNL     1       1.167   2.097   0.002  0.00  0.00    +0.027 A 
ATOM      3  C   UNL     1       2.381   1.420  -0.013  0.00  0.00    +0.066 A 
ATOM      4  C   UNL     1       2.405   0.026  -0.021  0.00  0.00    +0.146 A 
ATOM      5  C   UNL     1       1.224  -0.684  -0.013  0.00  0.00    +0.059 A 
ATOM      6  C   UNL     1       0.002  -0.004   0.002  0.00  0.00    +0.055 A 
ATOM      7  F   UNL     1       3.587  -0.629  -0.036  0.00  0.00    -0.204 F 
ENDROOT
BRANCH   3   8
ATOM      8  N   UNL     1       3.577   2.136  -0.021  0.00  0.00    -0.324 N 
ATOM      9  C   UNL     1       4.319   2.600  -1.212  0.00  0.00    +0.109 C 
ATOM     10  C   UNL     1       5.584   3.321  -0.651  0.00  0.00    +0.008 C 
ATOM     11  C   UNL     1       5.023   4.640  -0.032  0.00  0.00    +0.007 C 
ATOM     12  C   UNL     1       4.180   4.162   1.173  0.00  0.00    +0.023 C 
ATOM     13  C   UNL     1       4.352   2.587   1.170  0.00  0.00    +0.074 C 
ATOM     14  C   UNL     1       5.826   2.454   0.637  0.00  0.00    +0.027 C 
ENDBRANCH   3   8
BRANCH   6  15
ATOM     15  C   UNL     1      -1.227  -0.738   0.010  0.00  0.00    +0.099 C 
ATOM     16  N   UNL     1      -2.203  -1.321   0.017  0.00  0.00    -0.191 NA
ENDBRANCH   6  15
TORSDOF 2
