REMARK  Name = ZINC13425022
REMARK  4 active torsions:
REMARK  status: ('A' for Active; 'I' for Inactive)
REMARK    1  A    between atoms: C_3  and  C_8
REMARK    2  A    between atoms: C_8  and  O_10
REMARK    3  A    between atoms: O_10  and  C_11
REMARK    4  A    between atoms: C_11  and  C_12
REMARK                            x       y       z     vdW  Elec       q    Type
REMARK                         _______ _______ _______ _____ _____    ______ ____
ROOT
ATOM      1  C   UNL     1      -2.397   1.061   0.019  0.00  0.00    +0.234 C 
ENDROOT
BRANCH   1   2
ATOM      2  C   UNL     1      -3.623   1.976   0.030  0.00  0.00    +0.013 C 
ATOM      3  C   UNL     1      -3.654   2.769   1.338  0.00  0.00    +0.003 C 
ATOM      4  C   UNL     1      -4.910   3.645   1.351  0.00  0.00    -0.018 C 
ATOM      5  C   UNL     1      -6.140   2.747   1.219  0.00  0.00    -0.078 C 
ATOM      6  C   UNL     1      -4.893   1.128  -0.095  0.00  0.00    -0.062 C 
ATOM      7  C   UNL     1      -4.841   0.388  -1.435  0.00  0.00    -0.015 C 
ATOM      8  C   UNL     1      -6.114  -0.439  -1.622  0.00  0.00    -0.003 C 
ATOM      9  C   UNL     1      -7.323   0.500  -1.552  0.00  0.00    -0.019 C 
ATOM     10  C   UNL     1      -7.319   1.211  -0.199  0.00  0.00    -0.078 C 
ATOM     11  N   UNL     1      -6.087   2.010  -0.056  0.00  0.00    +0.382 N 
ATOM     12  H   UNL     1      -6.029   2.681  -0.830  0.00  0.00    -0.081 HD
ENDBRANCH   1   2
BRANCH   1  13
ATOM     13  O   UNL     1      -1.190   1.868   0.018  0.00  0.00    -0.461 OA
BRANCH  13  14
ATOM     14  C   UNL     1      -0.014   1.210   0.009  0.00  0.00    +0.339 C 
ATOM     15  O   UNL     1       0.002  -0.004   0.002  0.00  0.00    -0.245 OA
BRANCH  14  18
ATOM     16  C   UNL     1       3.657   2.000  -0.023  0.00  0.00    +0.002 A 
ATOM     17  C   UNL     1       2.475   1.288  -0.015  0.00  0.00    +0.015 A 
ATOM     18  C   UNL     1       1.255   1.966   0.001  0.00  0.00    +0.060 A 
ATOM     19  C   UNL     1       1.239   3.363   0.002  0.00  0.00    +0.030 A 
ATOM     20  C   UNL     1       2.429   4.063  -0.001  0.00  0.00    +0.019 A 
ATOM     21  C   UNL     1       3.635   3.383  -0.016  0.00  0.00    +0.015 A 
ATOM     22 BR   UNL     1       2.411   5.954   0.008  0.00  0.00    -0.050 Br
ENDBRANCH  14  18
ENDBRANCH  13  14
ENDBRANCH   1  13
TORSDOF 4
