REMARK  Name = ZINC06320918
REMARK  12 active torsions:
REMARK  status: ('A' for Active; 'I' for Inactive)
REMARK    1  A    between atoms: C_1  and  C_2
REMARK    2  A    between atoms: C_6  and  C_15
REMARK    3  A    between atoms: C_13  and  C_14
REMARK    4  A    between atoms: C_15  and  N_68
REMARK    5  A    between atoms: C_16  and  C_17
REMARK    6  A    between atoms: C_16  and  N_68
REMARK    7  A    between atoms: N_21  and  C_22
REMARK    8  A    between atoms: C_22  and  C_23
REMARK    9  A    between atoms: C_26  and  O_29
REMARK   10  A    between atoms: O_29  and  C_30
REMARK   11  A    between atoms: C_31  and  C_32
REMARK   12  A    between atoms: C_31  and  N_68
REMARK                            x       y       z     vdW  Elec       q    Type
REMARK                         _______ _______ _______ _____ _____    ______ ____
ROOT
ATOM      1  N   UNL     1      -8.017  -0.961   1.263  0.00  0.00    +0.389 N 
ATOM      2  H   UNL     1      -8.701  -1.504   1.801  0.00  0.00    -0.081 HD
ENDROOT
BRANCH   1   3
ATOM      3  C   UNL     1      -8.563   0.390   1.016  0.00  0.00    -0.037 C 
BRANCH   3   9
ATOM      4  C   UNL     1      -8.044   4.505   7.214  0.00  0.00    +0.044 C 
ATOM      5  C   UNL     1      -8.818   3.576   6.315  0.00  0.00    -0.047 A 
ATOM      6  C   UNL     1      -8.248   3.124   5.158  0.00  0.00    +0.013 A 
ATOM      7  C   UNL     1      -8.966   2.262   4.323  0.00  0.00    -0.001 A 
ATOM      8  C   UNL     1      -8.385   1.755   3.078  0.00  0.00    +0.017 A 
ATOM      9  C   UNL     1      -9.130   0.926   2.306  0.00  0.00    +0.001 A 
ATOM     10  C   UNL     1     -10.432   0.560   2.708  0.00  0.00    +0.251 A 
ATOM     11  O   UNL     1     -11.083  -0.190   2.001  0.00  0.00    -0.268 OA
ATOM     12  N   UNL     1     -10.973   1.016   3.851  0.00  0.00    -0.322 N 
ATOM     13  H   UNL     1     -11.871   0.745   4.097  0.00  0.00    +0.169 HD
ATOM     14  C   UNL     1     -10.269   1.866   4.678  0.00  0.00    +0.049 A 
ATOM     15  C   UNL     1     -10.828   2.339   5.861  0.00  0.00    +0.030 A 
ATOM     16  C   UNL     1     -10.102   3.188   6.669  0.00  0.00    -0.046 A 
ATOM     17  C   UNL     1     -10.710   3.699   7.950  0.00  0.00    +0.044 C 
ENDBRANCH   3   9
ENDBRANCH   1   3
BRANCH   1  18
ATOM     18  C   UNL     1      -6.763  -0.864   2.040  0.00  0.00    +0.001 C 
BRANCH  18  19
ATOM     19  C   UNL     1      -6.347  -2.249   2.466  0.00  0.00    +0.135 A 
ATOM     20  N   UNL     1      -6.700  -2.869   3.565  0.00  0.00    -0.115 NA
ATOM     21  N   UNL     1      -6.139  -4.029   3.565  0.00  0.00    -0.023 NA
ATOM     22  N   UNL     1      -5.442  -4.167   2.492  0.00  0.00    -0.044 NA
ATOM     23  N   UNL     1      -5.540  -3.088   1.791  0.00  0.00    -0.227 N 
BRANCH  23  24
ATOM     24  C   UNL     1      -4.898  -2.828   0.499  0.00  0.00    +0.182 C 
BRANCH  24  25
ATOM     25  C   UNL     1      -3.550  -2.194   0.727  0.00  0.00    -0.026 A 
ATOM     26  C   UNL     1      -2.427  -2.989   0.864  0.00  0.00    +0.009 A 
ATOM     27  C   UNL     1      -1.191  -2.409   1.072  0.00  0.00    +0.046 A 
ATOM     28  C   UNL     1      -1.076  -1.028   1.144  0.00  0.00    +0.120 A 
ATOM     29  C   UNL     1      -2.205  -0.233   1.012  0.00  0.00    +0.046 A 
ATOM     30  C   UNL     1      -3.439  -0.817   0.798  0.00  0.00    +0.009 A 
BRANCH  28  31
ATOM     31  O   UNL     1       0.139  -0.456   1.349  0.00  0.00    -0.495 OA
ATOM     32  C   UNL     1       0.182   0.971   1.412  0.00  0.00    +0.277 C 
ENDBRANCH  28  31
ENDBRANCH  24  25
ENDBRANCH  23  24
ENDBRANCH  18  19
ENDBRANCH   1  18
BRANCH   1  33
ATOM     33  C   UNL     1      -7.763  -1.645  -0.022  0.00  0.00    -0.046 C 
BRANCH  33  34
ATOM     34  C   UNL     1      -9.103  -2.071  -0.625  0.00  0.00    +0.102 C 
ATOM     35  C   UNL     1      -8.876  -2.933  -1.886  0.00  0.00    +0.032 C 
ATOM     36  C   UNL     1     -10.008  -2.502  -2.845  0.00  0.00    +0.030 C 
ATOM     37  C   UNL     1     -10.786  -1.430  -2.050  0.00  0.00    +0.160 C 
ATOM     38  O   UNL     1      -9.832  -0.916  -1.095  0.00  0.00    -0.378 OA
ENDBRANCH  33  34
ENDBRANCH   1  33
TORSDOF 9
