REMARK  Name = ZINC64002751
REMARK  11 active torsions:
REMARK  status: ('A' for Active; 'I' for Inactive)
REMARK    1  A    between atoms: C_1  and  C_2
REMARK    2  A    between atoms: C_5  and  C_8
REMARK    3  A    between atoms: C_8  and  C_10
REMARK    4  A    between atoms: C_8  and  N_17
REMARK    5  A    between atoms: C_10  and  C_11
REMARK    6  A    between atoms: C_11  and  O_13
REMARK    7  A    between atoms: O_13  and  C_14
REMARK    8  A    between atoms: C_14  and  C_15
REMARK    9  A    between atoms: C_14  and  C_16
REMARK   10  A    between atoms: N_17  and  S_18
REMARK   11  A    between atoms: S_18  and  C_21
REMARK                            x       y       z     vdW  Elec       q    Type
REMARK                         _______ _______ _______ _____ _____    ______ ____
ROOT
ATOM      1  N   UNL     1      -0.609  -4.886   1.140  0.00  0.00    -0.182 NA
ATOM      2  H   UNL     1      -0.239  -4.747   2.026  0.00  0.00    +0.149 HD
ENDROOT
BRANCH   1   3
ATOM      3  S   UNL     1      -2.128  -5.524   0.969  0.00  0.00    +0.059 S 
ATOM      4  O   UNL     1      -2.596  -5.814   2.279  0.00  0.00    -0.153 OA
ATOM      5  O   UNL     1      -2.831  -4.666   0.082  0.00  0.00    -0.153 OA
BRANCH   3   6
ATOM      6  C   UNL     1      -1.954  -7.071   0.143  0.00  0.00    +0.107 A 
ATOM      7  C   UNL     1      -1.903  -7.092  -1.314  0.00  0.00    +0.030 A 
ATOM      8  C   UNL     1      -1.770  -8.242  -2.009  0.00  0.00    +0.027 A 
ATOM      9  C   UNL     1      -1.674  -9.511  -1.291  0.00  0.00    +0.056 A 
ATOM     10  N   UNL     1      -1.543 -10.765  -1.645  0.00  0.00    -0.268 N 
ATOM     11  C   UNL     1      -1.508 -11.536  -0.507  0.00  0.00    +0.308 C 
ATOM     12  O   UNL     1      -1.394 -12.743  -0.485  0.00  0.00    -0.252 OA
ATOM     13  N   UNL     1      -1.621 -10.733   0.604  0.00  0.00    -0.267 N 
ATOM     14  C   UNL     1      -1.726  -9.490   0.206  0.00  0.00    +0.058 A 
ATOM     15  C   UNL     1      -1.866  -8.200   0.879  0.00  0.00    +0.053 A 
ATOM     16  H   UNL     1      -1.623 -11.035   1.525  0.00  0.00    +0.156 HD
ATOM     17  H   UNL     1      -1.481 -11.094  -2.555  0.00  0.00    +0.156 HD
ENDBRANCH   3   6
ENDBRANCH   1   3
BRANCH   1  18
ATOM     18  C   UNL     1       0.174  -4.533  -0.046  0.00  0.00    +0.117 C 
BRANCH  18  23
ATOM     19  C   UNL     1      -0.699   1.030  -1.344  0.00  0.00    +0.044 C 
ATOM     20  C   UNL     1      -0.471  -0.421  -1.005  0.00  0.00    -0.050 A 
ATOM     21  C   UNL     1      -0.388  -1.362  -2.015  0.00  0.00    +0.003 A 
ATOM     22  C   UNL     1      -0.179  -2.692  -1.705  0.00  0.00    +0.005 A 
ATOM     23  C   UNL     1      -0.052  -3.083  -0.385  0.00  0.00    -0.028 A 
ATOM     24  C   UNL     1      -0.134  -2.142   0.625  0.00  0.00    +0.005 A 
ATOM     25  C   UNL     1      -0.339  -0.810   0.314  0.00  0.00    +0.003 A 
ENDBRANCH  18  23
BRANCH  18  26
ATOM     26  C   UNL     1       1.660  -4.765   0.237  0.00  0.00    +0.145 C 
BRANCH  26  27
ATOM     27  C   UNL     1       1.909  -6.237   0.443  0.00  0.00    +0.309 C 
ATOM     28  O   UNL     1       1.016  -7.031   0.266  0.00  0.00    -0.251 OA
BRANCH  27  29
ATOM     29  O   UNL     1       3.123  -6.665   0.823  0.00  0.00    -0.462 OA
BRANCH  29  30
ATOM     30  C   UNL     1       3.259  -8.059   1.108  0.00  0.00    +0.170 C 
ATOM     31  C   UNL     1       3.734  -8.792  -0.148  0.00  0.00    +0.052 C 
ATOM     32  C   UNL     1       4.282  -8.253   2.229  0.00  0.00    +0.052 C 
ENDBRANCH  29  30
ENDBRANCH  27  29
ENDBRANCH  26  27
ENDBRANCH  18  26
ENDBRANCH   1  18
TORSDOF 8
