REMARK  Name = ZINC17920672
REMARK  7 active torsions:
REMARK  status: ('A' for Active; 'I' for Inactive)
REMARK    1  A    between atoms: C_4  and  C_7
REMARK    2  A    between atoms: C_8  and  C_22
REMARK    3  A    between atoms: C_9  and  O_21
REMARK    4  A    between atoms: N_23  and  C_24
REMARK    5  A    between atoms: C_24  and  C_25
REMARK    6  A    between atoms: C_25  and  C_26
REMARK    7  A    between atoms: C_26  and  N_27
REMARK                            x       y       z     vdW  Elec       q    Type
REMARK                         _______ _______ _______ _____ _____    ______ ____
ROOT
ATOM      1  C   UNL     1       3.698  -0.688  -0.037  0.00  0.00    +0.105 A 
ATOM      2  C   UNL     1       3.992  -1.963   0.626  0.00  0.00    +0.080 A 
ATOM      3  C   UNL     1       5.318  -2.255   0.340  0.00  0.00    +0.227 A 
ATOM      4  N   UNL     1       5.801  -1.248  -0.432  0.00  0.00    -0.175 N 
ATOM      5  N   UNL     1       4.793  -0.306  -0.653  0.00  0.00    -0.161 NA
ATOM      6  C   UNL     1       7.096  -1.169  -0.929  0.00  0.00    +0.198 A 
ATOM      7  N   UNL     1       8.090  -2.012  -0.774  0.00  0.00    -0.221 NA
ATOM      8  C   UNL     1       9.308  -1.806  -1.319  0.00  0.00    +0.081 A 
ATOM      9  C   UNL     1      10.455  -2.629  -1.230  0.00  0.00    +0.029 A 
ATOM     10  C   UNL     1      11.624  -2.270  -1.848  0.00  0.00    +0.002 A 
ATOM     11  C   UNL     1      11.726  -1.095  -2.579  0.00  0.00    +0.001 A 
ATOM     12  C   UNL     1      10.624  -0.267  -2.688  0.00  0.00    +0.017 A 
ATOM     13  C   UNL     1       9.449  -0.618  -2.073  0.00  0.00    +0.041 A 
ATOM     14  S   UNL     1       7.830   0.103  -1.947  0.00  0.00    -0.048 S 
ENDROOT
BRANCH   1  18
ATOM     15  C   UNL     1      -0.017   1.379   0.010  0.00  0.00    +0.000 A 
ATOM     16  C   UNL     1       1.169   2.092   0.002  0.00  0.00    +0.001 A 
ATOM     17  C   UNL     1       2.377   1.427  -0.013  0.00  0.00    +0.010 A 
ATOM     18  C   UNL     1       2.402   0.033  -0.021  0.00  0.00    +0.003 A 
ATOM     19  C   UNL     1       1.205  -0.680  -0.013  0.00  0.00    +0.010 A 
ATOM     20  C   UNL     1       0.002  -0.004   0.002  0.00  0.00    +0.001 A 
ENDBRANCH   1  18
BRANCH   2  21
ATOM     21  C   UNL     1       3.068  -2.770   1.432  0.00  0.00    +0.093 C 
ATOM     22  N   UNL     1       3.471  -3.884   1.961  0.00  0.00    -0.389 N 
ATOM     23  H   UNL     1       4.383  -4.184   1.823  0.00  0.00    +0.159 HD
BRANCH  22  24
ATOM     24  C   UNL     1       2.548  -4.689   2.765  0.00  0.00    +0.114 C 
BRANCH  24  25
ATOM     25  C   UNL     1       2.293  -6.025   2.065  0.00  0.00    +0.042 C 
BRANCH  25  26
ATOM     26  C   UNL     1       1.330  -6.866   2.905  0.00  0.00    +0.124 C 
BRANCH  26  27
ATOM     27  N   UNL     1       1.086  -8.145   2.234  0.00  0.00    -0.337 N 
ATOM     28  C   UNL     1       0.100  -8.409   1.323  0.00  0.00    +0.106 A 
ATOM     29  C   UNL     1       0.238  -9.699   0.962  0.00  0.00    +0.130 A 
ATOM     30  N   UNL     1       1.280 -10.209   1.636  0.00  0.00    -0.244 NA
ATOM     31  C   UNL     1       1.796  -9.283   2.396  0.00  0.00    +0.199 A 
ENDBRANCH  26  27
ENDBRANCH  25  26
ENDBRANCH  24  25
ENDBRANCH  22  24
ENDBRANCH   2  21
BRANCH   3  32
ATOM     32  O   UNL     1       6.006  -3.345   0.756  0.00  0.00    -0.492 OA
ATOM     33  H   UNL     1       5.953  -4.097   0.151  0.00  0.00    +0.294 HD
ENDBRANCH   3  32
TORSDOF 7
