REMARK  Name = ZINC39992649
REMARK  12 active torsions:
REMARK  status: ('A' for Active; 'I' for Inactive)
REMARK    1  A    between atoms: C_1  and  C_2
REMARK    2  A    between atoms: C_2  and  N_3
REMARK    3  A    between atoms: N_3  and  C_4
REMARK    4  A    between atoms: N_3  and  C_6
REMARK    5  A    between atoms: C_4  and  C_5
REMARK    6  A    between atoms: C_9  and  C_12
REMARK    7  A    between atoms: C_13  and  C_14
REMARK    8  A    between atoms: C_13  and  C_16
REMARK    9  A    between atoms: N_18  and  C_19
REMARK   10  A    between atoms: C_20  and  C_28
REMARK   11  A    between atoms: N_30  and  C_31
REMARK   12  A    between atoms: C_31  and  C_32
REMARK                            x       y       z     vdW  Elec       q    Type
REMARK                         _______ _______ _______ _____ _____    ______ ____
ROOT
ATOM      1  C   UNL     1      -5.993  -2.048   6.187  0.00  0.00    +0.259 C 
ATOM      2  O   UNL     1      -5.410  -1.838   7.234  0.00  0.00    -0.269 OA
ATOM      3  N   UNL     1      -7.287  -2.422   6.200  0.00  0.00    -0.275 N 
ATOM      4  H   UNL     1      -7.752  -2.590   5.365  0.00  0.00    +0.156 HD
ENDROOT
BRANCH   3   5
ATOM      5  C   UNL     1      -7.955  -2.568   7.405  0.00  0.00    +0.085 A 
ATOM      6  C   UNL     1      -9.272  -2.948   7.609  0.00  0.00    +0.069 A 
ATOM      7  C   UNL     1      -9.735  -3.027   8.983  0.00  0.00    -0.023 A 
ATOM      8  C   UNL     1      -8.796  -2.711   9.902  0.00  0.00    -0.004 A 
ATOM      9  S   UNL     1      -7.351  -2.333   8.954  0.00  0.00    -0.077 S 
ATOM     10  C   UNL     1      -8.963  -2.695  11.390  0.00  0.00    +0.043 C 
ATOM     11  C   UNL     1     -10.465  -2.726  11.707  0.00  0.00    +0.005 C 
ATOM     12  C   UNL     1     -11.125  -3.828  10.874  0.00  0.00    +0.005 C 
ATOM     13  C   UNL     1     -11.144  -3.426   9.398  0.00  0.00    +0.037 C 
BRANCH   6  14
ATOM     14  C   UNL     1     -10.161  -3.257   6.485  0.00  0.00    +0.247 C 
ATOM     15  O   UNL     1     -10.233  -4.396   6.061  0.00  0.00    -0.270 OA
ATOM     16  N   UNL     1     -10.899  -2.280   5.921  0.00  0.00    -0.309 N 
ATOM     17  H   UNL     1     -10.842  -1.373   6.259  0.00  0.00    +0.149 HD
BRANCH  16  18
ATOM     18  C   UNL     1     -11.787  -2.589   4.798  0.00  0.00    +0.136 C 
BRANCH  18  19
ATOM     19  C   UNL     1     -12.504  -1.313   4.349  0.00  0.00    +0.135 C 
ATOM     20  C   UNL     1     -13.531  -1.650   3.246  0.00  0.00    +0.035 C 
ATOM     21  C   UNL     1     -13.382  -0.445   2.278  0.00  0.00    +0.031 C 
ATOM     22  C   UNL     1     -11.868  -0.145   2.412  0.00  0.00    +0.160 C 
ATOM     23  O   UNL     1     -11.556  -0.394   3.794  0.00  0.00    -0.375 OA
ENDBRANCH  18  19
ENDBRANCH  16  18
ENDBRANCH   6  14
ENDBRANCH   3   5
BRANCH   1  25
ATOM     24  C   UNL     1      -3.960  -1.509   4.895  0.00  0.00    +0.032 C 
ATOM     25  C   UNL     1      -5.285  -1.893   4.908  0.00  0.00    +0.114 C 
BRANCH  24  29
ATOM     26  C   UNL     1      -2.044  -0.645   1.228  0.00  0.00    +0.030 A 
ATOM     27  C   UNL     1      -3.414  -0.429   1.364  0.00  0.00    +0.024 A 
ATOM     28  C   UNL     1      -4.038  -0.707   2.546  0.00  0.00    +0.010 A 
ATOM     29  C   UNL     1      -3.297  -1.211   3.626  0.00  0.00    -0.024 A 
ATOM     30  C   UNL     1      -1.918  -1.427   3.484  0.00  0.00    +0.010 A 
ATOM     31  C   UNL     1      -1.305  -1.151   2.296  0.00  0.00    +0.024 A 
BRANCH  26  32
ATOM     32  N   UNL     1      -1.415  -0.362   0.023  0.00  0.00    -0.330 N 
BRANCH  32  34
ATOM     33  C   UNL     1      -2.723  -0.989  -1.946  0.00  0.00    +0.024 C 
ATOM     34  C   UNL     1      -2.190   0.170  -1.101  0.00  0.00    +0.102 C 
ENDBRANCH  32  34
BRANCH  32  35
ATOM     35  C   UNL     1       0.024  -0.593  -0.124  0.00  0.00    +0.102 C 
ATOM     36  C   UNL     1       0.788   0.670   0.278  0.00  0.00    +0.024 C 
ENDBRANCH  32  35
ENDBRANCH  26  32
ENDBRANCH  24  29
BRANCH  25  37
ATOM     37  C   UNL     1      -5.970  -2.140   3.675  0.00  0.00    +0.104 C 
ATOM     38  N   UNL     1      -6.514  -2.336   2.698  0.00  0.00    -0.191 NA
ENDBRANCH  25  37
ENDBRANCH   1  25
TORSDOF 10
