REMARK  Name = ZINC45513079
REMARK  4 active torsions:
REMARK  status: ('A' for Active; 'I' for Inactive)
REMARK    1  A    between atoms: C_1  and  C_2
REMARK    2  A    between atoms: C_7  and  C_13
REMARK    3  A    between atoms: C_13  and  N_14
REMARK    4  A    between atoms: C_17  and  N_20
REMARK                            x       y       z     vdW  Elec       q    Type
REMARK                         _______ _______ _______ _____ _____    ______ ____
ROOT
ATOM      1  N   UNL     1      -1.157  -6.768   0.523  0.00  0.00    +0.383 N 
ATOM      2  C   UNL     1      -2.282  -6.405   1.393  0.00  0.00    -0.076 C 
ATOM      3  C   UNL     1      -3.596  -6.846   0.744  0.00  0.00    +0.006 C 
ATOM      4  C   UNL     1      -3.574  -8.364   0.540  0.00  0.00    +0.089 C 
ATOM      5  C   UNL     1      -2.354  -8.739  -0.306  0.00  0.00    +0.006 C 
ATOM      6  C   UNL     1      -1.087  -8.227   0.381  0.00  0.00    -0.076 C 
ATOM      7  H   UNL     1      -1.288  -6.349  -0.386  0.00  0.00    -0.081 HD
ENDROOT
BRANCH   4   8
ATOM      8  N   UNL     1      -4.797  -8.784  -0.150  0.00  0.00    -0.289 N 
ATOM      9  C   UNL     1      -5.749  -9.671   0.346  0.00  0.00    +0.070 A 
ATOM     10  C   UNL     1      -5.859 -10.385   1.530  0.00  0.00    +0.028 A 
ATOM     11  C   UNL     1      -6.949 -11.207   1.738  0.00  0.00    +0.002 A 
ATOM     12  C   UNL     1      -7.933 -11.320   0.770  0.00  0.00    +0.002 A 
ATOM     13  C   UNL     1      -7.832 -10.613  -0.412  0.00  0.00    +0.028 A 
ATOM     14  C   UNL     1      -6.741  -9.786  -0.630  0.00  0.00    +0.067 A 
ATOM     15  N   UNL     1      -6.361  -8.964  -1.688  0.00  0.00    -0.306 N 
ATOM     16  H   UNL     1      -6.854  -8.836  -2.514  0.00  0.00    +0.170 HD
ATOM     17  C   UNL     1      -5.194  -8.372  -1.368  0.00  0.00    +0.328 A 
ATOM     18  O   UNL     1      -4.589  -7.588  -2.075  0.00  0.00    -0.247 OA
ENDBRANCH   4   8
BRANCH   1  19
ATOM     19  C   UNL     1       0.095  -6.274   1.112  0.00  0.00    -0.022 C 
BRANCH  19  26
ATOM     20  C   UNL     1      -0.018   1.503   0.010  0.00  0.00    +0.045 C 
ATOM     21  C   UNL     1       0.002  -0.004   0.002  0.00  0.00    -0.034 A 
ATOM     22  C   UNL     1       0.006  -0.697  -1.217  0.00  0.00    +0.008 A 
ATOM     23  C   UNL     1       0.025  -2.059  -1.216  0.00  0.00    +0.047 A 
ATOM     24  C   UNL     1       0.040  -2.750   0.010  0.00  0.00    +0.140 A 
ATOM     25  N   UNL     1       0.059  -4.082   0.013  0.00  0.00    -0.236 NA
ATOM     26  C   UNL     1       0.074  -4.768   1.145  0.00  0.00    +0.032 A 
ATOM     27  C   UNL     1       0.071  -4.104   2.356  0.00  0.00    +0.092 A 
ATOM     28  C   UNL     1       0.051  -2.704   2.361  0.00  0.00    +0.258 A 
ATOM     29  O   UNL     1       0.048  -2.088   3.415  0.00  0.00    -0.267 OA
ATOM     30  N   UNL     1       0.037  -2.046   1.182  0.00  0.00    -0.268 N 
ATOM     31  C   UNL     1       0.022  -0.685   1.170  0.00  0.00    +0.099 A 
ENDBRANCH  19  26
ENDBRANCH   1  19
TORSDOF 3
