REMARK  Name = ZINC20882055
REMARK  10 active torsions:
REMARK  status: ('A' for Active; 'I' for Inactive)
REMARK    1  A    between atoms: C_1  and  C_2
REMARK    2  A    between atoms: C_2  and  C_3
REMARK    3  A    between atoms: C_2  and  O_4
REMARK    4  A    between atoms: O_4  and  C_5
REMARK    5  A    between atoms: C_8  and  C_13
REMARK    6  A    between atoms: C_10  and  O_11
REMARK    7  A    between atoms: O_11  and  C_12
REMARK    8  A    between atoms: C_18  and  C_24
REMARK    9  A    between atoms: C_29  and  O_30
REMARK   10  A    between atoms: O_30  and  C_31
REMARK                            x       y       z     vdW  Elec       q    Type
REMARK                         _______ _______ _______ _____ _____    ______ ____
ROOT
ATOM      1  C   UNL     1       1.148   3.596   0.009  0.00  0.00    +0.032 C 
ATOM      2  C   UNL     1       1.609   4.123  -1.352  0.00  0.00    +0.059 C 
ATOM      3  C   UNL     1       1.635   5.631  -1.328  0.00  0.00    +0.018 C 
ATOM      4  C   UNL     1       1.893   6.301  -0.185  0.00  0.00    +0.020 C 
ATOM      5  C   UNL     1       1.919   7.811  -0.187  0.00  0.00    +0.066 C 
ATOM      6  C   UNL     1       0.871   8.336  -1.170  0.00  0.00    +0.109 C 
ATOM      7  C   UNL     1       1.011   7.602  -2.478  0.00  0.00    +0.218 C 
ATOM      8  O   UNL     1       0.780   8.177  -3.521  0.00  0.00    -0.275 OA
ATOM      9  N   UNL     1       1.391   6.313  -2.493  0.00  0.00    -0.289 N 
ATOM     10  C   UNL     1       2.138   5.622   1.021  0.00  0.00    +0.162 C 
ATOM     11  O   UNL     1       2.381   6.259   2.026  0.00  0.00    -0.292 OA
ATOM     12  C   UNL     1       2.105   4.119   1.085  0.00  0.00    +0.088 C 
ATOM     13  H   UNL     1       1.505   5.805  -3.462  0.00  0.00    +0.155 HD
ENDROOT
BRANCH   5  14
ATOM     14  C   UNL     1       3.285   8.290  -0.606  0.00  0.00    +0.003 A 
ATOM     15  C   UNL     1       3.791   7.941  -1.843  0.00  0.00    +0.023 A 
ATOM     16  C   UNL     1       5.043   8.384  -2.230  0.00  0.00    +0.018 A 
ATOM     17  C   UNL     1       5.796   9.169  -1.375  0.00  0.00    +0.019 A 
ATOM     18  C   UNL     1       5.296   9.516  -0.135  0.00  0.00    +0.047 A 
ATOM     19  C   UNL     1       4.038   9.077   0.253  0.00  0.00    +0.124 A 
ATOM     20 BR   UNL     1       5.729   7.910  -3.927  0.00  0.00    -0.050 Br
BRANCH  19  21
ATOM     21  O   UNL     1       3.545   9.417   1.473  0.00  0.00    -0.495 OA
ATOM     22  C   UNL     1       4.375  10.230   2.305  0.00  0.00    +0.277 C 
ENDBRANCH  19  21
ENDBRANCH   5  14
BRANCH   1  26
ATOM     23  C   UNL     1       1.218  -0.680  -0.013  0.00  0.00    +0.162 A 
ATOM     24  C   UNL     1       2.383   0.036  -0.239  0.00  0.00    +0.050 A 
ATOM     25  C   UNL     1       2.357   1.418  -0.231  0.00  0.00    +0.008 A 
ATOM     26  C   UNL     1       1.171   2.089   0.002  0.00  0.00    -0.040 A 
ATOM     27  C   UNL     1       0.005   1.381   0.228  0.00  0.00    +0.053 A 
ATOM     28  C   UNL     1       0.024  -0.005   0.221  0.00  0.00    +0.162 A 
BRANCH  28  29
ATOM     29  O   UNL     1      -1.121  -0.703   0.444  0.00  0.00    -0.491 OA
ATOM     30  C   UNL     1      -2.309   0.056   0.678  0.00  0.00    +0.277 C 
ENDBRANCH  28  29
BRANCH  23  31
ATOM     31  O   UNL     1       1.242  -2.040  -0.021  0.00  0.00    -0.486 OA
BRANCH  31  33
ATOM     32  C   UNL     1       2.465  -4.067   0.464  0.00  0.00    +0.051 C 
ATOM     33  C   UNL     1       2.520  -2.666  -0.148  0.00  0.00    +0.167 C 
ATOM     34  C   UNL     1       2.892  -2.770  -1.629  0.00  0.00    +0.051 C 
ENDBRANCH  31  33
ENDBRANCH  23  31
ENDBRANCH   1  26
TORSDOF 6
