REMARK  Name = ZINC36595248
REMARK  10 active torsions:
REMARK  status: ('A' for Active; 'I' for Inactive)
REMARK    1  A    between atoms: C_1  and  C_2
REMARK    2  A    between atoms: C_5  and  C_7
REMARK    3  A    between atoms: C_7  and  N_8
REMARK    4  A    between atoms: N_8  and  C_9
REMARK    5  A    between atoms: C_9  and  C_11
REMARK    6  A    between atoms: C_9  and  C_18
REMARK    7  A    between atoms: C_15  and  O_17
REMARK    8  A    between atoms: N_20  and  C_21
REMARK    9  A    between atoms: C_27  and  C_29
REMARK   10  A    between atoms: C_34  and  O_35
REMARK                            x       y       z     vdW  Elec       q    Type
REMARK                         _______ _______ _______ _____ _____    ______ ____
ROOT
ATOM      1  C   UNL     1       3.861  -3.631  -0.691  0.00  0.00    +0.193 C 
ENDROOT
BRANCH   1   2
ATOM      2  C   UNL     1       4.084  -3.022  -2.051  0.00  0.00    -0.015 A 
ATOM      3  C   UNL     1       3.196  -3.283  -3.079  0.00  0.00    +0.006 A 
ATOM      4  C   UNL     1       3.398  -2.725  -4.327  0.00  0.00    +0.004 A 
ATOM      5  C   UNL     1       4.487  -1.905  -4.551  0.00  0.00    +0.045 A 
ATOM      6  C   UNL     1       5.378  -1.641  -3.522  0.00  0.00    +0.117 A 
ATOM      7  C   UNL     1       5.170  -2.197  -2.268  0.00  0.00    +0.051 A 
BRANCH   6   8
ATOM      8  O   UNL     1       6.450  -0.834  -3.740  0.00  0.00    -0.507 OA
ATOM      9  H   UNL     1       6.279   0.102  -3.567  0.00  0.00    +0.292 HD
ENDBRANCH   6   8
ENDBRANCH   1   2
BRANCH   1  10
ATOM     10  C   UNL     1       5.177  -4.112  -0.135  0.00  0.00    +0.238 C 
ATOM     11  O   UNL     1       5.510  -5.269  -0.280  0.00  0.00    -0.273 OA
ATOM     12  N   UNL     1       5.983  -3.257   0.525  0.00  0.00    -0.311 N 
ATOM     13  H   UNL     1       5.716  -2.331   0.641  0.00  0.00    +0.149 HD
BRANCH  12  14
ATOM     14  C   UNL     1       7.261  -3.724   1.065  0.00  0.00    +0.073 C 
ATOM     15  C   UNL     1       7.035  -4.344   2.446  0.00  0.00    +0.022 C 
ATOM     16  C   UNL     1       8.371  -4.832   3.010  0.00  0.00    +0.002 C 
ATOM     17  C   UNL     1       9.335  -3.651   3.134  0.00  0.00    +0.000 C 
ATOM     18  C   UNL     1       9.561  -3.030   1.754  0.00  0.00    +0.002 C 
ATOM     19  C   UNL     1       8.225  -2.542   1.189  0.00  0.00    +0.022 C 
ENDBRANCH  12  14
ENDBRANCH   1  10
BRANCH   1  20
ATOM     20  N   UNL     1       2.938  -4.763  -0.808  0.00  0.00    -0.275 N 
ATOM     21  C   UNL     1       1.776  -4.758  -0.125  0.00  0.00    +0.251 C 
ATOM     22  O   UNL     1       0.966  -5.649  -0.296  0.00  0.00    -0.270 OA
BRANCH  21  23
ATOM     23  C   UNL     1       1.487  -3.672   0.831  0.00  0.00    +0.078 A 
ATOM     24  C   UNL     1       1.560  -2.338   0.422  0.00  0.00    +0.017 A 
ATOM     25  C   UNL     1       1.288  -1.329   1.320  0.00  0.00    +0.001 A 
ATOM     26  C   UNL     1       0.942  -1.630   2.627  0.00  0.00    +0.004 A 
ATOM     27  C   UNL     1       0.866  -2.944   3.044  0.00  0.00    +0.046 A 
ATOM     28  C   UNL     1       1.131  -3.973   2.153  0.00  0.00    +0.129 A 
BRANCH  28  29
ATOM     29  O   UNL     1       1.052  -5.264   2.560  0.00  0.00    -0.506 OA
ATOM     30  H   UNL     1       1.880  -5.618   2.912  0.00  0.00    +0.292 HD
ENDBRANCH  28  29
ENDBRANCH  21  23
BRANCH  20  31
ATOM     31  C   UNL     1       3.277  -5.899  -1.668  0.00  0.00    +0.183 C 
BRANCH  31  36
ATOM     32  C   UNL     1       4.806  -9.599   1.401  0.00  0.00    +0.086 C 
ATOM     33  C   UNL     1       3.940  -8.775   0.483  0.00  0.00    +0.102 A 
ATOM     34  C   UNL     1       2.681  -9.070   0.113  0.00  0.00    +0.045 A 
ATOM     35  C   UNL     1       2.253  -8.033  -0.747  0.00  0.00    +0.046 A 
ATOM     36  C   UNL     1       3.275  -7.166  -0.851  0.00  0.00    +0.122 A 
ATOM     37  O   UNL     1       4.293  -7.617  -0.099  0.00  0.00    -0.463 OA
ENDBRANCH  31  36
ENDBRANCH  20  31
ENDBRANCH   1  20
TORSDOF 9
