REMARK  Name = ZINC19342336
REMARK  6 active torsions:
REMARK  status: ('A' for Active; 'I' for Inactive)
REMARK    1  A    between atoms: C_3  and  C_6
REMARK    2  A    between atoms: C_6  and  N_7
REMARK    3  A    between atoms: N_10  and  C_13
REMARK    4  A    between atoms: C_13  and  C_15
REMARK    5  A    between atoms: C_13  and  C_20
REMARK    6  A    between atoms: N_24  and  C_25
REMARK                            x       y       z     vdW  Elec       q    Type
REMARK                         _______ _______ _______ _____ _____    ______ ____
ROOT
ATOM      1  C   UNL     1       6.194  -0.605   4.818  0.00  0.00    +0.164 C 
ENDROOT
BRANCH   1   5
ATOM      2  N   UNL     1       3.629  -1.850   1.698  0.00  0.00    +0.386 N 
ATOM      3  C   UNL     1       5.075  -1.846   1.442  0.00  0.00    -0.063 C 
ATOM      4  C   UNL     1       5.829  -1.852   2.775  0.00  0.00    +0.067 C 
ATOM      5  N   UNL     1       5.448  -0.665   3.554  0.00  0.00    -0.292 NA
ATOM      6  C   UNL     1       3.999  -0.643   3.796  0.00  0.00    +0.067 C 
ATOM      7  C   UNL     1       3.260  -0.647   2.456  0.00  0.00    -0.063 C 
ATOM      8  H   UNL     1       3.384  -2.671   2.231  0.00  0.00    -0.081 HD
BRANCH   2   9
ATOM      9  C   UNL     1       2.906  -1.863   0.419  0.00  0.00    -0.003 C 
BRANCH   9  12
ATOM     10  C   UNL     1       3.089  -5.242  -1.041  0.00  0.00    +0.041 A 
ATOM     11  C   UNL     1       2.477  -4.290  -0.193  0.00  0.00    +0.042 A 
ATOM     12  C   UNL     1       3.188  -3.154  -0.305  0.00  0.00    +0.089 A 
ATOM     13  O   UNL     1       4.193  -3.366  -1.171  0.00  0.00    -0.470 OA
ATOM     14  C   UNL     1       4.137  -4.630  -1.621  0.00  0.00    +0.195 A 
ENDBRANCH   9  12
ENDBRANCH   2   9
ENDBRANCH   1   5
BRANCH   1  15
ATOM     15  C   UNL     1       5.822   0.652   5.561  0.00  0.00    +0.014 A 
ATOM     16  C   UNL     1       5.511   0.809   6.872  0.00  0.00    +0.013 A 
ATOM     17  C   UNL     1       5.199   2.072   7.340  0.00  0.00    +0.008 A 
ATOM     18  C   UNL     1       5.212   3.115   6.475  0.00  0.00    +0.045 A 
ATOM     19  S   UNL     1       5.683   2.323   4.947  0.00  0.00    -0.100 S 
ENDBRANCH   1  15
BRANCH   1  20
ATOM     20  C   UNL     1       7.673  -0.598   4.529  0.00  0.00    +0.174 A 
ATOM     21  N   UNL     1       8.290   0.121   3.623  0.00  0.00    -0.111 NA
ATOM     22  N   UNL     1       9.547  -0.154   3.686  0.00  0.00    -0.023 NA
ATOM     23  N   UNL     1       9.748  -1.030   4.608  0.00  0.00    -0.044 NA
ATOM     24  N   UNL     1       8.617  -1.325   5.154  0.00  0.00    -0.224 N 
BRANCH  24  25
ATOM     25  C   UNL     1       8.402  -2.276   6.248  0.00  0.00    +0.111 C 
ATOM     26  C   UNL     1       9.249  -1.873   7.473  0.00  0.00    +0.027 C 
ATOM     27  C   UNL     1       9.714  -3.223   8.073  0.00  0.00    +0.002 C 
ATOM     28  C   UNL     1       9.993  -4.080   6.812  0.00  0.00    +0.002 C 
ATOM     29  C   UNL     1       8.875  -3.679   5.828  0.00  0.00    +0.027 C 
ENDBRANCH  24  25
ENDBRANCH   1  20
TORSDOF 6
