REMARK  Name = ZINC60354714
REMARK  8 active torsions:
REMARK  status: ('A' for Active; 'I' for Inactive)
REMARK    1  A    between atoms: C_1  and  C_2
REMARK    2  A    between atoms: C_7  and  C_8
REMARK    3  A    between atoms: C_8  and  C_9
REMARK    4  A    between atoms: C_8  and  C_10
REMARK    5  A    between atoms: C_8  and  C_11
REMARK    6  A    between atoms: C_11  and  N_12
REMARK    7  A    between atoms: C_13  and  C_15
REMARK    8  A    between atoms: C_15  and  C_16
REMARK                            x       y       z     vdW  Elec       q    Type
REMARK                         _______ _______ _______ _____ _____    ______ ____
ROOT
ATOM      1  N   UNL     1       0.370  -0.601   4.847  0.00  0.00    -0.314 N 
ATOM      2  C   UNL     1       0.467  -1.452   5.887  0.00  0.00    +0.215 C 
ATOM      3  O   UNL     1       0.545  -2.646   5.689  0.00  0.00    -0.276 OA
ATOM      4  H   UNL     1       0.307   0.354   5.006  0.00  0.00    +0.149 HD
ENDROOT
BRANCH   1   5
ATOM      5  C   UNL     1       0.360  -1.117   3.476  0.00  0.00    +0.115 C 
BRANCH   5   6
ATOM      6  C   UNL     1       0.243   0.049   2.492  0.00  0.00    +0.006 C 
ATOM      7  C   UNL     1       1.435   0.990   2.674  0.00  0.00    +0.017 C 
ATOM      8  C   UNL     1      -1.055   0.813   2.759  0.00  0.00    +0.017 C 
BRANCH   6  15
ATOM      9  C   UNL     1       0.345   1.878   0.258  0.00  0.00    +0.044 C 
ATOM     10  C   UNL     1       0.282   0.392   0.013  0.00  0.00    -0.047 A 
ATOM     11  C   UNL     1       0.278  -0.096  -1.280  0.00  0.00    +0.003 A 
ATOM     12  C   UNL     1       0.219  -1.458  -1.505  0.00  0.00    +0.000 A 
ATOM     13  C   UNL     1       0.165  -2.333  -0.436  0.00  0.00    +0.000 A 
ATOM     14  C   UNL     1       0.170  -1.846   0.858  0.00  0.00    +0.004 A 
ATOM     15  C   UNL     1       0.233  -0.483   1.082  0.00  0.00    -0.037 A 
ENDBRANCH   6  15
ENDBRANCH   5   6
ENDBRANCH   1   5
BRANCH   2  16
ATOM     16  C   UNL     1       0.477  -0.920   7.297  0.00  0.00    +0.119 C 
BRANCH  16  17
ATOM     17  C   UNL     1       0.594  -2.086   8.281  0.00  0.00    +0.146 C 
ATOM     18  C   UNL     1       0.491  -1.570   9.693  0.00  0.00    +0.231 C 
ATOM     19  O   UNL     1      -0.579  -1.646  10.259  0.00  0.00    -0.274 OA
ATOM     20  N   UNL     1       1.517  -1.035  10.348  0.00  0.00    -0.284 N 
ATOM     21  C   UNL     1       2.837  -0.969   9.913  0.00  0.00    +0.048 A 
ATOM     22  C   UNL     1       3.714  -0.088  10.539  0.00  0.00    +0.044 A 
ATOM     23  C   UNL     1       5.027   0.003  10.119  0.00  0.00    +0.043 A 
ATOM     24  C   UNL     1       5.484  -0.777   9.072  0.00  0.00    +0.021 A 
ATOM     25  C   UNL     1       4.624  -1.658   8.443  0.00  0.00    +0.018 A 
ATOM     26  C   UNL     1       3.308  -1.757   8.864  0.00  0.00    +0.030 A 
ATOM     27  S   UNL     1       2.208  -2.900   8.076  0.00  0.00    -0.110 S 
ATOM     28 CL   UNL     1       6.110   1.105  10.910  0.00  0.00    -0.083 Cl
ATOM     29  H   UNL     1       1.325  -0.652  11.218  0.00  0.00    +0.155 HD
ENDBRANCH  16  17
ENDBRANCH   2  16
TORSDOF 5
