REMARK  Name = ZINC35746345
REMARK  13 active torsions:
REMARK  status: ('A' for Active; 'I' for Inactive)
REMARK    1  A    between atoms: C_1  and  C_2
REMARK    2  A    between atoms: C_2  and  C_3
REMARK    3  A    between atoms: C_2  and  C_4
REMARK    4  A    between atoms: C_4  and  O_5
REMARK    5  A    between atoms: O_5  and  C_6
REMARK    6  A    between atoms: C_6  and  C_7
REMARK    7  A    between atoms: C_7  and  C_9
REMARK    8  A    between atoms: C_7  and  O_36
REMARK    9  A    between atoms: C_9  and  N_10
REMARK   10  A    between atoms: N_10  and  C_11
REMARK   11  A    between atoms: N_10  and  C_30
REMARK   12  A    between atoms: C_11  and  C_12
REMARK   13  A    between atoms: C_18  and  C_23
REMARK                            x       y       z     vdW  Elec       q    Type
REMARK                         _______ _______ _______ _____ _____    ______ ____
ROOT
ATOM      1  C   UNL     1      -4.859  -6.649  -1.572  0.00  0.00    -0.003 C 
ENDROOT
BRANCH   1   2
ATOM      2  C   UNL     1      -4.357  -7.587  -2.639  0.00  0.00    +0.094 A 
ATOM      3  N   UNL     1      -5.195  -7.976  -3.634  0.00  0.00    -0.312 N 
ATOM      4  H   UNL     1      -6.106  -7.645  -3.645  0.00  0.00    +0.170 HD
ATOM      5  C   UNL     1      -4.785  -8.812  -4.606  0.00  0.00    +0.260 A 
ATOM      6  O   UNL     1      -5.550  -9.152  -5.493  0.00  0.00    -0.267 OA
ATOM      7  C   UNL     1      -3.438  -9.296  -4.583  0.00  0.00    +0.080 A 
ATOM      8  C   UNL     1      -2.766 -10.197  -5.511  0.00  0.00    +0.004 A 
ATOM      9  C   UNL     1      -1.469 -10.518  -5.284  0.00  0.00    +0.056 A 
ATOM     10  S   UNL     1      -1.076  -9.618  -3.796  0.00  0.00    -0.076 S 
ATOM     11  C   UNL     1      -2.646  -8.840  -3.517  0.00  0.00    +0.116 A 
ATOM     12  N   UNL     1      -3.121  -8.007  -2.594  0.00  0.00    -0.229 NA
BRANCH   8  13
ATOM     13  C   UNL     1      -3.487 -10.753  -6.681  0.00  0.00    -0.015 A 
ATOM     14  C   UNL     1      -4.737 -11.348  -6.514  0.00  0.00    +0.008 A 
ATOM     15  C   UNL     1      -5.404 -11.864  -7.606  0.00  0.00    +0.002 A 
ATOM     16  C   UNL     1      -4.836 -11.792  -8.865  0.00  0.00    +0.020 A 
ATOM     17  C   UNL     1      -3.596 -11.203  -9.037  0.00  0.00    +0.042 A 
ATOM     18  C   UNL     1      -2.921 -10.677  -7.952  0.00  0.00    +0.028 A 
ATOM     19 CL   UNL     1      -2.889 -11.117 -10.621  0.00  0.00    -0.084 Cl
ENDBRANCH   8  13
ENDBRANCH   1   2
BRANCH   1  20
ATOM     20  N   UNL     1      -3.841  -6.511  -0.522  0.00  0.00    +0.388 N 
ATOM     21  H   UNL     1      -2.924  -6.491  -0.944  0.00  0.00    -0.081 HD
BRANCH  20  22
ATOM     22  C   UNL     1      -3.931  -7.650   0.401  0.00  0.00    -0.068 C 
ATOM     23  C   UNL     1      -3.754  -8.954  -0.380  0.00  0.00    -0.015 C 
ATOM     24  C   UNL     1      -3.848 -10.141   0.582  0.00  0.00    -0.002 C 
ATOM     25  C   UNL     1      -5.217 -10.137   1.265  0.00  0.00    -0.000 C 
ATOM     26  C   UNL     1      -5.394  -8.833   2.045  0.00  0.00    -0.002 C 
ATOM     27  C   UNL     1      -5.300  -7.646   1.083  0.00  0.00    -0.015 C 
ENDBRANCH  20  22
BRANCH  20  28
ATOM     28  C   UNL     1      -4.067  -5.262   0.217  0.00  0.00    -0.044 C 
BRANCH  28  29
ATOM     29  C   UNL     1      -2.914  -5.034   1.197  0.00  0.00    +0.124 C 
BRANCH  29  30
ATOM     30  O   UNL     1      -2.967  -6.018   2.232  0.00  0.00    -0.391 OA
ATOM     31  H   UNL     1      -3.812  -6.051   2.701  0.00  0.00    +0.210 HD
ENDBRANCH  29  30
BRANCH  29  32
ATOM     32  C   UNL     1      -3.036  -3.639   1.813  0.00  0.00    +0.189 C 
BRANCH  32  33
ATOM     33  O   UNL     1      -1.898  -3.381   2.638  0.00  0.00    -0.377 OA
BRANCH  33  34
ATOM     34  C   UNL     1      -1.914  -2.096   3.264  0.00  0.00    +0.163 C 
BRANCH  34  36
ATOM     35  C   UNL     1      -0.609  -0.511   4.688  0.00  0.00    +0.009 C 
ATOM     36  C   UNL     1      -0.655  -1.930   4.118  0.00  0.00    +0.009 C 
ATOM     37  C   UNL     1      -0.680  -2.941   5.266  0.00  0.00    +0.009 C 
ENDBRANCH  34  36
ENDBRANCH  33  34
ENDBRANCH  32  33
ENDBRANCH  29  32
ENDBRANCH  28  29
ENDBRANCH  20  28
ENDBRANCH   1  20
TORSDOF 11
