REMARK  Name = ZINC17286800
REMARK  10 active torsions:
REMARK  status: ('A' for Active; 'I' for Inactive)
REMARK    1  A    between atoms: C_1  and  C_2
REMARK    2  A    between atoms: C_3  and  N_9
REMARK    3  A    between atoms: C_10  and  C_12
REMARK    4  A    between atoms: C_12  and  N_13
REMARK    5  A    between atoms: C_14  and  C_16
REMARK    6  A    between atoms: C_16  and  N_51
REMARK    7  A    between atoms: C_17  and  N_51
REMARK    8  A    between atoms: C_18  and  C_19
REMARK    9  A    between atoms: C_18  and  N_51
REMARK   10  A    between atoms: N_21  and  C_22
REMARK                            x       y       z     vdW  Elec       q    Type
REMARK                         _______ _______ _______ _____ _____    ______ ____
ROOT
ATOM      1  N   UNL     1      -2.366   5.505  -2.466  0.00  0.00    -0.308 N 
ATOM      2  C   UNL     1      -2.414   6.852  -2.430  0.00  0.00    +0.197 C 
ATOM      3  O   UNL     1      -1.512   7.503  -2.914  0.00  0.00    -0.278 OA
ATOM      4  H   UNL     1      -3.087   4.984  -2.080  0.00  0.00    +0.149 HD
ENDROOT
BRANCH   1   5
ATOM      5  C   UNL     1      -1.226   4.829  -3.090  0.00  0.00    +0.200 C 
BRANCH   5   7
ATOM      6  N   UNL     1      -0.485   2.506  -3.509  0.00  0.00    -0.284 N 
ATOM      7  C   UNL     1      -1.416   3.337  -2.998  0.00  0.00    +0.234 C 
ATOM      8  O   UNL     1      -2.406   2.883  -2.465  0.00  0.00    -0.274 OA
ATOM      9  H   UNL     1       0.343   2.866  -3.864  0.00  0.00    +0.155 HD
BRANCH   6  12
ATOM     10  C   UNL     1       1.771   0.772  -3.567  0.00  0.00    +0.047 C 
ATOM     11  C   UNL     1       0.359   0.244  -3.555  0.00  0.00    -0.011 A 
ATOM     12  C   UNL     1      -0.713   1.126  -3.528  0.00  0.00    +0.038 A 
ATOM     13  C   UNL     1      -2.012   0.636  -3.518  0.00  0.00    +0.023 A 
ATOM     14  C   UNL     1      -2.235  -0.728  -3.536  0.00  0.00    +0.003 A 
ATOM     15  C   UNL     1      -1.166  -1.604  -3.564  0.00  0.00    +0.020 A 
ATOM     16  C   UNL     1       0.130  -1.119  -3.573  0.00  0.00    +0.046 A 
ATOM     17 CL   UNL     1       1.470  -2.223  -3.609  0.00  0.00    -0.083 Cl
ENDBRANCH   6  12
ENDBRANCH   5   7
ENDBRANCH   1   5
BRANCH   2  18
ATOM     18  C   UNL     1      -3.587   7.547  -1.789  0.00  0.00    +0.019 C 
BRANCH  18  20
ATOM     19  C   UNL     1      -2.254   9.437  -1.071  0.00  0.00    -0.095 C 
ATOM     20  N   UNL     1      -3.397   9.008  -1.906  0.00  0.00    +0.389 N 
ATOM     21  H   UNL     1      -3.200   9.242  -2.886  0.00  0.00    -0.081 HD
BRANCH  20  22
ATOM     22  C   UNL     1      -4.624   9.713  -1.481  0.00  0.00    +0.019 C 
BRANCH  22  23
ATOM     23  C   UNL     1      -4.485  11.176  -1.815  0.00  0.00    +0.201 C 
ATOM     24  O   UNL     1      -3.468  11.586  -2.333  0.00  0.00    -0.278 OA
ATOM     25  N   UNL     1      -5.491  12.029  -1.538  0.00  0.00    -0.285 N 
ATOM     26  H   UNL     1      -6.271  11.718  -1.052  0.00  0.00    +0.155 HD
BRANCH  25  27
ATOM     27  C   UNL     1      -5.412  13.364  -1.954  0.00  0.00    +0.070 A 
ATOM     28  C   UNL     1      -4.292  14.125  -1.640  0.00  0.00    +0.064 A 
ATOM     29  C   UNL     1      -4.215  15.441  -2.056  0.00  0.00    +0.022 A 
ATOM     30  C   UNL     1      -5.254  16.004  -2.774  0.00  0.00    +0.003 A 
ATOM     31  C   UNL     1      -6.372  15.251  -3.083  0.00  0.00    +0.022 A 
ATOM     32  C   UNL     1      -6.454  13.933  -2.675  0.00  0.00    +0.064 A 
ATOM     33 CL   UNL     1      -7.858  12.989  -3.063  0.00  0.00    -0.082 Cl
ATOM     34 CL   UNL     1      -2.989  13.422  -0.734  0.00  0.00    -0.082 Cl
ENDBRANCH  25  27
ENDBRANCH  22  23
ENDBRANCH  20  22
ENDBRANCH  18  20
ENDBRANCH   2  18
TORSDOF 8
