REMARK  Name = ZINC28933282
REMARK  11 active torsions:
REMARK  status: ('A' for Active; 'I' for Inactive)
REMARK    1  A    between atoms: C_1  and  C_2
REMARK    2  A    between atoms: C_5  and  C_30
REMARK    3  A    between atoms: C_6  and  O_8
REMARK    4  A    between atoms: O_8  and  C_9
REMARK    5  A    between atoms: C_9  and  C_10
REMARK    6  A    between atoms: C_10  and  C_11
REMARK    7  A    between atoms: C_11  and  O_13
REMARK    8  A    between atoms: O_13  and  C_14
REMARK    9  A    between atoms: C_14  and  C_15
REMARK   10  A    between atoms: C_17  and  O_18
REMARK   11  A    between atoms: C_27  and  C_29
REMARK                            x       y       z     vdW  Elec       q    Type
REMARK                         _______ _______ _______ _____ _____    ______ ____
ROOT
ATOM      1  C   UNL     1      -0.848  -6.301   0.341  0.00  0.00    +0.007 A 
ATOM      2  C   UNL     1      -2.014  -6.998   0.339  0.00  0.00    +0.095 A 
ATOM      3  C   UNL     1      -3.242  -6.309   0.254  0.00  0.00    +0.285 A 
ATOM      4  O   UNL     1      -3.295  -4.970   0.176  0.00  0.00    -0.425 OA
ATOM      5  C   UNL     1      -2.173  -4.219   0.173  0.00  0.00    +0.141 A 
ATOM      6  C   UNL     1      -0.913  -4.841   0.254  0.00  0.00    +0.024 A 
ATOM      7  C   UNL     1       0.252  -4.067   0.252  0.00  0.00    +0.014 A 
ATOM      8  C   UNL     1       0.164  -2.708   0.166  0.00  0.00    +0.024 A 
ATOM      9  C   UNL     1      -1.081  -2.085   0.091  0.00  0.00    +0.037 A 
ATOM     10  C   UNL     1      -2.247  -2.837   0.092  0.00  0.00    +0.070 A 
ATOM     11  N   UNL     1      -1.156  -0.694   0.009  0.00  0.00    -0.286 N 
ATOM     12  C   UNL     1      -2.168  -0.037   0.609  0.00  0.00    +0.214 C 
ATOM     13  O   UNL     1      -3.058  -0.658   1.150  0.00  0.00    -0.276 OA
ATOM     14  C   UNL     1      -2.193   1.470   0.609  0.00  0.00    +0.109 C 
ATOM     15  H   UNL     1      -0.388  -0.134  -0.545  0.00  0.00    +0.155 HD
ENDROOT
BRANCH   3  16
ATOM     16  O   UNL     1      -4.280  -6.946   0.253  0.00  0.00    -0.480 OA
ATOM     17  H   UNL     1      -5.246  -6.423   0.188  0.00  0.00    +0.295 HD
ENDBRANCH   3  16
BRANCH   1  18
ATOM     18  C   UNL     1       0.478  -7.013   0.429  0.00  0.00    +0.268 C 
BRANCH  18  19
ATOM     19  O   UNL     1       0.255  -8.445   0.503  0.00  0.00    -0.460 OA
BRANCH  19  20
ATOM     20  C   UNL     1       1.342  -9.228   0.587  0.00  0.00    +0.311 C 
ATOM     21  O   UNL     1       2.444  -8.732   0.599  0.00  0.00    -0.251 OA
BRANCH  20  22
ATOM     22  C   UNL     1       1.188 -10.725   0.668  0.00  0.00    +0.161 C 
BRANCH  22  23
ATOM     23  C   UNL     1       2.570 -11.376   0.755  0.00  0.00    +0.240 C 
BRANCH  23  24
ATOM     24  O   UNL     1       2.425 -12.795   0.831  0.00  0.00    -0.491 OA
BRANCH  24  30
ATOM     25  C   UNL     1       7.299 -12.956   1.016  0.00  0.00    +0.044 C 
ATOM     26  C   UNL     1       5.958 -13.644   1.007  0.00  0.00    -0.047 A 
ATOM     27  C   UNL     1       5.888 -15.023   1.084  0.00  0.00    +0.004 A 
ATOM     28  C   UNL     1       4.659 -15.656   1.075  0.00  0.00    +0.007 A 
ATOM     29  C   UNL     1       3.498 -14.912   0.997  0.00  0.00    -0.009 A 
ATOM     30  C   UNL     1       3.566 -13.529   0.914  0.00  0.00    +0.124 A 
ATOM     31  C   UNL     1       4.800 -12.896   0.922  0.00  0.00    +0.049 A 
ATOM     32  C   UNL     1       2.158 -15.603   0.994  0.00  0.00    +0.047 C 
ENDBRANCH  24  30
ENDBRANCH  23  24
ENDBRANCH  22  23
ENDBRANCH  20  22
ENDBRANCH  19  20
ENDBRANCH  18  19
ENDBRANCH   1  18
TORSDOF 8
