REMARK  Name = ZINC39601934
REMARK  11 active torsions:
REMARK  status: ('A' for Active; 'I' for Inactive)
REMARK    1  A    between atoms: C_1  and  C_2
REMARK    2  A    between atoms: C_12  and  O_13
REMARK    3  A    between atoms: O_13  and  C_14
REMARK    4  A    between atoms: C_14  and  C_15
REMARK    5  A    between atoms: C_19  and  C_28
REMARK    6  A    between atoms: N_30  and  C_31
REMARK    7  A    between atoms: C_31  and  C_32
REMARK    8  A    between atoms: C_32  and  O_33
REMARK    9  A    between atoms: O_33  and  C_34
REMARK   10  A    between atoms: C_34  and  C_35
REMARK   11  A    between atoms: C_35  and  O_36
REMARK                            x       y       z     vdW  Elec       q    Type
REMARK                         _______ _______ _______ _____ _____    ______ ____
ROOT
ATOM      1  C   UNL     1       0.143  -6.577   3.309  0.00  0.00    +0.253 C 
ATOM      2  O   UNL     1       0.089  -7.039   2.188  0.00  0.00    -0.272 OA
ATOM      3  N   UNL     1       0.125  -7.398   4.377  0.00  0.00    -0.297 N 
ATOM      4  C   UNL     1       0.175  -7.025   5.811  0.00  0.00    +0.121 C 
ATOM      5  C   UNL     1      -0.808  -7.996   6.502  0.00  0.00    +0.100 C 
ATOM      6  C   UNL     1      -0.885  -9.211   5.562  0.00  0.00    -0.004 C 
ATOM      7  C   UNL     1       0.043  -8.879   4.385  0.00  0.00    +0.115 C 
ATOM      8  C   UNL     1      -0.400 -10.466   6.281  0.00  0.00    -0.010 C 
ATOM      9  C   UNL     1      -0.540 -11.671   5.346  0.00  0.00    -0.082 C 
ATOM     10  N   UNL     1      -1.945 -11.823   4.948  0.00  0.00    +0.379 N 
ATOM     11  C   UNL     1      -2.377 -10.651   4.177  0.00  0.00    -0.082 C 
ATOM     12  C   UNL     1      -2.314  -9.403   5.063  0.00  0.00    -0.010 C 
ATOM     13  H   UNL     1      -2.045 -12.652   4.382  0.00  0.00    -0.086 HD
ATOM     14  H   UNL     1      -2.519 -11.911   5.773  0.00  0.00    -0.086 HD
ENDROOT
BRANCH   5  15
ATOM     15  C   UNL     1      -0.279  -8.406   7.852  0.00  0.00    +0.218 C 
ATOM     16  O   UNL     1       0.917  -8.472   8.040  0.00  0.00    -0.275 OA
ATOM     17  N   UNL     1      -1.135  -8.700   8.850  0.00  0.00    -0.313 N 
ATOM     18  H   UNL     1      -2.092  -8.648   8.700  0.00  0.00    +0.149 HD
BRANCH  17  19
ATOM     19  C   UNL     1      -0.621  -9.099  10.162  0.00  0.00    +0.132 C 
BRANCH  19  20
ATOM     20  C   UNL     1      -1.792  -9.375  11.107  0.00  0.00    +0.178 C 
BRANCH  20  21
ATOM     21  O   UNL     1      -2.531 -10.502  10.633  0.00  0.00    -0.376 OA
BRANCH  21  22
ATOM     22  C   UNL     1      -3.653 -10.846  11.448  0.00  0.00    +0.187 C 
BRANCH  22  23
ATOM     23  C   UNL     1      -4.367 -12.059  10.849  0.00  0.00    +0.184 C 
BRANCH  23  24
ATOM     24  O   UNL     1      -3.500 -13.194  10.900  0.00  0.00    -0.393 OA
ATOM     25  H   UNL     1      -3.888 -14.002  10.535  0.00  0.00    +0.209 HD
ENDBRANCH  23  24
ENDBRANCH  22  23
ENDBRANCH  21  22
ENDBRANCH  20  21
ENDBRANCH  19  20
ENDBRANCH  17  19
ENDBRANCH   5  15
BRANCH   1  26
ATOM     26  C   UNL     1       0.231  -5.086   3.506  0.00  0.00    +0.324 C 
BRANCH  26  27
ATOM     27  O   UNL     1       0.235  -4.436   2.233  0.00  0.00    -0.479 OA
BRANCH  27  39
ATOM     28  C   UNL     1       0.487   1.253  -0.264  0.00  0.00    +0.045 C 
ATOM     29  C   UNL     1       0.404  -0.251  -0.231  0.00  0.00    -0.033 A 
ATOM     30  C   UNL     1       0.336  -0.971  -1.379  0.00  0.00    +0.096 A 
ATOM     31  C   UNL     1       0.259  -2.380  -1.321  0.00  0.00    +0.338 A 
ATOM     32  O   UNL     1       0.199  -3.014  -2.359  0.00  0.00    -0.245 OA
ATOM     33  O   UNL     1       0.253  -3.037  -0.151  0.00  0.00    -0.418 OA
ATOM     34  C   UNL     1       0.318  -2.380   1.027  0.00  0.00    +0.181 A 
ATOM     35  C   UNL     1       0.402  -0.978   1.043  0.00  0.00    +0.024 A 
ATOM     36  C   UNL     1       0.475  -0.296   2.262  0.00  0.00    +0.012 A 
ATOM     37  C   UNL     1       0.471  -1.004   3.442  0.00  0.00    +0.004 A 
ATOM     38  C   UNL     1       0.394  -2.389   3.429  0.00  0.00    +0.049 A 
ATOM     39  C   UNL     1       0.310  -3.079   2.233  0.00  0.00    +0.164 A 
ENDBRANCH  27  39
ENDBRANCH  26  27
ENDBRANCH   1  26
TORSDOF 10
