REMARK  Name = ZINC39710093
REMARK  9 active torsions:
REMARK  status: ('A' for Active; 'I' for Inactive)
REMARK    1  A    between atoms: C_1  and  C_2
REMARK    2  A    between atoms: N_4  and  C_5
REMARK    3  A    between atoms: C_8  and  S_11
REMARK    4  A    between atoms: S_11  and  N_14
REMARK    5  A    between atoms: N_14  and  C_15
REMARK    6  A    between atoms: C_21  and  C_22
REMARK    7  A    between atoms: N_24  and  C_25
REMARK    8  A    between atoms: C_25  and  C_26
REMARK    9  A    between atoms: C_26  and  C_27
REMARK                            x       y       z     vdW  Elec       q    Type
REMARK                         _______ _______ _______ _____ _____    ______ ____
ROOT
ATOM      1  C   UNL     1      -1.991  -6.782   2.780  0.00  0.00    +0.220 C 
ATOM      2  N   UNL     1      -1.688  -6.610   4.219  0.00  0.00    -0.322 N 
ATOM      3  C   UNL     1      -2.652  -6.970   5.092  0.00  0.00    +0.021 C 
ATOM      4  C   UNL     1      -3.674  -7.987   4.607  0.00  0.00    +0.122 C 
ATOM      5  S   UNL     1      -3.154  -8.213   2.852  0.00  0.00    -0.116 S 
ATOM      6  C   UNL     1      -2.707  -6.452   6.336  0.00  0.00    +0.086 C 
ATOM      7  H   UNL     1      -0.837  -6.256   4.520  0.00  0.00    +0.148 HD
ENDROOT
BRANCH   6   8
ATOM      8  C   UNL     1      -1.837  -5.399   6.703  0.00  0.00    +0.238 C 
ATOM      9  O   UNL     1      -0.989  -5.009   5.920  0.00  0.00    -0.271 OA
ATOM     10  N   UNL     1      -1.946  -4.827   7.918  0.00  0.00    -0.311 N 
ATOM     11  H   UNL     1      -2.621  -5.137   8.541  0.00  0.00    +0.149 HD
BRANCH  10  12
ATOM     12  C   UNL     1      -1.045  -3.736   8.298  0.00  0.00    +0.109 C 
BRANCH  12  13
ATOM     13  C   UNL     1      -1.378  -3.269   9.716  0.00  0.00    +0.056 C 
BRANCH  13  14
ATOM     14  C   UNL     1      -0.451  -2.147  10.107  0.00  0.00    -0.021 A 
ATOM     15  C   UNL     1      -0.630  -0.725   9.806  0.00  0.00    +0.003 A 
ATOM     16  C   UNL     1      -1.607   0.009   9.131  0.00  0.00    +0.010 A 
ATOM     17  C   UNL     1      -1.480   1.365   9.019  0.00  0.00    +0.001 A 
ATOM     18  C   UNL     1      -0.387   2.019   9.571  0.00  0.00    +0.002 A 
ATOM     19  C   UNL     1       0.589   1.314  10.241  0.00  0.00    +0.026 A 
ATOM     20  C   UNL     1       0.480  -0.067  10.368  0.00  0.00    +0.047 A 
ATOM     21  N   UNL     1       1.265  -1.029  10.962  0.00  0.00    -0.360 N 
ATOM     22  C   UNL     1       0.692  -2.261  10.802  0.00  0.00    +0.087 A 
ATOM     23  H   UNL     1       2.098  -0.858  11.428  0.00  0.00    +0.165 HD
ENDBRANCH  13  14
ENDBRANCH  12  13
ENDBRANCH  10  12
ENDBRANCH   6   8
BRANCH   1  24
ATOM     24  N   UNL     1      -0.784  -7.117   2.021  0.00  0.00    -0.161 NA
ATOM     25  H   UNL     1      -0.042  -7.562   2.460  0.00  0.00    +0.151 HD
BRANCH  24  26
ATOM     26  S   UNL     1      -0.686  -6.736   0.412  0.00  0.00    +0.061 S 
ATOM     27  O   UNL     1      -1.887  -7.198  -0.189  0.00  0.00    -0.153 OA
ATOM     28  O   UNL     1       0.598  -7.159  -0.028  0.00  0.00    -0.153 OA
BRANCH  26  32
ATOM     29  C   UNL     1      -0.737  -2.218   0.102  0.00  0.00    +0.033 A 
ATOM     30  C   UNL     1       0.470  -2.893   0.227  0.00  0.00    +0.025 A 
ATOM     31  C   UNL     1       0.482  -4.271   0.322  0.00  0.00    +0.030 A 
ATOM     32  C   UNL     1      -0.706  -4.978   0.291  0.00  0.00    +0.105 A 
ATOM     33  C   UNL     1      -1.909  -4.309   0.166  0.00  0.00    +0.030 A 
ATOM     34  C   UNL     1      -1.929  -2.931   0.077  0.00  0.00    +0.025 A 
BRANCH  29  38
ATOM     35  C   UNL     1      -1.715   1.388   0.562  0.00  0.00    +0.109 C 
ATOM     36  C   UNL     1      -1.753  -0.119   0.573  0.00  0.00    +0.214 C 
ATOM     37  O   UNL     1      -2.683  -0.699   1.092  0.00  0.00    -0.276 OA
ATOM     38  N   UNL     1      -0.753  -0.822   0.006  0.00  0.00    -0.286 N 
ATOM     39  H   UNL     1      -0.044  -0.360  -0.469  0.00  0.00    +0.155 HD
ENDBRANCH  29  38
ENDBRANCH  26  32
ENDBRANCH  24  26
ENDBRANCH   1  24
TORSDOF 8
