REMARK  Name = ZINC59465380
REMARK  6 active torsions:
REMARK  status: ('A' for Active; 'I' for Inactive)
REMARK    1  A    between atoms: C_2  and  C_11
REMARK    2  A    between atoms: C_3  and  O_10
REMARK    3  A    between atoms: C_5  and  O_8
REMARK    4  A    between atoms: N_12  and  N_13
REMARK    5  A    between atoms: C_14  and  C_16
REMARK    6  A    between atoms: C_16  and  C_17
REMARK                            x       y       z     vdW  Elec       q    Type
REMARK                         _______ _______ _______ _____ _____    ______ ____
ROOT
ATOM      1  C   UNL     1      -0.017   1.374   0.010  0.00  0.00    +0.031 A 
ATOM      2  C   UNL     1       1.185   2.088   0.002  0.00  0.00    +0.038 A 
ATOM      3  C   UNL     1       2.405   1.397  -0.013  0.00  0.00    +0.142 A 
ATOM      4  C   UNL     1       2.411   0.013  -0.021  0.00  0.00    +0.098 A 
ATOM      5  C   UNL     1       1.213  -0.687  -0.014  0.00  0.00    +0.147 A 
ATOM      6  C   UNL     1       0.002  -0.004   0.002  0.00  0.00    +0.057 A 
ATOM      7  I   UNL     1      -1.800  -1.073   0.013  0.00  0.00    -0.040 I 
ATOM      8  I   UNL     1       4.230  -1.026  -0.044  0.00  0.00    -0.036 I 
ENDROOT
BRANCH   5   9
ATOM      9  O   UNL     1       1.223  -2.046  -0.022  0.00  0.00    -0.505 OA
ATOM     10  H   UNL     1       1.234  -2.445   0.859  0.00  0.00    +0.292 HD
ENDBRANCH   5   9
BRANCH   3  11
ATOM     11  O   UNL     1       3.576   2.084  -0.021  0.00  0.00    -0.505 OA
ATOM     12  H   UNL     1       3.924   2.278   0.860  0.00  0.00    +0.292 HD
ENDBRANCH   3  11
BRANCH   2  13
ATOM     13  C   UNL     1       1.169   3.561   0.009  0.00  0.00    +0.142 C 
ATOM     14  N   UNL     1       2.287   4.222   0.002  0.00  0.00    -0.188 NA
BRANCH  14  15
ATOM     15  N   UNL     1       2.272   5.623   0.010  0.00  0.00    -0.206 N 
ATOM     16  C   UNL     1       3.432   6.309   0.002  0.00  0.00    +0.246 C 
ATOM     17  O   UNL     1       4.489   5.713  -0.011  0.00  0.00    -0.273 OA
ATOM     18  H   UNL     1       1.427   6.099   0.020  0.00  0.00    +0.177 HD
BRANCH  16  19
ATOM     19  C   UNL     1       3.416   7.816   0.010  0.00  0.00    +0.215 C 
BRANCH  19  20
ATOM     20  C   UNL     1       4.799   8.321  -0.000  0.00  0.00    +0.072 C 
ATOM     21  N   UNL     1       5.866   8.711  -0.008  0.00  0.00    -0.196 NA
ENDBRANCH  19  20
ENDBRANCH  16  19
ENDBRANCH  14  15
ENDBRANCH   2  13
TORSDOF 6
