REMARK  Name = ZINC35664444
REMARK  11 active torsions:
REMARK  status: ('A' for Active; 'I' for Inactive)
REMARK    1  A    between atoms: C_1  and  C_2
REMARK    2  A    between atoms: C_2  and  N_3
REMARK    3  A    between atoms: N_10  and  C_13
REMARK    4  A    between atoms: C_13  and  C_14
REMARK    5  A    between atoms: C_15  and  C_30
REMARK    6  A    between atoms: C_16  and  C_25
REMARK    7  A    between atoms: N_21  and  C_22
REMARK    8  A    between atoms: C_22  and  C_23
REMARK    9  A    between atoms: C_30  and  O_32
REMARK   10  A    between atoms: O_32  and  C_33
REMARK   11  A    between atoms: C_33  and  C_34
REMARK                            x       y       z     vdW  Elec       q    Type
REMARK                         _______ _______ _______ _____ _____    ______ ____
ROOT
ATOM      1  C   UNL     1      -4.689  -6.131  -3.122  0.00  0.00    +0.011 C 
ATOM      2  C   UNL     1      -5.609  -7.043  -3.501  0.00  0.00    +0.076 C 
ATOM      3  C   UNL     1      -5.274  -8.508  -3.304  0.00  0.00    +0.144 C 
ATOM      4  N   UNL     1      -3.962  -8.818  -2.710  0.00  0.00    -0.288 N 
ATOM      5  C   UNL     1      -3.149  -7.794  -2.382  0.00  0.00    +0.307 C 
ATOM      6  O   UNL     1      -2.064  -8.040  -1.892  0.00  0.00    -0.252 OA
ATOM      7  N   UNL     1      -3.494  -6.516  -2.584  0.00  0.00    -0.257 N 
ATOM      8  H   UNL     1      -3.690  -9.736  -2.559  0.00  0.00    +0.151 HD
ENDROOT
BRANCH   3   9
ATOM      9  C   UNL     1      -5.346  -9.186  -4.648  0.00  0.00    -0.015 A 
ATOM     10  C   UNL     1      -6.466  -9.914  -5.006  0.00  0.00    +0.013 A 
ATOM     11  C   UNL     1      -6.499 -10.511  -6.222  0.00  0.00    +0.045 A 
ATOM     12  S   UNL     1      -4.915 -10.051  -6.904  0.00  0.00    -0.105 S 
ATOM     13  C   UNL     1      -4.318  -9.088  -5.525  0.00  0.00    +0.051 A 
ENDBRANCH   3   9
BRANCH   2  14
ATOM     14  C   UNL     1      -6.845  -6.646  -4.064  0.00  0.00    +0.339 C 
ATOM     15  O   UNL     1      -7.043  -5.475  -4.331  0.00  0.00    -0.245 OA
BRANCH  14  16
ATOM     16  O   UNL     1      -7.804  -7.564  -4.303  0.00  0.00    -0.462 OA
BRANCH  16  17
ATOM     17  C   UNL     1      -9.027  -7.092  -4.872  0.00  0.00    +0.229 C 
ATOM     18  C   UNL     1      -9.985  -8.268  -5.070  0.00  0.00    +0.048 C 
ENDBRANCH  16  17
ENDBRANCH  14  16
ENDBRANCH   2  14
BRANCH   1  19
ATOM     19  C   UNL     1      -4.982  -4.664  -3.301  0.00  0.00    -0.026 C 
BRANCH  19  27
ATOM     20  N   UNL     1      -6.273  -4.046  -8.495  0.00  0.00    -0.300 N 
ATOM     21  C   UNL     1      -5.507  -2.996  -8.139  0.00  0.00    +0.302 C 
ATOM     22  O   UNL     1      -5.763  -1.885  -8.562  0.00  0.00    -0.253 OA
ATOM     23  N   UNL     1      -4.457  -3.177  -7.314  0.00  0.00    -0.287 N 
ATOM     24  C   UNL     1      -3.709  -1.993  -6.843  0.00  0.00    +0.107 C 
ATOM     25  C   UNL     1      -3.350  -2.122  -5.351  0.00  0.00    +0.000 C 
ATOM     26  C   UNL     1      -4.515  -2.733  -4.604  0.00  0.00    -0.077 C 
ATOM     27  N   UNL     1      -4.333  -4.180  -4.527  0.00  0.00    +0.384 N 
ATOM     28  C   UNL     1      -4.853  -4.906  -5.622  0.00  0.00    -0.059 C 
ATOM     29  C   UNL     1      -4.106  -4.524  -6.915  0.00  0.00    +0.091 C 
ATOM     30  H   UNL     1      -6.027  -4.942  -8.217  0.00  0.00    +0.150 HD
ATOM     31  H   UNL     1      -3.345  -4.373  -4.457  0.00  0.00    -0.081 HD
BRANCH  20  33
ATOM     32  C   UNL     1      -8.158  -5.178  -9.565  0.00  0.00    +0.024 C 
ATOM     33  C   UNL     1      -7.477  -3.834  -9.303  0.00  0.00    +0.102 C 
ENDBRANCH  20  33
ENDBRANCH  19  27
ENDBRANCH   1  19
BRANCH   7  34
ATOM     34  C   UNL     1      -2.540  -5.473  -2.200  0.00  0.00    +0.141 C 
BRANCH  34  35
ATOM     35  C   UNL     1      -2.706  -5.155  -0.737  0.00  0.00    -0.015 C 
ATOM     36  C   UNL     1      -1.675  -5.218   0.069  0.00  0.00    +0.005 C 
ENDBRANCH  34  35
ENDBRANCH   7  34
TORSDOF 9
