REMARK  Name = ZINC45850480
REMARK  12 active torsions:
REMARK  status: ('A' for Active; 'I' for Inactive)
REMARK    1  A    between atoms: C_1  and  C_2
REMARK    2  A    between atoms: C_2  and  C_3
REMARK    3  A    between atoms: C_3  and  C_4
REMARK    4  A    between atoms: C_4  and  N_5
REMARK    5  A    between atoms: C_6  and  C_30
REMARK    6  A    between atoms: C_7  and  C_29
REMARK    7  A    between atoms: C_9  and  S_10
REMARK    8  A    between atoms: S_10  and  C_11
REMARK    9  A    between atoms: C_11  and  C_12
REMARK   10  A    between atoms: N_14  and  N_15
REMARK   11  A    between atoms: C_18  and  C_22
REMARK   12  A    between atoms: C_18  and  C_23
REMARK                            x       y       z     vdW  Elec       q    Type
REMARK                         _______ _______ _______ _____ _____    ______ ____
ROOT
ATOM      1  C   UNL     1       6.653  -2.933  -1.147  0.00  0.00    +0.240 C 
ATOM      2  O   UNL     1       6.435  -2.557  -0.015  0.00  0.00    -0.273 OA
ATOM      3  N   UNL     1       7.909  -3.247  -1.523  0.00  0.00    -0.223 N 
ATOM      4  H   UNL     1       8.083  -3.547  -2.429  0.00  0.00    +0.174 HD
ENDROOT
BRANCH   3   5
ATOM      5  N   UNL     1       8.962  -3.138  -0.606  0.00  0.00    -0.137 N 
ATOM      6  C   UNL     1       9.876  -2.147  -0.617  0.00  0.00    +0.267 C 
ATOM      7  O   UNL     1       9.939  -1.218  -1.392  0.00  0.00    -0.271 OA
ATOM      8  C   UNL     1      10.807  -2.437   0.543  0.00  0.00    +0.137 C 
ATOM      9  N   UNL     1      10.259  -3.673   1.127  0.00  0.00    -0.280 N 
ATOM     10  C   UNL     1       9.182  -4.002   0.392  0.00  0.00    +0.327 C 
ATOM     11  O   UNL     1       8.488  -4.976   0.608  0.00  0.00    -0.251 OA
ATOM     12  C   UNL     1      10.769  -1.297   1.563  0.00  0.00    +0.047 C 
ATOM     13  H   UNL     1      10.606  -4.155   1.895  0.00  0.00    +0.152 HD
BRANCH   8  14
ATOM     14  C   UNL     1      12.214  -2.662   0.050  0.00  0.00    -0.015 A 
ATOM     15  C   UNL     1      12.656  -2.022  -1.092  0.00  0.00    +0.006 A 
ATOM     16  C   UNL     1      13.946  -2.228  -1.544  0.00  0.00    +0.000 A 
ATOM     17  C   UNL     1      14.794  -3.074  -0.854  0.00  0.00    +0.000 A 
ATOM     18  C   UNL     1      14.351  -3.713   0.289  0.00  0.00    +0.000 A 
ATOM     19  C   UNL     1      13.063  -3.504   0.744  0.00  0.00    +0.006 A 
ENDBRANCH   8  14
ENDBRANCH   3   5
BRANCH   1  20
ATOM     20  C   UNL     1       5.520  -3.050  -2.134  0.00  0.00    +0.174 C 
BRANCH  20  21
ATOM     21  S   UNL     1       3.967  -2.562  -1.333  0.00  0.00    -0.080 S 
BRANCH  21  26
ATOM     22  N   UNL     1       1.425  -2.500  -2.470  0.00  0.00    -0.324 N 
ATOM     23  C   UNL     1       0.845  -2.769  -3.690  0.00  0.00    +0.037 A 
ATOM     24  C   UNL     1       1.829  -3.175  -4.510  0.00  0.00    +0.034 A 
ATOM     25  N   UNL     1       2.985  -3.160  -3.825  0.00  0.00    -0.338 N 
ATOM     26  C   UNL     1       2.756  -2.751  -2.599  0.00  0.00    +0.148 A 
ATOM     27  C   UNL     1       1.664  -3.580  -5.953  0.00  0.00    +0.065 C 
ATOM     28  C   UNL     1      -0.615  -2.634  -4.039  0.00  0.00    +0.065 C 
ATOM     29  H   UNL     1       3.852  -3.409  -4.181  0.00  0.00    +0.168 HD
BRANCH  22  30
ATOM     30  C   UNL     1       0.739  -2.027  -1.265  0.00  0.00    +0.124 C 
BRANCH  30  31
ATOM     31  C   UNL     1       0.718  -0.497  -1.257  0.00  0.00    +0.021 C 
BRANCH  31  33
ATOM     32  C   UNL     1      -0.019   1.526   0.010  0.00  0.00    +0.004 C 
ATOM     33  C   UNL     1       0.002  -0.004   0.002  0.00  0.00    -0.002 C 
ENDBRANCH  31  33
ENDBRANCH  30  31
ENDBRANCH  22  30
ENDBRANCH  21  26
ENDBRANCH  20  21
ENDBRANCH   1  20
TORSDOF 8
