REMARK  Name = ZINC13499409
REMARK  11 active torsions:
REMARK  status: ('A' for Active; 'I' for Inactive)
REMARK    1  A    between atoms: C_1  and  C_2
REMARK    2  A    between atoms: C_2  and  C_3
REMARK    3  A    between atoms: C_3  and  C_4
REMARK    4  A    between atoms: C_4  and  C_6
REMARK    5  A    between atoms: C_4  and  N_17
REMARK    6  A    between atoms: N_10  and  C_11
REMARK    7  A    between atoms: C_11  and  C_12
REMARK    8  A    between atoms: N_17  and  C_18
REMARK    9  A    between atoms: N_17  and  C_25
REMARK   10  A    between atoms: C_18  and  C_19
REMARK   11  A    between atoms: C_25  and  C_26
REMARK                            x       y       z     vdW  Elec       q    Type
REMARK                         _______ _______ _______ _____ _____    ______ ____
ROOT
ATOM      1  N   UNL     1       0.100  -2.048   0.458  0.00  0.00    -0.284 NA
ENDROOT
BRANCH   1   2
ATOM      2  C   UNL     1      -1.115  -1.948  -0.363  0.00  0.00    +0.127 C 
BRANCH   2   3
ATOM      3  C   UNL     1      -1.387  -0.501  -0.683  0.00  0.00    +0.169 A 
ATOM      4  N   UNL     1      -0.567   0.338  -1.268  0.00  0.00    -0.112 NA
ATOM      5  N   UNL     1      -1.164   1.476  -1.364  0.00  0.00    -0.023 NA
ATOM      6  N   UNL     1      -2.343   1.384  -0.856  0.00  0.00    -0.043 NA
ATOM      7  N   UNL     1      -2.520   0.179  -0.430  0.00  0.00    -0.220 N 
BRANCH   7   8
ATOM      8  C   UNL     1      -3.726  -0.349   0.212  0.00  0.00    +0.221 C 
BRANCH   8   9
ATOM      9  C   UNL     1      -3.772   0.107   1.648  0.00  0.00    +0.126 A 
ATOM     10  C   UNL     1      -4.446   1.175   2.112  0.00  0.00    +0.046 A 
ATOM     11  C   UNL     1      -4.213   1.231   3.506  0.00  0.00    +0.041 A 
ATOM     12  C   UNL     1      -3.411   0.194   3.809  0.00  0.00    +0.195 A 
ATOM     13  O   UNL     1      -3.152  -0.486   2.681  0.00  0.00    -0.466 OA
ENDBRANCH   8   9
ENDBRANCH   7   8
ENDBRANCH   2   3
BRANCH   2  14
ATOM     14  C   UNL     1      -0.917  -2.731  -1.663  0.00  0.00    +0.026 C 
BRANCH  14  16
ATOM     15  C   UNL     1      -0.677  -5.014  -2.647  0.00  0.00    +0.004 C 
ATOM     16  C   UNL     1      -0.750  -4.217  -1.343  0.00  0.00    -0.001 C 
ENDBRANCH  14  16
ENDBRANCH   2  14
ENDBRANCH   1   2
BRANCH   1  17
ATOM     17  C   UNL     1      -0.177  -1.686   1.854  0.00  0.00    +0.120 C 
BRANCH  17  18
ATOM     18  C   UNL     1      -0.852  -2.840   2.549  0.00  0.00    -0.033 A 
ATOM     19  C   UNL     1      -2.217  -3.019   2.424  0.00  0.00    +0.005 A 
ATOM     20  C   UNL     1      -2.837  -4.078   3.061  0.00  0.00    +0.000 A 
ATOM     21  C   UNL     1      -2.091  -4.958   3.822  0.00  0.00    +0.000 A 
ATOM     22  C   UNL     1      -0.726  -4.780   3.946  0.00  0.00    +0.000 A 
ATOM     23  C   UNL     1      -0.106  -3.724   3.305  0.00  0.00    +0.005 A 
ENDBRANCH  17  18
ENDBRANCH   1  17
BRANCH   1  24
ATOM     24  C   UNL     1       1.179  -1.221  -0.097  0.00  0.00    +0.126 C 
BRANCH  24  25
ATOM     25  C   UNL     1       2.496  -1.645   0.502  0.00  0.00    +0.031 A 
ATOM     26  C   UNL     1       3.259  -2.572  -0.130  0.00  0.00    +0.020 A 
ATOM     27  C   UNL     1       4.531  -2.962   0.476  0.00  0.00    +0.003 A 
ATOM     28  C   UNL     1       5.360  -3.914  -0.130  0.00  0.00    +0.059 A 
ATOM     29  C   UNL     1       6.554  -4.261   0.464  0.00  0.00    +0.163 A 
ATOM     30  C   UNL     1       6.941  -3.665   1.669  0.00  0.00    +0.164 A 
ATOM     31  C   UNL     1       6.127  -2.724   2.277  0.00  0.00    +0.075 A 
ATOM     32  C   UNL     1       4.920  -2.364   1.691  0.00  0.00    +0.053 A 
ATOM     33  N   UNL     1       4.097  -1.428   2.284  0.00  0.00    -0.322 N 
ATOM     34  H   UNL     1       4.365  -1.017   3.120  0.00  0.00    +0.169 HD
ATOM     35  C   UNL     1       2.932  -1.073   1.715  0.00  0.00    +0.254 A 
ATOM     36  O   UNL     1       2.232  -0.239   2.264  0.00  0.00    -0.268 OA
ATOM     37  O   UNL     1       8.121  -3.996   2.258  0.00  0.00    -0.485 OA
ATOM     38  C   UNL     1       8.741  -5.211   1.822  0.00  0.00    +0.270 C 
ATOM     39  C   UNL     1       8.714  -5.242   0.288  0.00  0.00    +0.270 C 
ATOM     40  O   UNL     1       7.348  -5.190  -0.137  0.00  0.00    -0.485 OA
ENDBRANCH  24  25
ENDBRANCH   1  24
TORSDOF 10
