REMARK  Name = ZINC19314947
REMARK  5 active torsions:
REMARK  status: ('A' for Active; 'I' for Inactive)
REMARK    1  A    between atoms: C_1  and  C_2
REMARK    2  A    between atoms: C_3  and  C_23
REMARK    3  A    between atoms: C_4  and  C_14
REMARK    4  A    between atoms: C_23  and  O_25
REMARK    5  A    between atoms: O_25  and  C_26
REMARK                            x       y       z     vdW  Elec       q    Type
REMARK                         _______ _______ _______ _____ _____    ______ ____
ROOT
ATOM      1  C   UNL     1      -0.018   1.503   0.010  0.00  0.00    +0.061 C 
ATOM      2  C   UNL     1       0.002  -0.004   0.002  0.00  0.00    +0.016 C 
ATOM      3  C   UNL     1      -1.155  -0.688   0.004  0.00  0.00    +0.065 C 
ATOM      4  C   UNL     1      -1.174  -2.188   0.005  0.00  0.00    +0.092 C 
ATOM      5  C   UNL     1       0.160  -2.746  -0.422  0.00  0.00    +0.024 C 
ATOM      6  C   UNL     1       1.267  -1.974  -0.410  0.00  0.00    +0.015 C 
ATOM      7  N   UNL     1       1.198  -0.667  -0.013  0.00  0.00    -0.321 N 
ATOM      8  C   UNL     1       2.604  -2.524  -0.842  0.00  0.00    +0.051 C 
ATOM      9  C   UNL     1       2.670  -4.019  -0.526  0.00  0.00    +0.014 C 
ATOM     10  C   UNL     1       1.517  -4.721  -1.252  0.00  0.00    +0.080 C 
ATOM     11  C   UNL     1       0.218  -4.091  -0.830  0.00  0.00    +0.162 C 
ATOM     12  O   UNL     1      -0.799  -4.755  -0.843  0.00  0.00    -0.292 OA
ATOM     13  H   UNL     1       2.005  -0.207   0.265  0.00  0.00    +0.152 HD
ENDROOT
BRANCH   4  14
ATOM     14  C   UNL     1      -1.492  -2.678   1.395  0.00  0.00    -0.032 A 
ATOM     15  C   UNL     1      -0.664  -2.343   2.450  0.00  0.00    +0.008 A 
ATOM     16  C   UNL     1      -0.952  -2.789   3.726  0.00  0.00    +0.050 A 
ATOM     17  C   UNL     1      -2.071  -3.574   3.951  0.00  0.00    +0.166 A 
ATOM     18  C   UNL     1      -2.905  -3.912   2.887  0.00  0.00    +0.167 A 
ATOM     19  C   UNL     1      -2.613  -3.456   1.612  0.00  0.00    +0.054 A 
ATOM     20  O   UNL     1      -3.926  -4.683   3.362  0.00  0.00    -0.453 OA
ATOM     21  C   UNL     1      -3.487  -5.152   4.650  0.00  0.00    +0.466 C 
ATOM     22  O   UNL     1      -2.570  -4.134   5.091  0.00  0.00    -0.453 OA
ENDBRANCH   4  14
BRANCH   3  23
ATOM     23  C   UNL     1      -2.380   0.021   0.005  0.00  0.00    +0.337 C 
ATOM     24  O   UNL     1      -2.378   1.238   0.004  0.00  0.00    -0.245 OA
BRANCH  23  25
ATOM     25  O   UNL     1      -3.549  -0.652   0.007  0.00  0.00    -0.465 OA
ATOM     26  C   UNL     1      -4.747   0.128   0.008  0.00  0.00    +0.280 C 
ENDBRANCH  23  25
ENDBRANCH   3  23
TORSDOF 3
