REMARK  Name = ZINC33821641
REMARK  5 active torsions:
REMARK  status: ('A' for Active; 'I' for Inactive)
REMARK    1  A    between atoms: C_1  and  O_2
REMARK    2  A    between atoms: O_2  and  C_3
REMARK    3  A    between atoms: C_6  and  N_9
REMARK    4  A    between atoms: N_31  and  C_34
REMARK    5  A    between atoms: C_34  and  C_35
REMARK                            x       y       z     vdW  Elec       q    Type
REMARK                         _______ _______ _______ _____ _____    ______ ____
ROOT
ATOM      1  N   UNL     1      -4.892  -2.582   0.034  0.00  0.00    -0.210 N 
ATOM      2  C   UNL     1      -6.091  -1.928   0.038  0.00  0.00    +0.232 C 
ATOM      3  O   UNL     1      -6.292  -0.765  -0.239  0.00  0.00    -0.274 OA
ATOM      4  C   UNL     1      -7.112  -2.952   0.459  0.00  0.00    +0.107 C 
ATOM      5  C   UNL     1      -8.458  -3.008  -0.261  0.00  0.00    +0.071 C 
ATOM      6  C   UNL     1      -8.325  -2.530  -1.719  0.00  0.00    +0.021 C 
ATOM      7  C   UNL     1      -9.415  -3.377  -2.430  0.00  0.00    +0.017 C 
ATOM      8  C   UNL     1      -9.353  -4.725  -1.680  0.00  0.00    +0.086 C 
ATOM      9  N   UNL     1      -8.761  -4.474  -0.341  0.00  0.00    -0.281 NA
ATOM     10  C   UNL     1      -7.468  -5.210  -0.221  0.00  0.00    +0.138 C 
ATOM     11  C   UNL     1      -6.424  -4.172  -0.277  0.00  0.00    +0.123 C 
ATOM     12  C   UNL     1      -5.031  -3.948   0.033  0.00  0.00    +0.233 C 
ATOM     13  O   UNL     1      -4.177  -4.781   0.247  0.00  0.00    -0.274 OA
ATOM     14  C   UNL     1      -7.454  -5.993   1.067  0.00  0.00    +0.004 A 
ATOM     15  C   UNL     1      -7.513  -5.628   2.393  0.00  0.00    +0.008 A 
ATOM     16  C   UNL     1      -7.478  -6.596   3.381  0.00  0.00    +0.000 A 
ATOM     17  C   UNL     1      -7.384  -7.931   3.031  0.00  0.00    +0.002 A 
ATOM     18  C   UNL     1      -7.327  -8.302   1.704  0.00  0.00    +0.024 A 
ATOM     19  C   UNL     1      -7.361  -7.332   0.704  0.00  0.00    +0.042 A 
ATOM     20  N   UNL     1      -7.319  -7.453  -0.686  0.00  0.00    -0.265 N 
ATOM     21  C   UNL     1      -7.379  -6.259  -1.302  0.00  0.00    +0.246 C 
ATOM     22  O   UNL     1      -7.364  -6.062  -2.499  0.00  0.00    -0.273 OA
ENDROOT
BRANCH   1  26
ATOM     23  C   UNL     1      -1.201  -0.638   0.010  0.00  0.00    +0.120 A 
ATOM     24  C   UNL     1      -2.374   0.102   0.019  0.00  0.00    +0.047 A 
ATOM     25  C   UNL     1      -3.596  -0.541   0.027  0.00  0.00    +0.027 A 
ATOM     26  C   UNL     1      -3.650  -1.928   0.026  0.00  0.00    +0.044 A 
ATOM     27  C   UNL     1      -2.476  -2.668   0.016  0.00  0.00    +0.027 A 
ATOM     28  C   UNL     1      -1.254  -2.024   0.003  0.00  0.00    +0.047 A 
BRANCH  23  30
ATOM     29  C   UNL     1      -0.017   1.425   0.010  0.00  0.00    +0.277 C 
ATOM     30  O   UNL     1       0.002  -0.004   0.002  0.00  0.00    -0.495 OA
ENDBRANCH  23  30
ENDBRANCH   1  26
BRANCH  20  31
ATOM     31  C   UNL     1      -7.221  -8.733  -1.392  0.00  0.00    +0.148 C 
BRANCH  31  32
ATOM     32  C   UNL     1      -8.605  -9.260  -1.670  0.00  0.00    -0.030 A 
ATOM     33  C   UNL     1      -9.233 -10.075  -0.747  0.00  0.00    +0.005 A 
ATOM     34  C   UNL     1     -10.502 -10.559  -1.002  0.00  0.00    +0.000 A 
ATOM     35  C   UNL     1     -11.145 -10.227  -2.180  0.00  0.00    +0.000 A 
ATOM     36  C   UNL     1     -10.518  -9.412  -3.103  0.00  0.00    +0.000 A 
ATOM     37  C   UNL     1      -9.250  -8.925  -2.846  0.00  0.00    +0.005 A 
ENDBRANCH  31  32
ENDBRANCH  20  31
TORSDOF 4
