REMARK  Name = ZINC64212900
REMARK  6 active torsions:
REMARK  status: ('A' for Active; 'I' for Inactive)
REMARK    1  A    between atoms: C_7  and  C_10
REMARK    2  A    between atoms: C_10  and  C_12
REMARK    3  A    between atoms: C_10  and  C_28
REMARK    4  A    between atoms: C_12  and  N_13
REMARK    5  A    between atoms: C_14  and  C_16
REMARK    6  A    between atoms: C_16  and  N_17
REMARK                            x       y       z     vdW  Elec       q    Type
REMARK                         _______ _______ _______ _____ _____    ______ ____
ROOT
ATOM      1  C   UNL     1       0.792  -3.885   1.418  0.00  0.00    +0.113 C 
ENDROOT
BRANCH   1   2
ATOM      2  N   UNL     1      -0.383  -4.711   1.706  0.00  0.00    -0.313 N 
ATOM      3  C   UNL     1      -0.521  -5.290   2.915  0.00  0.00    +0.231 C 
ATOM      4  O   UNL     1       0.328  -5.126   3.766  0.00  0.00    -0.274 OA
ATOM      5  H   UNL     1      -1.062  -4.842   1.025  0.00  0.00    +0.149 HD
BRANCH   3   6
ATOM      6  C   UNL     1      -1.730  -6.139   3.211  0.00  0.00    +0.213 C 
BRANCH   6   7
ATOM      7  N   UNL     1      -1.645  -6.649   4.582  0.00  0.00    -0.215 N 
ATOM      8  C   UNL     1      -1.052  -7.814   4.923  0.00  0.00    +0.247 C 
ATOM      9  O   UNL     1      -0.509  -8.607   4.185  0.00  0.00    -0.273 OA
ATOM     10  C   UNL     1      -1.209  -7.916   6.419  0.00  0.00    +0.113 C 
ATOM     11  C   UNL     1       0.157  -7.985   7.114  0.00  0.00    +0.035 C 
ATOM     12  C   UNL     1      -0.082  -8.930   8.319  0.00  0.00    +0.003 C 
ATOM     13  C   UNL     1      -1.058  -9.986   7.741  0.00  0.00    +0.003 C 
ATOM     14  C   UNL     1      -1.988  -9.174   6.811  0.00  0.00    +0.035 C 
ATOM     15  N   UNL     1      -1.933  -6.700   6.795  0.00  0.00    -0.285 N 
ATOM     16  C   UNL     1      -2.141  -6.016   5.652  0.00  0.00    +0.310 C 
ATOM     17  O   UNL     1      -2.716  -4.947   5.599  0.00  0.00    -0.252 OA
ATOM     18  H   UNL     1      -2.206  -6.438   7.689  0.00  0.00    +0.151 HD
ENDBRANCH   6   7
ENDBRANCH   3   6
ENDBRANCH   1   2
BRANCH   1  19
ATOM     19  C   UNL     1       0.784  -3.481  -0.057  0.00  0.00    +0.048 C 
BRANCH  19  26
ATOM     20  C   UNL     1       0.778   0.840  -1.602  0.00  0.00    +0.001 A 
ATOM     21  C   UNL     1       2.057   1.406  -1.692  0.00  0.00    +0.002 A 
ATOM     22  C   UNL     1       3.178   0.734  -1.353  0.00  0.00    +0.026 A 
ATOM     23  C   UNL     1       3.098  -0.606  -0.881  0.00  0.00    +0.043 A 
ATOM     24  N   UNL     1       4.022  -1.453  -0.498  0.00  0.00    -0.380 N 
ATOM     25  C   UNL     1       3.372  -2.708  -0.106  0.00  0.00    +0.145 C 
ATOM     26  C   UNL     1       1.890  -2.490  -0.314  0.00  0.00    -0.036 C 
ATOM     27  C   UNL     1       1.758  -1.226  -0.777  0.00  0.00    -0.001 A 
ATOM     28  C   UNL     1       0.590  -0.427  -1.165  0.00  0.00    +0.010 A 
ATOM     29  H   UNL     1       4.976  -1.278  -0.476  0.00  0.00    +0.160 HD
ENDBRANCH  19  26
BRANCH  19  30
ATOM     30  C   UNL     1       0.999  -4.722  -0.927  0.00  0.00    +0.063 C 
ATOM     31  C   UNL     1       0.900  -4.382  -2.437  0.00  0.00    +0.042 C 
ATOM     32  C   UNL     1       0.200  -5.474  -3.181  0.00  0.00    -0.019 C 
ATOM     33  C   UNL     1      -0.539  -6.347  -2.523  0.00  0.00    +0.036 C 
ATOM     34  S   UNL     1      -0.422  -5.889  -0.802  0.00  0.00    -0.129 S 
ENDBRANCH  19  30
ENDBRANCH   1  19
TORSDOF 6
