REMARK  Name = ZINC00718367
REMARK  9 active torsions:
REMARK  status: ('A' for Active; 'I' for Inactive)
REMARK    1  A    between atoms: C_1  and  O_2
REMARK    2  A    between atoms: O_2  and  C_3
REMARK    3  A    between atoms: C_7  and  C_18
REMARK    4  A    between atoms: C_8  and  O_9
REMARK    5  A    between atoms: O_9  and  C_10
REMARK    6  A    between atoms: C_10  and  C_11
REMARK    7  A    between atoms: C_20  and  C_37
REMARK    8  A    between atoms: C_21  and  N_36
REMARK    9  A    between atoms: C_28  and  C_31
REMARK                            x       y       z     vdW  Elec       q    Type
REMARK                         _______ _______ _______ _____ _____    ______ ____
ROOT
ATOM      1  C   UNL     1      -2.549  -4.175   0.017  0.00  0.00    +0.105 C 
ATOM      2  C   UNL     1      -3.263  -4.643   1.253  0.00  0.00    +0.098 C 
ATOM      3  C   UNL     1      -4.555  -5.050   1.190  0.00  0.00    +0.198 C 
ATOM      4  O   UNL     1      -5.228  -5.041   0.027  0.00  0.00    -0.445 OA
ATOM      5  C   UNL     1      -4.564  -5.042  -1.145  0.00  0.00    +0.115 C 
ATOM      6  C   UNL     1      -3.284  -4.644  -1.216  0.00  0.00    +0.046 C 
ATOM      7  C   UNL     1      -2.588  -4.652  -2.440  0.00  0.00    +0.164 C 
ATOM      8  O   UNL     1      -1.435  -4.272  -2.473  0.00  0.00    -0.292 OA
ATOM      9  C   UNL     1      -3.247  -5.123  -3.708  0.00  0.00    +0.091 C 
ATOM     10  C   UNL     1      -4.330  -6.147  -3.352  0.00  0.00    +0.070 C 
ATOM     11  C   UNL     1      -5.303  -5.497  -2.380  0.00  0.00    +0.086 C 
ENDROOT
BRANCH   1  16
ATOM     12  C   UNL     1      -1.201  -0.638   0.010  0.00  0.00    +0.162 A 
ATOM     13  C   UNL     1      -2.374   0.099   0.019  0.00  0.00    +0.049 A 
ATOM     14  C   UNL     1      -3.596  -0.546   0.027  0.00  0.00    +0.004 A 
ATOM     15  C   UNL     1      -3.652  -1.928   0.026  0.00  0.00    +0.008 A 
ATOM     16  C   UNL     1      -2.485  -2.669   0.017  0.00  0.00    +0.011 A 
ATOM     17  C   UNL     1      -1.257  -2.028   0.003  0.00  0.00    +0.166 A 
BRANCH  12  19
ATOM     18  C   UNL     1      -0.017   1.425   0.010  0.00  0.00    +0.277 C 
ATOM     19  O   UNL     1       0.002  -0.004   0.002  0.00  0.00    -0.491 OA
ENDBRANCH  12  19
BRANCH  17  20
ATOM     20  O   UNL     1      -0.108  -2.756  -0.012  0.00  0.00    -0.483 OA
BRANCH  20  21
ATOM     21  C   UNL     1       0.452  -3.110   1.254  0.00  0.00    +0.264 C 
BRANCH  21  22
ATOM     22  C   UNL     1       1.712  -3.909   1.041  0.00  0.00    -0.010 A 
ATOM     23  C   UNL     1       1.647  -5.286   0.938  0.00  0.00    +0.010 A 
ATOM     24  C   UNL     1       2.802  -6.020   0.741  0.00  0.00    +0.039 A 
ATOM     25  C   UNL     1       4.024  -5.375   0.648  0.00  0.00    +0.123 A 
ATOM     26  C   UNL     1       4.087  -3.995   0.751  0.00  0.00    +0.039 A 
ATOM     27  C   UNL     1       2.930  -3.264   0.942  0.00  0.00    +0.010 A 
ATOM     28  F   UNL     1       5.153  -6.091   0.456  0.00  0.00    -0.205 F 
ENDBRANCH  21  22
ENDBRANCH  20  21
ENDBRANCH  17  20
ENDBRANCH   1  16
BRANCH  10  29
ATOM     29  C   UNL     1      -5.061  -6.566  -4.602  0.00  0.00    +0.109 A 
ATOM     30  C   UNL     1      -5.141  -7.820  -5.083  0.00  0.00    +0.045 A 
ATOM     31  C   UNL     1      -5.916  -7.756  -6.264  0.00  0.00    +0.041 A 
ATOM     32  C   UNL     1      -6.263  -6.468  -6.434  0.00  0.00    +0.195 A 
ATOM     33  O   UNL     1      -5.747  -5.753  -5.421  0.00  0.00    -0.468 OA
ENDBRANCH  10  29
BRANCH   3  34
ATOM     34  N   UNL     1      -5.185  -5.476   2.332  0.00  0.00    -0.328 N 
ATOM     35  H   UNL     1      -4.707  -5.485   3.176  0.00  0.00    +0.145 HD
ATOM     36  H   UNL     1      -6.109  -5.769   2.296  0.00  0.00    +0.145 HD
ENDBRANCH   3  34
BRANCH   2  37
ATOM     37  C   UNL     1      -2.574  -4.661   2.508  0.00  0.00    +0.101 C 
ATOM     38  N   UNL     1      -2.027  -4.675   3.504  0.00  0.00    -0.191 NA
ENDBRANCH   2  37
TORSDOF 8
