REMARK  Name = ZINC09406883
REMARK  7 active torsions:
REMARK  status: ('A' for Active; 'I' for Inactive)
REMARK    1  A    between atoms: C_1  and  N_2
REMARK    2  A    between atoms: N_2  and  C_3
REMARK    3  A    between atoms: N_2  and  S_18
REMARK    4  A    between atoms: C_3  and  C_4
REMARK    5  A    between atoms: N_6  and  C_7
REMARK    6  A    between atoms: S_18  and  C_21
REMARK    7  A    between atoms: C_28  and  C_31
REMARK                            x       y       z     vdW  Elec       q    Type
REMARK                         _______ _______ _______ _____ _____    ______ ____
ROOT
ATOM      1  S   UNL     1       0.572   8.712  -0.823  0.00  0.00    +0.061 S 
ATOM      2  O   UNL     1       0.986   9.444   0.322  0.00  0.00    -0.153 OA
ATOM      3  O   UNL     1       1.125   7.447  -1.159  0.00  0.00    -0.153 OA
ENDROOT
BRANCH   1   4
ATOM      4  C   UNL     1       0.834   9.762  -2.214  0.00  0.00    +0.108 A 
ATOM      5  C   UNL     1       1.009   9.204  -3.472  0.00  0.00    +0.030 A 
ATOM      6  C   UNL     1       1.210  10.010  -4.573  0.00  0.00    +0.030 A 
ATOM      7  C   UNL     1       1.247  11.389  -4.418  0.00  0.00    +0.067 A 
ATOM      8  C   UNL     1       1.075  11.954  -3.142  0.00  0.00    +0.091 A 
ATOM      9  C   UNL     1       0.868  11.116  -2.041  0.00  0.00    +0.058 A 
ATOM     10  N   UNL     1       1.157  13.299  -3.286  0.00  0.00    -0.228 NA
ATOM     11  C   UNL     1       1.365  13.595  -4.545  0.00  0.00    +0.139 A 
ATOM     12  N   UNL     1       1.428  12.447  -5.287  0.00  0.00    -0.338 N 
ATOM     13  H   UNL     1       1.578  12.385  -6.274  0.00  0.00    +0.167 HD
BRANCH  11  14
ATOM     14  C   UNL     1       1.509  14.965  -5.085  0.00  0.00    +0.017 A 
ATOM     15  C   UNL     1       1.734  15.161  -6.448  0.00  0.00    +0.011 A 
ATOM     16  C   UNL     1       1.863  16.442  -6.945  0.00  0.00    +0.001 A 
ATOM     17  C   UNL     1       1.780  17.529  -6.094  0.00  0.00    +0.000 A 
ATOM     18  C   UNL     1       1.562  17.341  -4.740  0.00  0.00    +0.001 A 
ATOM     19  C   UNL     1       1.427  16.066  -4.231  0.00  0.00    +0.011 A 
ENDBRANCH  11  14
ENDBRANCH   1   4
BRANCH   1  21
ATOM     20  C   UNL     1      -1.857   9.409   0.141  0.00  0.00    +0.132 C 
ATOM     21  N   UNL     1      -1.063   8.490  -0.678  0.00  0.00    -0.171 NA
BRANCH  21  22
ATOM     22  C   UNL     1      -1.715   7.375  -1.368  0.00  0.00    +0.204 C 
BRANCH  22  23
ATOM     23  C   UNL     1      -1.835   6.203  -0.428  0.00  0.00    +0.229 C 
ATOM     24  O   UNL     1      -1.418   6.292   0.707  0.00  0.00    -0.274 OA
ATOM     25  N   UNL     1      -2.408   5.058  -0.848  0.00  0.00    -0.307 N 
ATOM     26  H   UNL     1      -2.741   4.987  -1.756  0.00  0.00    +0.149 HD
BRANCH  25  27
ATOM     27  C   UNL     1      -2.525   3.919   0.066  0.00  0.00    +0.103 C 
ATOM     28  C   UNL     1      -3.706   3.050  -0.361  0.00  0.00    +0.027 C 
ATOM     29  C   UNL     1      -3.682   1.760   0.467  0.00  0.00    +0.007 C 
ATOM     30  C   UNL     1      -2.487   0.921   0.018  0.00  0.00    +0.035 C 
ATOM     31  C   UNL     1      -1.228   1.748   0.017  0.00  0.00    -0.042 A 
ATOM     32  C   UNL     1      -1.245   3.125   0.037  0.00  0.00    -0.024 A 
ATOM     33  C   UNL     1      -0.048   3.828   0.028  0.00  0.00    +0.006 A 
ATOM     34  C   UNL     1       1.159   3.158   0.009  0.00  0.00    +0.000 A 
ATOM     35  C   UNL     1       1.176   1.776   0.000  0.00  0.00    +0.000 A 
ATOM     36  C   UNL     1      -0.013   1.076   0.008  0.00  0.00    +0.004 A 
ENDBRANCH  25  27
ENDBRANCH  22  23
ENDBRANCH  21  22
ENDBRANCH   1  21
TORSDOF 6
