REMARK  Name = ZINC01155883
REMARK  6 active torsions:
REMARK  status: ('A' for Active; 'I' for Inactive)
REMARK    1  A    between atoms: C_1  and  C_2
REMARK    2  A    between atoms: C_8  and  C_17
REMARK    3  A    between atoms: C_17  and  C_19
REMARK    4  A    between atoms: C_17  and  C_22
REMARK    5  A    between atoms: C_19  and  C_21
REMARK    6  A    between atoms: C_22  and  C_24
REMARK                            x       y       z     vdW  Elec       q    Type
REMARK                         _______ _______ _______ _____ _____    ______ ____
ROOT
ATOM      1  C   UNL     1       2.934  -4.559   0.361  0.00  0.00    +0.044 C 
ATOM      2  C   UNL     1       2.873  -3.057   0.258  0.00  0.00    -0.050 A 
ATOM      3  C   UNL     1       4.041  -2.317   0.237  0.00  0.00    +0.007 A 
ATOM      4  C   UNL     1       3.985  -0.941   0.142  0.00  0.00    +0.047 A 
ATOM      5  C   UNL     1       2.755  -0.297   0.068  0.00  0.00    +0.132 A 
ATOM      6  C   UNL     1       1.587  -1.040   0.089  0.00  0.00    +0.004 A 
ATOM      7  C   UNL     1       1.649  -2.419   0.184  0.00  0.00    +0.011 A 
ATOM      8  C   UNL     1       0.244  -0.366   0.010  0.00  0.00    +0.074 C 
ATOM      9  C   UNL     1       0.366   1.094   0.354  0.00  0.00    +0.003 A 
ATOM     10  C   UNL     1      -0.766   1.803   0.714  0.00  0.00    +0.008 A 
ATOM     11  C   UNL     1      -0.675   3.146   1.028  0.00  0.00    +0.001 A 
ATOM     12  C   UNL     1       0.552   3.782   0.995  0.00  0.00    +0.004 A 
ATOM     13  C   UNL     1       1.686   3.078   0.642  0.00  0.00    +0.046 A 
ATOM     14  C   UNL     1       1.597   1.729   0.320  0.00  0.00    +0.132 A 
ATOM     15  O   UNL     1       2.720   1.054  -0.023  0.00  0.00    -0.455 OA
ENDROOT
BRANCH   8  16
ATOM     16  C   UNL     1      -0.308  -0.505  -1.410  0.00  0.00    +0.138 C 
BRANCH  16  17
ATOM     17  C   UNL     1      -1.639   0.195  -1.503  0.00  0.00    +0.142 C 
ATOM     18  O   UNL     1      -1.696   1.333  -1.902  0.00  0.00    -0.297 OA
ATOM     19  C   UNL     1      -2.899  -0.525  -1.097  0.00  0.00    +0.086 C 
ENDBRANCH  16  17
BRANCH  16  20
ATOM     20  C   UNL     1       0.656   0.117  -2.387  0.00  0.00    +0.174 C 
ATOM     21  O   UNL     1       1.254   1.129  -2.088  0.00  0.00    -0.291 OA
BRANCH  20  22
ATOM     22  C   UNL     1       0.873  -0.504  -3.702  0.00  0.00    +0.018 A 
ATOM     23  C   UNL     1       0.190  -1.675  -4.047  0.00  0.00    +0.014 A 
ATOM     24  C   UNL     1       0.394  -2.249  -5.283  0.00  0.00    +0.039 A 
ATOM     25  C   UNL     1       1.282  -1.674  -6.180  0.00  0.00    +0.123 A 
ATOM     26  C   UNL     1       1.966  -0.515  -5.842  0.00  0.00    +0.039 A 
ATOM     27  C   UNL     1       1.768   0.071  -4.611  0.00  0.00    +0.014 A 
ATOM     28  F   UNL     1       1.482  -2.245  -7.388  0.00  0.00    -0.205 F 
ENDBRANCH  20  22
ENDBRANCH  16  20
ENDBRANCH   8  16
TORSDOF 4
