REMARK  Name = ZINC02205298
REMARK  2 active torsions:
REMARK  status: ('A' for Active; 'I' for Inactive)
REMARK    1  A    between atoms: C_1  and  C_2
REMARK    2  A    between atoms: C_5  and  C_8
REMARK                            x       y       z     vdW  Elec       q    Type
REMARK                         _______ _______ _______ _____ _____    ______ ____
ROOT
ATOM      1  C   UNL     1       0.059  -4.275  -0.021  0.00  0.00    +0.062 C 
ATOM      2  C   UNL     1      -1.172  -4.808   0.709  0.00  0.00    +0.109 C 
ATOM      3  C   UNL     1      -1.061  -4.625   2.197  0.00  0.00    +0.218 C 
ATOM      4  O   UNL     1      -2.035  -4.286   2.834  0.00  0.00    -0.275 OA
ATOM      5  N   UNL     1       0.117  -4.835   2.833  0.00  0.00    -0.280 N 
ATOM      6  C   UNL     1       1.238  -5.006   2.057  0.00  0.00    +0.078 A 
ATOM      7  C   UNL     1       1.312  -4.775   0.695  0.00  0.00    +0.011 A 
ATOM      8  C   UNL     1       2.523  -5.016   0.068  0.00  0.00    +0.054 A 
ATOM      9  C   UNL     1       3.590  -5.448   0.877  0.00  0.00    +0.097 A 
ATOM     10  S   UNL     1       2.875  -5.517   2.501  0.00  0.00    -0.067 S 
ATOM     11  C   UNL     1       4.871  -5.722   0.401  0.00  0.00    +0.254 C 
ATOM     12  O   UNL     1       5.724  -6.218   1.116  0.00  0.00    -0.270 OA
ATOM     13  N   UNL     1       5.124  -5.412  -0.896  0.00  0.00    -0.290 N 
ATOM     14  C   UNL     1       4.194  -4.606  -1.686  0.00  0.00    +0.099 C 
ATOM     15  N   UNL     1       2.795  -4.865  -1.311  0.00  0.00    -0.322 N 
ATOM     16  C   UNL     1       4.377  -4.936  -3.171  0.00  0.00    +0.045 C 
ATOM     17  C   UNL     1       5.822  -4.648  -3.581  0.00  0.00    +0.004 C 
ATOM     18  C   UNL     1       6.133  -3.168  -3.351  0.00  0.00    +0.000 C 
ATOM     19  C   UNL     1       5.944  -2.831  -1.871  0.00  0.00    +0.004 C 
ATOM     20  C   UNL     1       4.499  -3.121  -1.462  0.00  0.00    +0.045 C 
ATOM     21  H   UNL     1       0.166  -4.864   3.801  0.00  0.00    +0.155 HD
ATOM     22  H   UNL     1       5.941  -5.733  -1.308  0.00  0.00    +0.151 HD
ATOM     23  H   UNL     1       2.094  -4.930  -1.977  0.00  0.00    +0.148 HD
ENDROOT
BRANCH   1  28
ATOM     24  C   UNL     1      -0.018   1.503   0.010  0.00  0.00    +0.044 C 
ATOM     25  C   UNL     1       0.002  -0.004   0.002  0.00  0.00    -0.050 A 
ATOM     26  C   UNL     1       0.006  -0.689  -1.199  0.00  0.00    +0.003 A 
ATOM     27  C   UNL     1       0.025  -2.071  -1.206  0.00  0.00    +0.004 A 
ATOM     28  C   UNL     1       0.040  -2.768  -0.013  0.00  0.00    -0.039 A 
ATOM     29  C   UNL     1       0.037  -2.084   1.188  0.00  0.00    +0.004 A 
ATOM     30  C   UNL     1       0.023  -0.702   1.195  0.00  0.00    +0.003 A 
ENDBRANCH   1  28
TORSDOF 1
