REMARK  Name = ZINC20190722
REMARK  13 active torsions:
REMARK  status: ('A' for Active; 'I' for Inactive)
REMARK    1  A    between atoms: C_1  and  C_2
REMARK    2  A    between atoms: C_2  and  S_3
REMARK    3  A    between atoms: S_3  and  C_4
REMARK    4  A    between atoms: C_4  and  C_5
REMARK    5  A    between atoms: C_5  and  O_6
REMARK    6  A    between atoms: O_6  and  C_7
REMARK    7  A    between atoms: C_7  and  C_9
REMARK    8  A    between atoms: C_10  and  C_35
REMARK    9  A    between atoms: C_14  and  C_16
REMARK   10  A    between atoms: C_25  and  C_31
REMARK   11  A    between atoms: C_27  and  C_30
REMARK   12  A    between atoms: C_31  and  O_33
REMARK   13  A    between atoms: O_33  and  C_34
REMARK                            x       y       z     vdW  Elec       q    Type
REMARK                         _______ _______ _______ _____ _____    ______ ____
ROOT
ATOM      1  C   UNL     1      -6.224   3.963   4.096  0.00  0.00    +0.065 C 
ATOM      2  C   UNL     1      -5.866   5.165   4.579  0.00  0.00    +0.016 C 
ATOM      3  N   UNL     1      -4.680   5.734   4.209  0.00  0.00    -0.321 N 
ATOM      4  C   UNL     1      -3.673   4.970   3.683  0.00  0.00    +0.016 C 
ATOM      5  C   UNL     1      -3.938   3.755   3.157  0.00  0.00    +0.025 C 
ATOM      6  C   UNL     1      -5.347   3.217   3.134  0.00  0.00    +0.092 C 
ATOM      7  C   UNL     1      -2.914   2.961   2.614  0.00  0.00    +0.176 C 
ATOM      8  O   UNL     1      -3.184   1.865   2.164  0.00  0.00    -0.291 OA
ATOM      9  C   UNL     1      -1.489   3.443   2.579  0.00  0.00    +0.171 C 
ATOM     10  C   UNL     1      -1.483   4.973   2.513  0.00  0.00    +0.013 C 
ATOM     11  C   UNL     1      -2.266   5.514   3.711  0.00  0.00    +0.055 C 
ATOM     12  C   UNL     1      -2.146   5.435   1.214  0.00  0.00    +0.009 C 
ATOM     13  C   UNL     1      -6.777   5.888   5.537  0.00  0.00    +0.061 C 
ATOM     14  H   UNL     1      -4.527   6.817   4.332  0.00  0.00    +0.152 HD
ENDROOT
BRANCH   6  15
ATOM     15  C   UNL     1      -5.907   3.357   1.742  0.00  0.00    -0.034 A 
ATOM     16  C   UNL     1      -6.316   2.235   1.045  0.00  0.00    +0.004 A 
ATOM     17  C   UNL     1      -6.830   2.363  -0.231  0.00  0.00    +0.001 A 
ATOM     18  C   UNL     1      -6.936   3.614  -0.812  0.00  0.00    +0.015 A 
ATOM     19  C   UNL     1      -6.528   4.736  -0.115  0.00  0.00    +0.018 A 
ATOM     20  C   UNL     1      -6.019   4.608   1.165  0.00  0.00    +0.019 A 
ATOM     21 BR   UNL     1      -6.673   6.447  -0.908  0.00  0.00    -0.050 Br
ENDBRANCH   6  15
BRANCH   1  22
ATOM     22  C   UNL     1      -7.453   3.390   4.501  0.00  0.00    +0.338 C 
ATOM     23  O   UNL     1      -8.174   3.985   5.280  0.00  0.00    -0.245 OA
BRANCH  22  24
ATOM     24  O   UNL     1      -7.825   2.184   4.023  0.00  0.00    -0.460 OA
BRANCH  24  25
ATOM     25  C   UNL     1      -9.078   1.667   4.474  0.00  0.00    +0.243 C 
BRANCH  25  26
ATOM     26  C   UNL     1      -9.328   0.301   3.830  0.00  0.00    +0.110 C 
BRANCH  26  27
ATOM     27  S   UNL     1     -10.918  -0.356   4.404  0.00  0.00    -0.158 S 
BRANCH  27  29
ATOM     28  C   UNL     1     -12.377  -2.627   3.959  0.00  0.00    +0.015 C 
ATOM     29  C   UNL     1     -11.062  -1.956   3.560  0.00  0.00    +0.066 C 
ENDBRANCH  27  29
ENDBRANCH  26  27
ENDBRANCH  25  26
ENDBRANCH  24  25
ENDBRANCH  22  24
ENDBRANCH   1  22
BRANCH   9  30
ATOM     30  C   UNL     1      -0.797   2.883   1.363  0.00  0.00    +0.318 C 
ATOM     31  O   UNL     1      -0.336   3.630   0.533  0.00  0.00    -0.250 OA
BRANCH  30  32
ATOM     32  O   UNL     1      -0.692   1.554   1.203  0.00  0.00    -0.467 OA
ATOM     33  C   UNL     1      -0.013   1.086   0.008  0.00  0.00    +0.280 C 
ENDBRANCH  30  32
ENDBRANCH   9  30
TORSDOF 9
