REMARK  Name = ZINC06932003
REMARK  4 active torsions:
REMARK  status: ('A' for Active; 'I' for Inactive)
REMARK    1  A    between atoms: C_1  and  C_2
REMARK    2  A    between atoms: C_5  and  C_25
REMARK    3  A    between atoms: N_12  and  C_13
REMARK    4  A    between atoms: N_15  and  C_24
REMARK                            x       y       z     vdW  Elec       q    Type
REMARK                         _______ _______ _______ _____ _____    ______ ____
ROOT
ATOM      1  C   UNL     1      -0.059   1.418  -0.177  0.00  0.00    +0.009 C 
ATOM      2  C   UNL     1      -0.035  -0.108  -0.075  0.00  0.00    +0.004 C 
ATOM      3  C   UNL     1      -1.469  -0.637   0.012  0.00  0.00    +0.009 C 
ATOM      4  C   UNL     1      -1.448  -2.166   0.081  0.00  0.00    +0.004 C 
ATOM      5  C   UNL     1      -0.693  -2.606   1.339  0.00  0.00    +0.112 C 
ATOM      6  N   UNL     1       0.638  -1.983   1.334  0.00  0.00    -0.285 N 
ATOM      7  C   UNL     1       0.736  -0.525   1.181  0.00  0.00    +0.112 C 
ATOM      8  C   UNL     1       1.748  -2.736   1.468  0.00  0.00    +0.307 C 
ATOM      9  O   UNL     1       1.652  -3.928   1.685  0.00  0.00    -0.252 OA
ATOM     10  N   UNL     1       2.965  -2.166   1.360  0.00  0.00    -0.267 N 
ATOM     11  C   UNL     1      -2.883  -2.694   0.134  0.00  0.00    +0.009 C 
ATOM     12  H   UNL     1       3.044  -1.203   1.279  0.00  0.00    +0.156 HD
ENDROOT
BRANCH  10  13
ATOM     13  C   UNL     1       4.117  -2.967   1.365  0.00  0.00    +0.059 A 
ATOM     14  C   UNL     1       4.014  -4.309   1.298  0.00  0.00    +0.112 A 
ATOM     15  N   UNL     1       5.111  -5.128   1.300  0.00  0.00    -0.316 N 
ATOM     16  C   UNL     1       6.367  -4.647   1.371  0.00  0.00    +0.259 A 
ATOM     17  O   UNL     1       7.319  -5.409   1.370  0.00  0.00    -0.267 OA
ATOM     18  C   UNL     1       6.579  -3.198   1.447  0.00  0.00    +0.048 A 
ATOM     19  C   UNL     1       5.447  -2.351   1.438  0.00  0.00    +0.010 A 
ATOM     20  C   UNL     1       5.617  -0.969   1.504  0.00  0.00    +0.010 A 
ATOM     21  C   UNL     1       6.878  -0.445   1.571  0.00  0.00    +0.001 A 
ATOM     22  C   UNL     1       7.994  -1.271   1.574  0.00  0.00    +0.001 A 
ATOM     23  C   UNL     1       7.856  -2.641   1.522  0.00  0.00    +0.014 A 
ATOM     24  C   UNL     1       4.912  -6.578   1.224  0.00  0.00    +0.152 C 
ENDBRANCH  10  13
TORSDOF 1
