REMARK  Name = ZINC09765147
REMARK  7 active torsions:
REMARK  status: ('A' for Active; 'I' for Inactive)
REMARK    1  A    between atoms: C_1  and  C_2
REMARK    2  A    between atoms: C_3  and  C_32
REMARK    3  A    between atoms: C_7  and  N_16
REMARK    4  A    between atoms: C_9  and  C_11
REMARK    5  A    between atoms: C_11  and  N_62
REMARK    6  A    between atoms: C_21  and  C_22
REMARK    7  A    between atoms: C_21  and  N_64
REMARK                            x       y       z     vdW  Elec       q    Type
REMARK                         _______ _______ _______ _____ _____    ______ ____
ROOT
ATOM      1  C   UNL     1      -5.435   1.632   5.237  0.00  0.00    +0.045 C 
ATOM      2  C   UNL     1      -5.453   2.624   6.371  0.00  0.00    -0.028 A 
ATOM      3  C   UNL     1      -5.891   2.259   7.585  0.00  0.00    -0.008 A 
ATOM      4  S   UNL     1      -5.720   3.746   8.554  0.00  0.00    -0.074 S 
ATOM      5  C   UNL     1      -5.064   4.817   7.302  0.00  0.00    +0.114 A 
ATOM      6  C   UNL     1      -4.997   3.987   6.162  0.00  0.00    +0.051 A 
ATOM      7  C   UNL     1      -4.494   4.608   4.985  0.00  0.00    +0.133 A 
ATOM      8  N   UNL     1      -4.129   5.879   5.032  0.00  0.00    -0.219 NA
ATOM      9  C   UNL     1      -4.225   6.598   6.136  0.00  0.00    +0.116 A 
ATOM     10  N   UNL     1      -4.683   6.079   7.258  0.00  0.00    -0.227 NA
ATOM     11  C   UNL     1      -6.406   0.913   8.024  0.00  0.00    +0.052 C 
ENDROOT
BRANCH   7  12
ATOM     12  N   UNL     1      -4.383   3.890   3.808  0.00  0.00    -0.318 N 
ATOM     13  C   UNL     1      -5.210   4.485   2.749  0.00  0.00    +0.088 C 
ATOM     14  C   UNL     1      -5.122   3.619   1.490  0.00  0.00    -0.059 C 
ATOM     15  C   UNL     1      -2.892   2.924   2.123  0.00  0.00    -0.059 C 
ATOM     16  C   UNL     1      -2.980   3.790   3.382  0.00  0.00    +0.088 C 
ATOM     17  N   UNL     1      -3.710   3.545   1.060  0.00  0.00    +0.385 N 
ATOM     18  H   UNL     1      -3.364   4.496   0.885  0.00  0.00    -0.081 HD
BRANCH  17  19
ATOM     19  C   UNL     1      -3.601   2.757  -0.186  0.00  0.00    -0.022 C 
BRANCH  19  20
ATOM     20  C   UNL     1      -2.197   2.881  -0.720  0.00  0.00    +0.033 A 
ATOM     21  C   UNL     1      -1.377   1.776  -0.799  0.00  0.00    +0.092 A 
ATOM     22  C   UNL     1      -0.080   1.911  -1.296  0.00  0.00    +0.259 A 
ATOM     23  O   UNL     1       0.651   0.936  -1.369  0.00  0.00    -0.267 OA
ATOM     24  N   UNL     1       0.371   3.136  -1.701  0.00  0.00    -0.262 N 
ATOM     25  C   UNL     1       1.614   3.427  -2.209  0.00  0.00    +0.104 A 
ATOM     26  C   UNL     1       1.936   4.669  -2.570  0.00  0.00    +0.067 A 
ATOM     27  S   UNL     1       0.432   5.559  -2.201  0.00  0.00    -0.058 S 
ATOM     28  C   UNL     1      -0.510   4.179  -1.588  0.00  0.00    +0.180 A 
ATOM     29  N   UNL     1      -1.727   4.060  -1.118  0.00  0.00    -0.229 NA
ENDBRANCH  19  20
ENDBRANCH  17  19
ENDBRANCH   7  12
BRANCH   9  30
ATOM     30  C   UNL     1      -3.796   8.043   6.114  0.00  0.00    -0.001 C 
BRANCH  30  35
ATOM     31  C   UNL     1      -1.557   7.237   5.598  0.00  0.00    -0.078 C 
ATOM     32  C   UNL     1      -0.131   7.832   5.713  0.00  0.00    -0.020 C 
ATOM     33  C   UNL     1      -0.394   9.355   5.749  0.00  0.00    -0.020 C 
ATOM     34  C   UNL     1      -1.855   9.500   6.215  0.00  0.00    -0.078 C 
ATOM     35  N   UNL     1      -2.344   8.141   6.451  0.00  0.00    +0.384 N 
ATOM     36  H   UNL     1      -2.210   7.891   7.438  0.00  0.00    -0.081 HD
ENDBRANCH  30  35
ENDBRANCH   9  30
TORSDOF 5
