REMARK  Name = ZINC63830601
REMARK  6 active torsions:
REMARK  status: ('A' for Active; 'I' for Inactive)
REMARK    1  A    between atoms: C_7  and  C_10
REMARK    2  A    between atoms: C_10  and  C_11
REMARK    3  A    between atoms: C_11  and  N_12
REMARK    4  A    between atoms: C_13  and  C_15
REMARK    5  A    between atoms: C_15  and  N_16
REMARK    6  A    between atoms: C_18  and  C_27
REMARK                            x       y       z     vdW  Elec       q    Type
REMARK                         _______ _______ _______ _____ _____    ______ ____
ROOT
ATOM      1  N   UNL     1      -1.868  -6.974  -4.130  0.00  0.00    -0.314 N 
ATOM      2  C   UNL     1      -2.962  -6.422  -4.948  0.00  0.00    +0.160 C 
ATOM      3  C   UNL     1      -3.716  -7.604  -5.572  0.00  0.00    +0.276 C 
ATOM      4  O   UNL     1      -2.799  -8.378  -6.349  0.00  0.00    -0.476 OA
ATOM      5  C   UNL     1      -1.623  -8.737  -5.769  0.00  0.00    +0.143 A 
ATOM      6  C   UNL     1      -1.132  -8.045  -4.662  0.00  0.00    +0.073 A 
ATOM      7  C   UNL     1       0.072  -8.414  -4.086  0.00  0.00    +0.027 A 
ATOM      8  C   UNL     1       0.792  -9.472  -4.612  0.00  0.00    +0.002 A 
ATOM      9  C   UNL     1       0.310 -10.158  -5.711  0.00  0.00    +0.004 A 
ATOM     10  C   UNL     1      -0.899  -9.800  -6.286  0.00  0.00    +0.047 A 
ENDROOT
BRANCH   3  11
ATOM     11  C   UNL     1      -4.821  -7.087  -6.457  0.00  0.00    +0.258 C 
ATOM     12  O   UNL     1      -4.688  -7.098  -7.662  0.00  0.00    -0.271 OA
ATOM     13  N   UNL     1      -5.958  -6.613  -5.909  0.00  0.00    -0.298 N 
ATOM     14  C   UNL     1      -6.093  -6.495  -4.451  0.00  0.00    +0.108 C 
ATOM     15  C   UNL     1      -6.505  -5.060  -4.108  0.00  0.00    +0.019 C 
ATOM     16  C   UNL     1      -7.770  -4.697  -4.888  0.00  0.00    +0.003 C 
ATOM     17  C   UNL     1      -7.485  -4.772  -6.390  0.00  0.00    +0.019 C 
ATOM     18  C   UNL     1      -7.082  -6.198  -6.758  0.00  0.00    +0.108 C 
ENDBRANCH   3  11
BRANCH   1  19
ATOM     19  C   UNL     1      -1.554  -6.421  -2.811  0.00  0.00    +0.201 C 
BRANCH  19  21
ATOM     20  N   UNL     1      -0.104  -4.654  -1.867  0.00  0.00    -0.314 N 
ATOM     21  C   UNL     1      -0.544  -5.313  -2.957  0.00  0.00    +0.230 C 
ATOM     22  O   UNL     1      -0.126  -5.015  -4.056  0.00  0.00    -0.274 OA
ATOM     23  H   UNL     1      -0.438  -4.892  -0.988  0.00  0.00    +0.149 HD
BRANCH  20  24
ATOM     24  C   UNL     1       0.879  -3.576  -2.010  0.00  0.00    +0.108 C 
BRANCH  24  25
ATOM     25  C   UNL     1       1.206  -2.999  -0.631  0.00  0.00    +0.052 C 
BRANCH  25  32
ATOM     26  C   UNL     1       0.783   1.556  -0.986  0.00  0.00    +0.001 A 
ATOM     27  C   UNL     1       2.008   2.227  -1.109  0.00  0.00    +0.002 A 
ATOM     28  C   UNL     1       3.194   1.582  -1.120  0.00  0.00    +0.026 A 
ATOM     29  C   UNL     1       3.244   0.166  -1.004  0.00  0.00    +0.043 A 
ATOM     30  N   UNL     1       4.250  -0.675  -0.990  0.00  0.00    -0.380 N 
ATOM     31  C   UNL     1       3.721  -2.036  -0.849  0.00  0.00    +0.144 C 
ATOM     32  C   UNL     1       2.217  -1.891  -0.778  0.00  0.00    -0.040 C 
ATOM     33  C   UNL     1       1.964  -0.566  -0.874  0.00  0.00    -0.001 A 
ATOM     34  C   UNL     1       0.718   0.210  -0.870  0.00  0.00    +0.010 A 
ATOM     35  H   UNL     1       5.188  -0.436  -1.062  0.00  0.00    +0.160 HD
ENDBRANCH  25  32
ENDBRANCH  24  25
ENDBRANCH  20  24
ENDBRANCH  19  21
ENDBRANCH   1  19
TORSDOF 6
