REMARK  Name = ZINC22847138
REMARK  8 active torsions:
REMARK  status: ('A' for Active; 'I' for Inactive)
REMARK    1  A    between atoms: C_1  and  C_2
REMARK    2  A    between atoms: C_3  and  N_11
REMARK    3  A    between atoms: C_7  and  N_8
REMARK    4  A    between atoms: C_12  and  C_14
REMARK    5  A    between atoms: C_15  and  C_16
REMARK    6  A    between atoms: N_21  and  C_22
REMARK    7  A    between atoms: C_26  and  C_28
REMARK    8  A    between atoms: C_32  and  C_34
REMARK                            x       y       z     vdW  Elec       q    Type
REMARK                         _______ _______ _______ _____ _____    ______ ____
ROOT
ATOM      1  C   UNL     1       3.764   8.101   0.601  0.00  0.00    +0.073 A 
ATOM      2  C   UNL     1       4.975   7.447   0.639  0.00  0.00    +0.076 A 
ATOM      3  S   UNL     1       4.436   5.745   0.542  0.00  0.00    -0.059 S 
ATOM      4  C   UNL     1       2.680   6.065   0.461  0.00  0.00    +0.172 A 
ATOM      5  N   UNL     1       2.645   7.381   0.506  0.00  0.00    -0.225 NA
ATOM      6  N   UNL     1       1.628   5.163   0.368  0.00  0.00    -0.219 N 
ATOM      7  C   UNL     1       0.366   5.612   0.215  0.00  0.00    +0.223 C 
ATOM      8  O   UNL     1       0.158   6.798   0.072  0.00  0.00    -0.275 OA
ATOM      9  C   UNL     1      -0.786   4.640   0.223  0.00  0.00    +0.110 C 
ENDROOT
BRANCH   6  10
ATOM     10  C   UNL     1       1.878   3.786   0.432  0.00  0.00    +0.044 A 
ATOM     11  C   UNL     1       1.404   3.042   1.505  0.00  0.00    +0.024 A 
ATOM     12  C   UNL     1       1.652   1.685   1.566  0.00  0.00    +0.002 A 
ATOM     13  C   UNL     1       2.373   1.067   0.560  0.00  0.00    +0.012 A 
ATOM     14  C   UNL     1       2.851   1.805  -0.506  0.00  0.00    +0.057 A 
ATOM     15  C   UNL     1       2.601   3.162  -0.576  0.00  0.00    +0.036 A 
BRANCH  14  16
ATOM     16  C   UNL     1       3.640   1.129  -1.597  0.00  0.00    +0.417 C 
ATOM     17  F   UNL     1       3.756  -0.236  -1.310  0.00  0.00    -0.166 F 
ATOM     18  F   UNL     1       2.982   1.294  -2.820  0.00  0.00    -0.166 F 
ATOM     19  F   UNL     1       4.915   1.700  -1.673  0.00  0.00    -0.166 F 
ENDBRANCH  14  16
ENDBRANCH   6  10
BRANCH   1  21
ATOM     20  C   UNL     1       2.510  10.197   0.617  0.00  0.00    +0.069 C 
ATOM     21  C   UNL     1       3.706   9.565   0.656  0.00  0.00    +0.033 C 
BRANCH  20  23
ATOM     22  N   UNL     1       1.263  12.240   0.632  0.00  0.00    -0.282 N 
ATOM     23  C   UNL     1       2.454  11.611   0.670  0.00  0.00    +0.241 C 
ATOM     24  O   UNL     1       3.482  12.258   0.751  0.00  0.00    -0.270 OA
ATOM     25  H   UNL     1       0.341  11.663   0.466  0.00  0.00    +0.155 HD
BRANCH  22  28
ATOM     26  C   UNL     1      -0.961  13.627  -0.476  0.00  0.00    +0.048 C 
ATOM     27  C   UNL     1       0.130  14.343   0.277  0.00  0.00    +0.001 A 
ATOM     28  C   UNL     1       1.198  13.626   0.802  0.00  0.00    +0.039 A 
ATOM     29  C   UNL     1       2.205  14.290   1.490  0.00  0.00    +0.024 A 
ATOM     30  C   UNL     1       2.139  15.660   1.656  0.00  0.00    +0.004 A 
ATOM     31  C   UNL     1       1.071  16.370   1.138  0.00  0.00    +0.033 A 
ATOM     32  C   UNL     1       0.067  15.711   0.451  0.00  0.00    +0.131 A 
BRANCH  32  33
ATOM     33  N   UNL     1      -1.074  16.475  -0.102  0.00  0.00    +0.057 N 
ATOM     34  O   UNL     1      -1.071  17.692  -0.057  0.00  0.00    -0.126 OA
ATOM     35  O   UNL     1      -2.015  15.887  -0.602  0.00  0.00    -0.126 OA
ENDBRANCH  32  33
ENDBRANCH  22  28
ENDBRANCH  20  23
ENDBRANCH   1  21
TORSDOF 6
