REMARK  Name = ZINC12489705
REMARK  9 active torsions:
REMARK  status: ('A' for Active; 'I' for Inactive)
REMARK    1  A    between atoms: C_4  and  C_7
REMARK    2  A    between atoms: C_7  and  C_9
REMARK    3  A    between atoms: C_7  and  N_19
REMARK    4  A    between atoms: N_11  and  C_12
REMARK    5  A    between atoms: C_12  and  C_13
REMARK    6  A    between atoms: N_19  and  C_20
REMARK    7  A    between atoms: C_27  and  C_29
REMARK    8  A    between atoms: C_29  and  N_30
REMARK    9  A    between atoms: C_31  and  C_33
REMARK                            x       y       z     vdW  Elec       q    Type
REMARK                         _______ _______ _______ _____ _____    ______ ____
ROOT
ATOM      1  N   UNL     1      -4.137   3.097   6.387  0.00  0.00    -0.253 N 
ATOM      2  C   UNL     1      -4.259   2.752   7.684  0.00  0.00    +0.238 C 
ATOM      3  O   UNL     1      -3.532   1.904   8.157  0.00  0.00    -0.274 OA
ENDROOT
BRANCH   1   4
ATOM      4  C   UNL     1      -4.976   4.076   5.842  0.00  0.00    +0.056 A 
ATOM      5  C   UNL     1      -6.297   3.772   5.543  0.00  0.00    +0.025 A 
ATOM      6  C   UNL     1      -7.124   4.742   5.010  0.00  0.00    +0.002 A 
ATOM      7  C   UNL     1      -6.635   6.011   4.763  0.00  0.00    +0.002 A 
ATOM      8  C   UNL     1      -5.318   6.316   5.053  0.00  0.00    +0.022 A 
ATOM      9  C   UNL     1      -4.486   5.352   5.592  0.00  0.00    +0.062 A 
ATOM     10 CL   UNL     1      -2.833   5.736   5.956  0.00  0.00    -0.082 Cl
ENDBRANCH   1   4
BRANCH   1  11
ATOM     11  C   UNL     1      -3.126   2.448   5.548  0.00  0.00    +0.197 C 
BRANCH  11  15
ATOM     12  C   UNL     1      -4.139  -1.669   5.028  0.00  0.00    +0.000 A 
ATOM     13  C   UNL     1      -2.846  -1.312   5.361  0.00  0.00    +0.000 A 
ATOM     14  C   UNL     1      -2.518   0.020   5.529  0.00  0.00    +0.006 A 
ATOM     15  C   UNL     1      -3.483   0.996   5.364  0.00  0.00    -0.018 A 
ATOM     16  C   UNL     1      -4.778   0.639   5.036  0.00  0.00    +0.006 A 
ATOM     17  C   UNL     1      -5.104  -0.693   4.862  0.00  0.00    +0.000 A 
ENDBRANCH  11  15
BRANCH  11  18
ATOM     18  C   UNL     1      -3.078   3.128   4.204  0.00  0.00    +0.239 C 
ATOM     19  O   UNL     1      -4.098   3.546   3.699  0.00  0.00    -0.273 OA
ATOM     20  N   UNL     1      -1.901   3.270   3.563  0.00  0.00    -0.311 N 
ATOM     21  H   UNL     1      -1.085   2.936   3.967  0.00  0.00    +0.149 HD
BRANCH  20  22
ATOM     22  C   UNL     1      -1.853   3.931   2.256  0.00  0.00    +0.135 C 
BRANCH  22  23
ATOM     23  C   UNL     1      -0.409   3.961   1.752  0.00  0.00    +0.135 C 
ATOM     24  C   UNL     1      -0.335   4.654   0.374  0.00  0.00    +0.035 C 
ATOM     25  C   UNL     1       0.990   5.448   0.423  0.00  0.00    +0.031 C 
ATOM     26  C   UNL     1       1.559   5.141   1.826  0.00  0.00    +0.160 C 
ATOM     27  O   UNL     1       0.410   4.778   2.622  0.00  0.00    -0.375 OA
ENDBRANCH  22  23
ENDBRANCH  20  22
ENDBRANCH  11  18
ENDBRANCH   1  11
BRANCH   2  28
ATOM     28  C   UNL     1      -5.298   3.420   8.547  0.00  0.00    +0.201 C 
BRANCH  28  29
ATOM     29  N   UNL     1      -5.229   2.874   9.905  0.00  0.00    -0.302 N 
ATOM     30  C   UNL     1      -6.071   3.325  10.856  0.00  0.00    +0.251 C 
ATOM     31  O   UNL     1      -6.888   4.186  10.587  0.00  0.00    -0.270 OA
ATOM     32  H   UNL     1      -4.578   2.188  10.120  0.00  0.00    +0.150 HD
BRANCH  30  33
ATOM     33  C   UNL     1      -6.002   2.779  12.215  0.00  0.00    +0.074 A 
ATOM     34  C   UNL     1      -6.766   3.101  13.325  0.00  0.00    +0.021 A 
ATOM     35  C   UNL     1      -6.490   2.429  14.490  0.00  0.00    +0.008 A 
ATOM     36  C   UNL     1      -5.501   1.498  14.500  0.00  0.00    +0.046 A 
ATOM     37  S   UNL     1      -4.918   1.522  12.868  0.00  0.00    -0.092 S 
ENDBRANCH  30  33
ENDBRANCH  28  29
ENDBRANCH   2  28
TORSDOF 9
