REMARK  Name = ZINC39699189
REMARK  6 active torsions:
REMARK  status: ('A' for Active; 'I' for Inactive)
REMARK    1  A    between atoms: C_7  and  C_10
REMARK    2  A    between atoms: C_10  and  C_11
REMARK    3  A    between atoms: C_11  and  N_12
REMARK    4  A    between atoms: C_13  and  C_15
REMARK    5  A    between atoms: C_20  and  C_29
REMARK    6  A    between atoms: C_22  and  C_25
REMARK                            x       y       z     vdW  Elec       q    Type
REMARK                         _______ _______ _______ _____ _____    ______ ____
ROOT
ATOM      1  C   UNL     1      -5.660   7.126  -2.507  0.00  0.00    +0.185 C 
ATOM      2  C   UNL     1      -7.071   7.144  -1.966  0.00  0.00    +0.047 C 
ATOM      3  C   UNL     1      -7.861   7.620  -2.954  0.00  0.00    +0.138 C 
ATOM      4  N   UNL     1      -9.202   7.818  -2.943  0.00  0.00    -0.228 NA
ATOM      5  C   UNL     1      -9.828   8.294  -4.004  0.00  0.00    +0.110 C 
ATOM      6  C   UNL     1      -9.062   8.614  -5.210  0.00  0.00    +0.061 C 
ATOM      7  C   UNL     1      -7.730   8.413  -5.210  0.00  0.00    +0.133 C 
ATOM      8  N   UNL     1      -7.114   7.914  -4.084  0.00  0.00    -0.213 N 
ATOM      9  N   UNL     1      -5.783   7.642  -3.881  0.00  0.00    -0.218 NA
ATOM     10  H   UNL     1      -5.445   6.968  -4.552  0.00  0.00    +0.146 HD
ENDROOT
BRANCH   5  11
ATOM     11  C   UNL     1     -11.284   8.504  -3.974  0.00  0.00    +0.153 A 
ATOM     12  C   UNL     1     -12.107   8.253  -2.917  0.00  0.00    +0.051 A 
ATOM     13  C   UNL     1     -13.408   8.595  -3.327  0.00  0.00    +0.042 A 
ATOM     14  C   UNL     1     -13.320   9.033  -4.601  0.00  0.00    +0.196 A 
ATOM     15  O   UNL     1     -12.036   8.982  -4.986  0.00  0.00    -0.461 OA
ENDBRANCH   5  11
BRANCH   1  17
ATOM     16  N   UNL     1      -4.962   5.047  -1.362  0.00  0.00    -0.313 N 
ATOM     17  C   UNL     1      -5.120   5.719  -2.519  0.00  0.00    +0.236 C 
ATOM     18  O   UNL     1      -4.826   5.191  -3.571  0.00  0.00    -0.274 OA
ATOM     19  H   UNL     1      -5.197   5.469  -0.520  0.00  0.00    +0.149 HD
BRANCH  16  20
ATOM     20  C   UNL     1      -4.437   3.680  -1.374  0.00  0.00    +0.109 C 
BRANCH  20  21
ATOM     21  C   UNL     1      -4.358   3.151   0.060  0.00  0.00    +0.056 C 
BRANCH  21  28
ATOM     22  C   UNL     1      -0.017   1.384   0.010  0.00  0.00    +0.001 A 
ATOM     23  C   UNL     1       0.002  -0.004   0.002  0.00  0.00    +0.002 A 
ATOM     24  C   UNL     1      -1.173  -0.723   0.009  0.00  0.00    +0.026 A 
ATOM     25  C   UNL     1      -2.392  -0.053   0.024  0.00  0.00    +0.047 A 
ATOM     26  N   UNL     1      -3.704  -0.472   0.034  0.00  0.00    -0.360 N 
ATOM     27  C   UNL     1      -4.539   0.612   0.047  0.00  0.00    +0.087 A 
ATOM     28  C   UNL     1      -3.818   1.744   0.047  0.00  0.00    -0.021 A 
ATOM     29  C   UNL     1      -2.406   1.353   0.032  0.00  0.00    +0.003 A 
ATOM     30  C   UNL     1      -1.203   2.062   0.030  0.00  0.00    +0.010 A 
ATOM     31  H   UNL     1      -3.993  -1.398   0.030  0.00  0.00    +0.165 HD
ENDBRANCH  21  28
ENDBRANCH  20  21
ENDBRANCH  16  20
ENDBRANCH   1  17
BRANCH   7  32
ATOM     32  C   UNL     1      -6.917   8.732  -6.438  0.00  0.00    +0.432 C 
ATOM     33  F   UNL     1      -7.760   9.220  -7.441  0.00  0.00    -0.165 F 
ATOM     34  F   UNL     1      -5.957   9.700  -6.123  0.00  0.00    -0.165 F 
ATOM     35  F   UNL     1      -6.278   7.572  -6.889  0.00  0.00    -0.165 F 
ENDBRANCH   7  32
TORSDOF 6
