REMARK  Name = ZINC11883404
REMARK  11 active torsions:
REMARK  status: ('A' for Active; 'I' for Inactive)
REMARK    1  A    between atoms: C_1  and  C_2
REMARK    2  A    between atoms: C_7  and  C_8
REMARK    3  A    between atoms: C_12  and  S_14
REMARK    4  A    between atoms: S_14  and  C_15
REMARK    5  A    between atoms: C_15  and  C_16
REMARK    6  A    between atoms: N_18  and  C_19
REMARK    7  A    between atoms: C_19  and  C_20
REMARK    8  A    between atoms: C_19  and  C_21
REMARK    9  A    between atoms: C_19  and  C_22
REMARK   10  A    between atoms: N_25  and  C_30
REMARK   11  A    between atoms: N_28  and  C_29
REMARK                            x       y       z     vdW  Elec       q    Type
REMARK                         _______ _______ _______ _____ _____    ______ ____
ROOT
ATOM      1  C   UNL     1      -2.440   3.922  -0.508  0.00  0.00    +0.163 A 
ATOM      2  N   UNL     1      -3.578   3.249  -0.635  0.00  0.00    -0.209 NA
ATOM      3  C   UNL     1      -4.712   3.889  -0.877  0.00  0.00    +0.154 A 
ATOM      4  C   UNL     1      -4.691   5.293  -0.996  0.00  0.00    +0.114 A 
ATOM      5  C   UNL     1      -3.467   5.966  -0.855  0.00  0.00    +0.116 A 
ATOM      6  N   UNL     1      -2.376   5.243  -0.608  0.00  0.00    -0.220 NA
ATOM      7  C   UNL     1      -5.950   5.991  -1.264  0.00  0.00    +0.268 A 
ATOM      8  O   UNL     1      -5.983   7.202  -1.375  0.00  0.00    -0.267 OA
ATOM      9  N   UNL     1      -7.076   5.252  -1.384  0.00  0.00    -0.263 N 
ATOM     10  C   UNL     1      -7.046   3.916  -1.262  0.00  0.00    +0.333 A 
ATOM     11  O   UNL     1      -8.086   3.298  -1.379  0.00  0.00    -0.246 OA
ATOM     12  N   UNL     1      -5.915   3.230  -1.016  0.00  0.00    -0.281 N 
ATOM     13  C   UNL     1      -5.963   1.771  -0.896  0.00  0.00    +0.155 C 
ATOM     14  C   UNL     1      -8.351   5.922  -1.652  0.00  0.00    +0.157 C 
ENDROOT
BRANCH   1  21
ATOM     15  C   UNL     1       0.007   5.355   0.065  0.00  0.00    +0.044 C 
ATOM     16  C   UNL     1      -0.009   3.849   0.040  0.00  0.00    -0.040 A 
ATOM     17  C   UNL     1       1.149   3.140   0.290  0.00  0.00    +0.004 A 
ATOM     18  C   UNL     1       1.136   1.758   0.267  0.00  0.00    +0.000 A 
ATOM     19  C   UNL     1      -0.037   1.076  -0.008  0.00  0.00    +0.001 A 
ATOM     20  C   UNL     1      -1.199   1.773  -0.266  0.00  0.00    +0.012 A 
ATOM     21  C   UNL     1      -1.193   3.167  -0.238  0.00  0.00    +0.022 A 
ENDBRANCH   1  21
BRANCH   5  22
ATOM     22  S   UNL     1      -3.378   7.721  -0.994  0.00  0.00    -0.096 S 
BRANCH  22  23
ATOM     23  C   UNL     1      -1.605   7.968  -0.726  0.00  0.00    +0.171 C 
BRANCH  23  24
ATOM     24  C   UNL     1      -1.285   9.438  -0.803  0.00  0.00    +0.224 C 
ATOM     25  O   UNL     1      -2.169  10.241  -1.018  0.00  0.00    -0.275 OA
ATOM     26  N   UNL     1      -0.017   9.862  -0.632  0.00  0.00    -0.310 N 
ATOM     27  H   UNL     1       0.690   9.221  -0.460  0.00  0.00    +0.149 HD
BRANCH  26  28
ATOM     28  C   UNL     1       0.293  11.292  -0.707  0.00  0.00    +0.026 C 
ATOM     29  C   UNL     1      -0.495  12.042   0.369  0.00  0.00    +0.031 C 
ATOM     30  C   UNL     1       1.792  11.501  -0.480  0.00  0.00    +0.031 C 
ATOM     31  C   UNL     1      -0.093  11.826  -2.087  0.00  0.00    +0.031 C 
ENDBRANCH  26  28
ENDBRANCH  23  24
ENDBRANCH  22  23
ENDBRANCH   5  22
TORSDOF 5
