REMARK  Name = ZINC32947289
REMARK  9 active torsions:
REMARK  status: ('A' for Active; 'I' for Inactive)
REMARK    1  A    between atoms: C_1  and  C_2
REMARK    2  A    between atoms: N_8  and  S_9
REMARK    3  A    between atoms: S_9  and  C_12
REMARK    4  A    between atoms: C_15  and  C_18
REMARK    5  A    between atoms: C_18  and  O_20
REMARK    6  A    between atoms: O_20  and  C_21
REMARK    7  A    between atoms: C_21  and  C_22
REMARK    8  A    between atoms: C_24  and  O_25
REMARK    9  A    between atoms: C_34  and  C_36
REMARK                            x       y       z     vdW  Elec       q    Type
REMARK                         _______ _______ _______ _____ _____    ______ ____
ROOT
ATOM      1  O   UNL     1      -0.704  -8.325   0.458  0.00  0.00    -0.456 OA
ENDROOT
BRANCH   1   2
ATOM      2  C   UNL     1      -0.743  -9.188   1.491  0.00  0.00    +0.339 C 
ATOM      3  O   UNL     1      -0.766  -8.771   2.631  0.00  0.00    -0.245 OA
BRANCH   2   7
ATOM      4  C   UNL     1      -0.789 -13.372   0.762  0.00  0.00    +0.106 A 
ATOM      5  C   UNL     1      -0.814 -12.899   2.062  0.00  0.00    +0.029 A 
ATOM      6  C   UNL     1      -0.799 -11.542   2.306  0.00  0.00    +0.017 A 
ATOM      7  C   UNL     1      -0.759 -10.644   1.237  0.00  0.00    +0.059 A 
ATOM      8  C   UNL     1      -0.739 -11.127  -0.072  0.00  0.00    +0.017 A 
ATOM      9  C   UNL     1      -0.748 -12.488  -0.302  0.00  0.00    +0.029 A 
BRANCH   4  10
ATOM     10  S   UNL     1      -0.808 -15.107   0.459  0.00  0.00    +0.061 S 
ATOM     11  O   UNL     1      -0.229 -15.303  -0.824  0.00  0.00    -0.153 OA
ATOM     12  O   UNL     1      -0.296 -15.730   1.629  0.00  0.00    -0.153 OA
BRANCH  10  19
ATOM     13  C   UNL     1      -2.277 -15.825   2.770  0.00  0.00    +0.026 C 
ATOM     14  C   UNL     1      -3.186 -15.857   1.539  0.00  0.00    +0.077 C 
ATOM     15  C   UNL     1      -3.809 -17.244   1.401  0.00  0.00    +0.020 C 
ATOM     16  C   UNL     1      -4.603 -17.317   0.094  0.00  0.00    +0.003 C 
ATOM     17  C   UNL     1      -3.661 -17.088  -1.090  0.00  0.00    +0.017 C 
ATOM     18  C   UNL     1      -3.037 -15.693  -0.980  0.00  0.00    +0.110 C 
ATOM     19  N   UNL     1      -2.395 -15.565   0.336  0.00  0.00    -0.174 NA
ENDBRANCH  10  19
ENDBRANCH   4  10
ENDBRANCH   2   7
ENDBRANCH   1   2
BRANCH   1  20
ATOM     20  C   UNL     1      -0.691  -6.910   0.782  0.00  0.00    +0.269 C 
BRANCH  20  21
ATOM     21  C   UNL     1      -0.647  -6.104  -0.490  0.00  0.00    +0.007 A 
ATOM     22  C   UNL     1      -0.626  -6.715  -1.703  0.00  0.00    +0.095 A 
ATOM     23  C   UNL     1      -0.584  -5.939  -2.880  0.00  0.00    +0.285 A 
ATOM     24  O   UNL     1      -0.565  -4.597  -2.839  0.00  0.00    -0.425 OA
ATOM     25  C   UNL     1      -0.585  -3.927  -1.666  0.00  0.00    +0.141 A 
ATOM     26  C   UNL     1      -0.626  -4.640  -0.453  0.00  0.00    +0.024 A 
ATOM     27  C   UNL     1      -0.646  -3.950   0.765  0.00  0.00    +0.014 A 
ATOM     28  C   UNL     1      -0.621  -2.586   0.772  0.00  0.00    +0.024 A 
ATOM     29  C   UNL     1      -0.586  -1.874  -0.426  0.00  0.00    +0.037 A 
ATOM     30  C   UNL     1      -0.565  -2.542  -1.642  0.00  0.00    +0.070 A 
ATOM     31  N   UNL     1      -0.566  -0.479  -0.403  0.00  0.00    -0.286 N 
ATOM     32  C   UNL     1      -1.211   0.221  -1.357  0.00  0.00    +0.214 C 
ATOM     33  O   UNL     1      -1.735  -0.359  -2.284  0.00  0.00    -0.276 OA
ATOM     34  C   UNL     1      -1.280   1.724  -1.273  0.00  0.00    +0.109 C 
ATOM     35  H   UNL     1      -0.025   0.050   0.396  0.00  0.00    +0.155 HD
BRANCH  23  36
ATOM     36  O   UNL     1      -0.565  -6.500  -3.961  0.00  0.00    -0.480 OA
ATOM     37  H   UNL     1      -0.533  -5.907  -4.887  0.00  0.00    +0.295 HD
ENDBRANCH  23  36
ENDBRANCH  20  21
ENDBRANCH   1  20
TORSDOF 7
