REMARK  Name = ZINC05763586
REMARK  4 active torsions:
REMARK  status: ('A' for Active; 'I' for Inactive)
REMARK    1  A    between atoms: C_6  and  C_7
REMARK    2  A    between atoms: C_7  and  C_9
REMARK    3  A    between atoms: C_7  and  N_19
REMARK    4  A    between atoms: C_14  and  O_15
REMARK                            x       y       z     vdW  Elec       q    Type
REMARK                         _______ _______ _______ _____ _____    ______ ____
ROOT
ATOM      1  C   UNL     1      -1.293  -0.775   0.010  0.00  0.00    -0.003 C 
ENDROOT
BRANCH   1   2
ATOM      2  C   UNL     1      -1.612  -1.236  -1.389  0.00  0.00    -0.012 A 
ATOM      3  C   UNL     1      -1.341  -2.539  -1.764  0.00  0.00    +0.055 A 
ATOM      4  C   UNL     1      -1.633  -2.966  -3.049  0.00  0.00    +0.167 A 
ATOM      5  C   UNL     1      -2.200  -2.082  -3.963  0.00  0.00    +0.170 A 
ATOM      6  C   UNL     1      -2.471  -0.778  -3.584  0.00  0.00    +0.095 A 
ATOM      7  C   UNL     1      -2.182  -0.356  -2.295  0.00  0.00    +0.122 A 
ATOM      8  O   UNL     1      -2.389  -2.738  -5.145  0.00  0.00    -0.452 OA
ATOM      9  C   UNL     1      -1.558  -3.911  -5.071  0.00  0.00    +0.466 C 
ATOM     10  O   UNL     1      -1.466  -4.177  -3.659  0.00  0.00    -0.453 OA
BRANCH   7  11
ATOM     11  O   UNL     1      -2.452   0.923  -1.922  0.00  0.00    -0.506 OA
ATOM     12  H   UNL     1      -1.725   1.541  -2.079  0.00  0.00    +0.292 HD
ENDBRANCH   7  11
ENDBRANCH   1   2
BRANCH   1  18
ATOM     13  C   UNL     1      -0.017   1.378   0.010  0.00  0.00    +0.003 A 
ATOM     14  C   UNL     1       1.171   2.086   0.002  0.00  0.00    +0.015 A 
ATOM     15  C   UNL     1       2.378   1.411  -0.013  0.00  0.00    +0.018 A 
ATOM     16  C   UNL     1       2.396   0.027  -0.021  0.00  0.00    +0.015 A 
ATOM     17  C   UNL     1       1.208  -0.679  -0.013  0.00  0.00    +0.003 A 
ATOM     18  C   UNL     1       0.002  -0.004   0.002  0.00  0.00    -0.057 A 
ATOM     19 BR   UNL     1       4.003   2.378  -0.024  0.00  0.00    -0.050 Br
ENDBRANCH   1  18
BRANCH   1  20
ATOM     20  N   UNL     1      -1.162  -1.942   0.893  0.00  0.00    +0.387 N 
ATOM     21  C   UNL     1      -0.934  -1.502   2.293  0.00  0.00    -0.078 C 
ATOM     22  C   UNL     1      -1.377  -2.730   3.127  0.00  0.00    -0.020 C 
ATOM     23  C   UNL     1      -2.598  -3.260   2.341  0.00  0.00    -0.020 C 
ATOM     24  C   UNL     1      -2.426  -2.710   0.913  0.00  0.00    -0.078 C 
ATOM     25  H   UNL     1      -0.402  -2.529   0.584  0.00  0.00    -0.080 HD
ENDBRANCH   1  20
TORSDOF 4
