REMARK  Name = ZINC23184529
REMARK  9 active torsions:
REMARK  status: ('A' for Active; 'I' for Inactive)
REMARK    1  A    between atoms: C_1  and  C_2
REMARK    2  A    between atoms: C_2  and  C_3
REMARK    3  A    between atoms: N_5  and  C_6
REMARK    4  A    between atoms: C_10  and  N_13
REMARK    5  A    between atoms: C_11  and  C_12
REMARK    6  A    between atoms: C_14  and  C_16
REMARK    7  A    between atoms: N_26  and  S_27
REMARK    8  A    between atoms: S_27  and  C_30
REMARK    9  A    between atoms: C_33  and  C_36
REMARK                            x       y       z     vdW  Elec       q    Type
REMARK                         _______ _______ _______ _____ _____    ______ ____
ROOT
ATOM      1  C   UNL     1      -1.464  -5.729  -1.262  0.00  0.00    +0.170 C 
ATOM      2  C   UNL     1      -2.399  -6.873  -1.651  0.00  0.00    +0.065 C 
ATOM      3  C   UNL     1      -2.911  -7.586  -0.427  0.00  0.00    -0.041 A 
ATOM      4  C   UNL     1      -4.067  -8.346  -0.561  0.00  0.00    +0.004 A 
ATOM      5  C   UNL     1      -4.585  -9.033   0.518  0.00  0.00    +0.000 A 
ATOM      6  C   UNL     1      -3.949  -8.967   1.744  0.00  0.00    +0.000 A 
ATOM      7  C   UNL     1      -2.803  -8.211   1.880  0.00  0.00    +0.005 A 
ATOM      8  C   UNL     1      -2.285  -7.515   0.797  0.00  0.00    -0.028 A 
ATOM      9  C   UNL     1      -1.046  -6.692   1.019  0.00  0.00    +0.145 C 
ATOM     10  N   UNL     1      -0.506  -6.245  -0.270  0.00  0.00    -0.160 NA
ENDROOT
BRANCH   1  12
ATOM     11  N   UNL     1      -0.620  -3.918  -2.720  0.00  0.00    -0.284 N 
ATOM     12  C   UNL     1      -0.723  -5.240  -2.480  0.00  0.00    +0.236 C 
ATOM     13  O   UNL     1      -0.219  -6.037  -3.243  0.00  0.00    -0.274 OA
ATOM     14  H   UNL     1      -1.125  -3.198  -2.059  0.00  0.00    +0.155 HD
BRANCH  11  19
ATOM     15  C   UNL     1       1.468  -1.761  -4.850  0.00  0.00    +0.038 A 
ATOM     16  C   UNL     1       1.608  -2.564  -5.975  0.00  0.00    +0.024 A 
ATOM     17  C   UNL     1       1.011  -3.809  -6.015  0.00  0.00    +0.004 A 
ATOM     18  C   UNL     1       0.273  -4.260  -4.938  0.00  0.00    +0.024 A 
ATOM     19  C   UNL     1       0.128  -3.461  -3.810  0.00  0.00    +0.038 A 
ATOM     20  C   UNL     1       0.723  -2.208  -3.769  0.00  0.00    -0.008 A 
ATOM     21  C   UNL     1       0.564  -1.337  -2.549  0.00  0.00    +0.047 C 
BRANCH  15  24
ATOM     22  C   UNL     1       2.414   0.121  -5.957  0.00  0.00    +0.217 C 
ATOM     23  O   UNL     1       2.114  -0.370  -7.024  0.00  0.00    -0.275 OA
ATOM     24  N   UNL     1       2.073  -0.500  -4.810  0.00  0.00    -0.285 N 
ATOM     25  H   UNL     1       2.270  -0.015  -3.842  0.00  0.00    +0.155 HD
BRANCH  22  27
ATOM     26  C   UNL     1       3.429   1.912  -7.339  0.00  0.00    +0.013 C 
ATOM     27  C   UNL     1       3.169   1.425  -5.912  0.00  0.00    +0.093 C 
ENDBRANCH  22  27
ENDBRANCH  15  24
ENDBRANCH  11  19
ENDBRANCH   1  12
BRANCH  10  28
ATOM     28  S   UNL     1       1.116  -6.323  -0.598  0.00  0.00    +0.062 S 
ATOM     29  O   UNL     1       1.780  -6.404   0.655  0.00  0.00    -0.153 OA
ATOM     30  O   UNL     1       1.389  -5.296  -1.541  0.00  0.00    -0.153 OA
BRANCH  28  31
ATOM     31  C   UNL     1       1.407  -7.854  -1.421  0.00  0.00    +0.106 A 
ATOM     32  C   UNL     1       1.785  -7.862  -2.751  0.00  0.00    +0.029 A 
ATOM     33  C   UNL     1       2.014  -9.062  -3.397  0.00  0.00    +0.005 A 
ATOM     34  C   UNL     1       1.865 -10.255  -2.713  0.00  0.00    -0.050 A 
ATOM     35  C   UNL     1       1.481 -10.246  -1.385  0.00  0.00    +0.005 A 
ATOM     36  C   UNL     1       1.257  -9.046  -0.738  0.00  0.00    +0.029 A 
ATOM     37  C   UNL     1       2.114 -11.563  -3.417  0.00  0.00    +0.044 C 
ENDBRANCH  28  31
ENDBRANCH  10  28
TORSDOF 6
