REMARK  Name = ZINC02471893
REMARK  3 active torsions:
REMARK  status: ('A' for Active; 'I' for Inactive)
REMARK    1  A    between atoms: C_1  and  C_2
REMARK    2  A    between atoms: C_6  and  C_8
REMARK    3  A    between atoms: C_11  and  C_19
REMARK                            x       y       z     vdW  Elec       q    Type
REMARK                         _______ _______ _______ _____ _____    ______ ____
ROOT
ATOM      1  C   UNL     1      -0.070   5.347   0.032  0.00  0.00    +0.143 C 
ATOM      2  C   UNL     1      -0.818   5.858  -1.207  0.00  0.00    +0.058 C 
ATOM      3  C   UNL     1      -1.082   7.362  -1.068  0.00  0.00    +0.106 C 
ATOM      4  N   UNL     1      -1.951   7.581   0.104  0.00  0.00    -0.307 N 
ATOM      5  C   UNL     1      -1.635   6.858   1.247  0.00  0.00    +0.215 A 
ATOM      6  N   UNL     1      -0.760   5.821   1.231  0.00  0.00    -0.226 N 
ATOM      7  N   UNL     1      -0.689   5.343   2.538  0.00  0.00    -0.156 NA
ATOM      8  C   UNL     1      -1.492   6.086   3.258  0.00  0.00    +0.247 A 
ATOM      9  N   UNL     1      -2.065   7.004   2.471  0.00  0.00    -0.202 NA
ATOM     10  H   UNL     1      -2.701   8.195   0.078  0.00  0.00    +0.149 HD
ENDROOT
BRANCH   1  16
ATOM     11  C   UNL     1       2.490   1.048  -0.016  0.00  0.00    +0.044 C 
ATOM     12  C   UNL     1       1.175   1.783   0.000  0.00  0.00    -0.050 A 
ATOM     13  C   UNL     1      -0.013   1.076   0.008  0.00  0.00    +0.003 A 
ATOM     14  C   UNL     1      -1.219   1.750   0.017  0.00  0.00    +0.001 A 
ATOM     15  C   UNL     1      -1.238   3.133   0.030  0.00  0.00    +0.006 A 
ATOM     16  C   UNL     1      -0.050   3.840   0.023  0.00  0.00    -0.023 A 
ATOM     17  C   UNL     1       1.157   3.165   0.008  0.00  0.00    +0.009 A 
ENDBRANCH   1  16
BRANCH   3  18
ATOM     18  C   UNL     1       0.224   8.089  -0.876  0.00  0.00    -0.027 A 
ATOM     19  C   UNL     1       0.821   8.121   0.370  0.00  0.00    +0.007 A 
ATOM     20  C   UNL     1       2.022   8.784   0.545  0.00  0.00    +0.020 A 
ATOM     21  C   UNL     1       2.620   9.424  -0.525  0.00  0.00    +0.041 A 
ATOM     22  C   UNL     1       2.019   9.397  -1.771  0.00  0.00    +0.020 A 
ATOM     23  C   UNL     1       0.822   8.729  -1.946  0.00  0.00    +0.007 A 
ATOM     24 CL   UNL     1       4.125  10.262  -0.305  0.00  0.00    -0.084 Cl
ENDBRANCH   3  18
TORSDOF 2
