REMARK  Name = ZINC63372211
REMARK  9 active torsions:
REMARK  status: ('A' for Active; 'I' for Inactive)
REMARK    1  A    between atoms: C_1  and  C_2
REMARK    2  A    between atoms: C_2  and  C_3
REMARK    3  A    between atoms: C_3  and  O_4
REMARK    4  A    between atoms: O_4  and  C_5
REMARK    5  A    between atoms: C_8  and  C_14
REMARK    6  A    between atoms: C_10  and  O_11
REMARK    7  A    between atoms: O_11  and  C_12
REMARK    8  A    between atoms: C_12  and  C_13
REMARK    9  A    between atoms: C_24  and  C_35
REMARK                            x       y       z     vdW  Elec       q    Type
REMARK                         _______ _______ _______ _____ _____    ______ ____
ROOT
ATOM      1  C   UNL     1       3.300  -4.478   5.569  0.00  0.00    +0.065 C 
ATOM      2  C   UNL     1       4.790  -4.130   5.551  0.00  0.00    +0.121 C 
ATOM      3  N   UNL     1       5.088  -2.825   6.113  0.00  0.00    -0.283 N 
ATOM      4  C   UNL     1       6.336  -2.306   5.859  0.00  0.00    +0.234 C 
ATOM      5  O   UNL     1       7.102  -2.842   5.086  0.00  0.00    -0.274 OA
ATOM      6  C   UNL     1       6.709  -1.033   6.589  0.00  0.00    +0.200 C 
ATOM      7  N   UNL     1       6.284  -1.158   7.996  0.00  0.00    -0.305 N 
ATOM      8  C   UNL     1       5.019  -1.630   8.212  0.00  0.00    +0.239 C 
ATOM      9  O   UNL     1       4.548  -1.739   9.324  0.00  0.00    -0.273 OA
ATOM     10  C   UNL     1       4.251  -2.005   6.971  0.00  0.00    +0.134 C 
ATOM     11  C   UNL     1       2.861  -2.491   7.238  0.00  0.00    +0.139 C 
ATOM     12  C   UNL     1       2.766  -3.969   6.885  0.00  0.00    -0.027 C 
ATOM     13  C   UNL     1       2.195  -4.570   7.918  0.00  0.00    -0.000 A 
ATOM     14  C   UNL     1       1.752  -5.958   8.127  0.00  0.00    +0.010 A 
ATOM     15  C   UNL     1       1.215  -6.239   9.344  0.00  0.00    +0.001 A 
ATOM     16  C   UNL     1       1.075  -5.290  10.361  0.00  0.00    +0.002 A 
ATOM     17  C   UNL     1       1.447  -3.990  10.253  0.00  0.00    +0.026 A 
ATOM     18  C   UNL     1       2.017  -3.571   9.016  0.00  0.00    +0.043 A 
ATOM     19  N   UNL     1       2.442  -2.408   8.637  0.00  0.00    -0.375 N 
ATOM     20  C   UNL     1       4.062  -0.691   6.210  0.00  0.00    +0.044 C 
ATOM     21  H   UNL     1       6.871  -0.918   8.730  0.00  0.00    +0.149 HD
ATOM     22  H   UNL     1       2.471  -1.613   9.193  0.00  0.00    +0.160 HD
ENDROOT
BRANCH   1  26
ATOM     23  C   UNL     1       1.302  -2.538   2.324  0.00  0.00    +0.162 A 
ATOM     24  C   UNL     1       2.403  -1.943   2.917  0.00  0.00    +0.050 A 
ATOM     25  C   UNL     1       3.047  -2.572   3.967  0.00  0.00    +0.008 A 
ATOM     26  C   UNL     1       2.594  -3.796   4.426  0.00  0.00    -0.035 A 
ATOM     27  C   UNL     1       1.496  -4.395   3.837  0.00  0.00    +0.053 A 
ATOM     28  C   UNL     1       0.842  -3.766   2.789  0.00  0.00    +0.162 A 
BRANCH  23  29
ATOM     29  O   UNL     1       0.667  -1.920   1.292  0.00  0.00    -0.488 OA
BRANCH  29  30
ATOM     30  C   UNL     1       1.194  -0.661   0.867  0.00  0.00    +0.229 C 
BRANCH  30  32
ATOM     31  C   UNL     1       0.920   1.224  -0.750  0.00  0.00    +0.007 C 
ATOM     32  C   UNL     1       0.356  -0.124  -0.295  0.00  0.00    +0.038 C 
ENDBRANCH  30  32
ENDBRANCH  29  30
ENDBRANCH  23  29
BRANCH  28  33
ATOM     33  O   UNL     1      -0.242  -4.351   2.213  0.00  0.00    -0.489 OA
BRANCH  33  34
ATOM     34  C   UNL     1      -0.657  -5.612   2.743  0.00  0.00    +0.226 C 
ATOM     35  C   UNL     1      -1.882  -6.110   1.974  0.00  0.00    +0.048 C 
ENDBRANCH  33  34
ENDBRANCH  28  33
ENDBRANCH   1  26
TORSDOF 6
