REMARK  Name = ZINC63708301
REMARK  11 active torsions:
REMARK  status: ('A' for Active; 'I' for Inactive)
REMARK    1  A    between atoms: C_1  and  C_2
REMARK    2  A    between atoms: C_6  and  C_37
REMARK    3  A    between atoms: C_7  and  N_8
REMARK    4  A    between atoms: C_9  and  C_11
REMARK    5  A    between atoms: C_11  and  S_12
REMARK    6  A    between atoms: S_12  and  C_13
REMARK    7  A    between atoms: C_25  and  C_27
REMARK    8  A    between atoms: C_27  and  C_28
REMARK    9  A    between atoms: C_28  and  C_29
REMARK   10  A    between atoms: C_30  and  C_36
REMARK   11  A    between atoms: C_33  and  C_35
REMARK                            x       y       z     vdW  Elec       q    Type
REMARK                         _______ _______ _______ _____ _____    ______ ____
ROOT
ATOM      1  C   UNL     1      -0.333   0.115   7.700  0.00  0.00    +0.248 C 
ATOM      2  N   UNL     1       0.965   0.795   7.805  0.00  0.00    -0.356 N 
ATOM      3  C   UNL     1       1.012   2.120   7.803  0.00  0.00    +0.048 A 
ATOM      4  C   UNL     1       2.248   2.795   7.902  0.00  0.00    +0.026 A 
ATOM      5  C   UNL     1       2.274   4.154   7.898  0.00  0.00    +0.002 A 
ATOM      6  C   UNL     1       1.107   4.906   7.798  0.00  0.00    +0.001 A 
ATOM      7  C   UNL     1      -0.117   4.316   7.699  0.00  0.00    +0.013 A 
ATOM      8  C   UNL     1      -0.216   2.914   7.697  0.00  0.00    +0.038 A 
ATOM      9  C   UNL     1      -1.473   2.285   7.595  0.00  0.00    +0.128 C 
ATOM     10  N   UNL     1      -1.551   0.918   7.595  0.00  0.00    -0.204 N 
ATOM     11  N   UNL     1      -2.910   0.600   7.483  0.00  0.00    -0.249 N 
ATOM     12  C   UNL     1      -3.576   1.774   7.422  0.00  0.00    +0.090 C 
ATOM     13  N   UNL     1      -2.720   2.761   7.489  0.00  0.00    -0.332 N 
ATOM     14  H   UNL     1      -3.297  -0.289   7.454  0.00  0.00    +0.171 HD
ATOM     15  H   UNL     1       1.782   0.277   7.875  0.00  0.00    +0.162 HD
ATOM     16  H   UNL     1      -2.954   3.702   7.465  0.00  0.00    +0.168 HD
ENDROOT
BRANCH   1  17
ATOM     17  S   UNL     1      -0.266  -0.967   6.246  0.00  0.00    -0.106 S 
BRANCH  17  18
ATOM     18  C   UNL     1      -0.092   0.181   4.852  0.00  0.00    +0.168 C 
BRANCH  18  20
ATOM     19  N   UNL     1       0.107   0.050   2.390  0.00  0.00    -0.284 N 
ATOM     20  C   UNL     1      -0.024  -0.598   3.564  0.00  0.00    +0.227 C 
ATOM     21  O   UNL     1      -0.086  -1.810   3.585  0.00  0.00    -0.275 OA
ATOM     22  H   UNL     1       0.223   1.013   2.378  0.00  0.00    +0.155 HD
BRANCH  19  29
ATOM     23  C   UNL     1       2.558  -0.356   1.002  0.00  0.00    +0.045 C 
ATOM     24  C   UNL     1       1.248  -0.887   0.479  0.00  0.00    -0.029 A 
ATOM     25  C   UNL     1       1.214  -1.599  -0.704  0.00  0.00    +0.005 A 
ATOM     26  C   UNL     1       0.013  -2.087  -1.185  0.00  0.00    +0.001 A 
ATOM     27  C   UNL     1      -1.158  -1.863  -0.484  0.00  0.00    +0.005 A 
ATOM     28  C   UNL     1      -1.131  -1.152   0.700  0.00  0.00    -0.029 A 
ATOM     29  C   UNL     1       0.075  -0.666   1.188  0.00  0.00    +0.039 A 
ATOM     30  C   UNL     1      -2.407  -0.908   1.463  0.00  0.00    +0.045 C 
ENDBRANCH  19  29
ENDBRANCH  18  20
ENDBRANCH  17  18
ENDBRANCH   1  17
BRANCH  12  31
ATOM     31  C   UNL     1      -5.070   1.924   7.296  0.00  0.00    +0.075 C 
BRANCH  31  32
ATOM     32  C   UNL     1      -5.697   1.980   8.691  0.00  0.00    +0.042 C 
BRANCH  32  33
ATOM     33  C   UNL     1      -7.191   2.130   8.565  0.00  0.00    -0.021 C 
ATOM     34  C   UNL     1      -8.118   1.170   8.589  0.00  0.00    +0.061 C 
ATOM     35  N   UNL     1      -9.355   1.695   8.446  0.00  0.00    -0.159 NA
ATOM     36  N   UNL     1      -9.380   2.922   8.325  0.00  0.00    -0.180 NA
ATOM     37  C   UNL     1      -7.992   3.408   8.388  0.00  0.00    +0.153 C 
ATOM     38  C   UNL     1      -7.607   4.111   7.085  0.00  0.00    +0.039 C 
ATOM     39  C   UNL     1      -7.825  -0.299   8.754  0.00  0.00    +0.067 C 
ENDBRANCH  32  33
ENDBRANCH  31  32
ENDBRANCH  12  31
TORSDOF 7
