REMARK  Name = ZINC63137943
REMARK  9 active torsions:
REMARK  status: ('A' for Active; 'I' for Inactive)
REMARK    1  A    between atoms: C_1  and  N_2
REMARK    2  A    between atoms: N_2  and  C_3
REMARK    3  A    between atoms: N_2  and  C_4
REMARK    4  A    between atoms: C_4  and  C_5
REMARK    5  A    between atoms: C_5  and  C_6
REMARK    6  A    between atoms: C_6  and  N_7
REMARK    7  A    between atoms: C_27  and  C_29
REMARK    8  A    between atoms: C_33  and  O_35
REMARK    9  A    between atoms: O_35  and  C_36
REMARK                            x       y       z     vdW  Elec       q    Type
REMARK                         _______ _______ _______ _____ _____    ______ ____
ROOT
ATOM      1  N   UNL     1      -2.777  -4.025  -0.239  0.00  0.00    -0.291 N 
ATOM      2  C   UNL     1      -2.812  -4.687  -1.556  0.00  0.00    +0.203 C 
ATOM      3  C   UNL     1      -1.766  -5.782  -1.572  0.00  0.00    +0.234 C 
ATOM      4  O   UNL     1      -1.033  -5.946  -2.525  0.00  0.00    -0.274 OA
ATOM      5  N   UNL     1      -1.685  -6.580  -0.458  0.00  0.00    -0.279 N 
ATOM      6  C   UNL     1      -2.675  -6.320   0.566  0.00  0.00    +0.167 C 
ATOM      7  C   UNL     1      -2.723  -4.841   0.855  0.00  0.00    +0.237 C 
ATOM      8  O   UNL     1      -2.716  -4.404   1.987  0.00  0.00    -0.274 OA
ATOM      9  C   UNL     1      -2.637  -7.148   1.824  0.00  0.00    +0.065 C 
ATOM     10  C   UNL     1      -1.380  -7.974   1.856  0.00  0.00    -0.034 C 
ATOM     11  C   UNL     1      -0.536  -8.272   2.834  0.00  0.00    -0.001 A 
ATOM     12  C   UNL     1      -0.541  -7.941   4.269  0.00  0.00    +0.010 A 
ATOM     13  C   UNL     1       0.506  -8.411   4.997  0.00  0.00    +0.001 A 
ATOM     14  C   UNL     1       1.546  -9.168   4.448  0.00  0.00    +0.002 A 
ATOM     15  C   UNL     1       1.629  -9.523   3.141  0.00  0.00    +0.026 A 
ATOM     16  C   UNL     1       0.582  -9.091   2.275  0.00  0.00    +0.043 A 
ATOM     17  N   UNL     1       0.407  -9.293   1.004  0.00  0.00    -0.375 N 
ATOM     18  C   UNL     1      -0.852  -8.656   0.596  0.00  0.00    +0.131 C 
ATOM     19  C   UNL     1      -0.599  -7.548  -0.415  0.00  0.00    +0.134 C 
ATOM     20  H   UNL     1       1.008  -9.782   0.421  0.00  0.00    +0.160 HD
ENDROOT
BRANCH  19  21
ATOM     21  C   UNL     1       0.669  -6.844  -0.006  0.00  0.00    -0.021 A 
ATOM     22  C   UNL     1       0.635  -5.878   0.982  0.00  0.00    +0.006 A 
ATOM     23  C   UNL     1       1.797  -5.231   1.360  0.00  0.00    +0.004 A 
ATOM     24  C   UNL     1       2.995  -5.548   0.750  0.00  0.00    +0.045 A 
ATOM     25  C   UNL     1       3.032  -6.516  -0.242  0.00  0.00    +0.120 A 
ATOM     26  C   UNL     1       1.866  -7.169  -0.615  0.00  0.00    +0.051 A 
BRANCH  25  27
ATOM     27  O   UNL     1       4.210  -6.830  -0.844  0.00  0.00    -0.495 OA
ATOM     28  C   UNL     1       5.371  -6.122  -0.405  0.00  0.00    +0.277 C 
ENDBRANCH  25  27
ENDBRANCH  19  21
BRANCH   1  29
ATOM     29  C   UNL     1      -2.794  -2.566  -0.111  0.00  0.00    +0.106 C 
BRANCH  29  30
ATOM     30  C   UNL     1      -1.358  -2.037  -0.122  0.00  0.00    +0.000 C 
BRANCH  30  31
ATOM     31  C   UNL     1      -1.376  -0.512   0.012  0.00  0.00    -0.078 C 
BRANCH  31  33
ATOM     32  C   UNL     1      -0.018   1.465   0.010  0.00  0.00    -0.097 C 
ATOM     33  N   UNL     1       0.002  -0.004   0.002  0.00  0.00    +0.376 N 
ATOM     34  C   UNL     1       0.713  -0.491   1.192  0.00  0.00    -0.097 C 
ATOM     35  H   UNL     1       0.474  -0.330  -0.828  0.00  0.00    -0.083 HD
ENDBRANCH  31  33
ENDBRANCH  30  31
ENDBRANCH  29  30
ENDBRANCH   1  29
TORSDOF 6
