REMARK  Name = ZINC10742274
REMARK  5 active torsions:
REMARK  status: ('A' for Active; 'I' for Inactive)
REMARK    1  A    between atoms: C_7  and  C_11
REMARK    2  A    between atoms: C_11  and  C_12
REMARK    3  A    between atoms: C_12  and  C_14
REMARK    4  A    between atoms: C_12  and  N_29
REMARK    5  A    between atoms: N_19  and  C_22
REMARK                            x       y       z     vdW  Elec       q    Type
REMARK                         _______ _______ _______ _____ _____    ______ ____
ROOT
ATOM      1  C   UNL     1      -0.013   0.547   0.144  0.00  0.00    +0.165 C 
ENDROOT
BRANCH   1   2
ATOM      2  C   UNL     1      -0.715   1.307  -0.952  0.00  0.00    +0.236 C 
ATOM      3  O   UNL     1      -0.268   2.366  -1.338  0.00  0.00    -0.274 OA
ATOM      4  N   UNL     1      -1.840   0.809  -1.503  0.00  0.00    -0.297 N 
ATOM      5  C   UNL     1      -2.396  -0.476  -1.054  0.00  0.00    +0.126 C 
ATOM      6  C   UNL     1      -3.883  -0.270  -0.727  0.00  0.00    +0.124 C 
ATOM      7  N   UNL     1      -4.557   0.326  -1.889  0.00  0.00    -0.326 N 
ATOM      8  C   UNL     1      -4.019   1.659  -2.191  0.00  0.00    +0.124 C 
ATOM      9  C   UNL     1      -2.541   1.534  -2.574  0.00  0.00    +0.126 C 
BRANCH   7  10
ATOM     10  C   UNL     1      -5.940   0.376  -1.695  0.00  0.00    +0.048 A 
ATOM     11  C   UNL     1      -6.476   0.117  -0.440  0.00  0.00    +0.024 A 
ATOM     12  C   UNL     1      -7.843   0.173  -0.250  0.00  0.00    +0.002 A 
ATOM     13  C   UNL     1      -8.679   0.475  -1.310  0.00  0.00    +0.002 A 
ATOM     14  C   UNL     1      -8.149   0.727  -2.562  0.00  0.00    +0.022 A 
ATOM     15  C   UNL     1      -6.782   0.679  -2.758  0.00  0.00    +0.062 A 
ATOM     16 CL   UNL     1      -6.118   0.995  -4.330  0.00  0.00    -0.082 Cl
ENDBRANCH   7  10
ENDBRANCH   1   2
BRANCH   1  17
ATOM     17  N   UNL     1       1.375   1.005   0.244  0.00  0.00    -0.288 N 
ATOM     18  C   UNL     1       1.640   2.296   0.522  0.00  0.00    +0.298 C 
ATOM     19  O   UNL     1       0.728   3.082   0.690  0.00  0.00    -0.253 OA
ATOM     20  N   UNL     1       2.917   2.717   0.613  0.00  0.00    -0.313 N 
ATOM     21  H   UNL     1       2.103   0.378   0.110  0.00  0.00    +0.151 HD
ATOM     22  H   UNL     1       3.645   2.091   0.479  0.00  0.00    +0.146 HD
ATOM     23  H   UNL     1       3.108   3.647   0.814  0.00  0.00    +0.146 HD
ENDBRANCH   1  17
BRANCH   1  24
ATOM     24  C   UNL     1      -0.728   0.793   1.474  0.00  0.00    +0.069 C 
BRANCH  24  31
ATOM     25  C   UNL     1       2.999   1.361   4.260  0.00  0.00    +0.001 A 
ATOM     26  C   UNL     1       3.203   0.287   5.115  0.00  0.00    +0.002 A 
ATOM     27  C   UNL     1       2.353  -0.797   5.098  0.00  0.00    +0.026 A 
ATOM     28  C   UNL     1       1.285  -0.823   4.207  0.00  0.00    +0.047 A 
ATOM     29  C   UNL     1       1.084   0.267   3.340  0.00  0.00    +0.003 A 
ATOM     30  C   UNL     1       1.954   1.358   3.380  0.00  0.00    +0.010 A 
ATOM     31  C   UNL     1      -0.103  -0.061   2.546  0.00  0.00    -0.020 A 
ATOM     32  C   UNL     1      -0.524  -1.270   2.951  0.00  0.00    +0.087 A 
ATOM     33  N   UNL     1       0.293  -1.740   3.943  0.00  0.00    -0.360 N 
ATOM     34  H   UNL     1       0.188  -2.593   4.393  0.00  0.00    +0.165 HD
ENDBRANCH  24  31
ENDBRANCH   1  24
TORSDOF 5
