REMARK  Name = ZINC39931090
REMARK  6 active torsions:
REMARK  status: ('A' for Active; 'I' for Inactive)
REMARK    1  A    between atoms: C_6  and  N_7
REMARK    2  A    between atoms: N_7  and  C_8
REMARK    3  A    between atoms: C_8  and  C_9
REMARK    4  A    between atoms: C_20  and  C_26
REMARK    5  A    between atoms: C_26  and  N_27
REMARK    6  A    between atoms: N_27  and  C_28
REMARK                            x       y       z     vdW  Elec       q    Type
REMARK                         _______ _______ _______ _____ _____    ______ ____
ROOT
ATOM      1  C   UNL     1      -2.572  -2.756   0.018  0.00  0.00    +0.036 A 
ATOM      2  C   UNL     1      -3.276  -3.145  -1.071  0.00  0.00    +0.025 A 
ATOM      3  C   UNL     1      -4.537  -3.561  -0.641  0.00  0.00    +0.028 A 
ATOM      4  C   UNL     1      -4.568  -3.409   0.741  0.00  0.00    +0.046 A 
ATOM      5  N   UNL     1      -3.348  -2.919   1.127  0.00  0.00    -0.342 N 
ATOM      6  C   UNL     1      -3.310  -2.741   2.586  0.00  0.00    +0.127 C 
ATOM      7  C   UNL     1      -4.688  -3.194   3.095  0.00  0.00    +0.059 C 
ATOM      8  C   UNL     1      -5.436  -3.599   1.845  0.00  0.00    -0.014 C 
ATOM      9  C   UNL     1      -6.706  -4.074   1.792  0.00  0.00    +0.026 C 
ATOM     10  C   UNL     1      -7.598  -4.405   2.965  0.00  0.00    +0.161 C 
ATOM     11  N   UNL     1      -8.868  -4.880   2.402  0.00  0.00    -0.335 N 
ATOM     12  C   UNL     1     -10.100  -5.339   2.749  0.00  0.00    +0.037 A 
ATOM     13  C   UNL     1     -10.801  -5.604   1.621  0.00  0.00    +0.025 A 
ATOM     14  C   UNL     1      -9.985  -5.301   0.528  0.00  0.00    +0.031 A 
ATOM     15  C   UNL     1      -8.780  -4.850   1.032  0.00  0.00    +0.090 A 
ATOM     16  C   UNL     1      -7.460  -4.352   0.626  0.00  0.00    +0.207 C 
ATOM     17  O   UNL     1      -7.077  -4.205  -0.523  0.00  0.00    -0.285 OA
ENDROOT
BRANCH   1  18
ATOM     18  C   UNL     1      -1.158  -2.235   0.007  0.00  0.00    +0.155 C 
BRANCH  18  19
ATOM     19  N   UNL     1      -1.178  -0.770  -0.021  0.00  0.00    -0.338 N 
ATOM     20  H   UNL     1      -2.024  -0.297  -0.029  0.00  0.00    +0.146 HD
BRANCH  19  26
ATOM     21  C   UNL     1       0.006   1.333  -0.062  0.00  0.00    +0.024 A 
ATOM     22  C   UNL     1       1.194   2.037  -0.076  0.00  0.00    +0.022 A 
ATOM     23  C   UNL     1       2.401   1.360  -0.064  0.00  0.00    +0.041 A 
ATOM     24  C   UNL     1       2.421  -0.023  -0.038  0.00  0.00    +0.022 A 
ATOM     25  C   UNL     1       1.236  -0.732  -0.024  0.00  0.00    +0.024 A 
ATOM     26  C   UNL     1       0.023  -0.056  -0.036  0.00  0.00    +0.027 A 
ATOM     27 CL   UNL     1       3.892   2.248  -0.082  0.00  0.00    -0.084 Cl
ENDBRANCH  19  26
ENDBRANCH  18  19
ENDBRANCH   1  18
BRANCH  12  28
ATOM     28  C   UNL     1     -10.602  -5.524   4.158  0.00  0.00    +0.155 C 
BRANCH  28  29
ATOM     29  N   UNL     1     -10.178  -6.833   4.660  0.00  0.00    -0.338 N 
ATOM     30  H   UNL     1      -9.654  -7.423   4.095  0.00  0.00    +0.146 HD
BRANCH  29  31
ATOM     31  C   UNL     1     -10.527  -7.232   5.953  0.00  0.00    +0.027 A 
ATOM     32  C   UNL     1     -11.281  -6.391   6.761  0.00  0.00    +0.024 A 
ATOM     33  C   UNL     1     -11.626  -6.788   8.038  0.00  0.00    +0.022 A 
ATOM     34  C   UNL     1     -11.219  -8.023   8.513  0.00  0.00    +0.041 A 
ATOM     35  C   UNL     1     -10.468  -8.863   7.710  0.00  0.00    +0.022 A 
ATOM     36  C   UNL     1     -10.126  -8.473   6.430  0.00  0.00    +0.024 A 
ATOM     37 CL   UNL     1     -11.653  -8.519  10.119  0.00  0.00    -0.084 Cl
ENDBRANCH  29  31
ENDBRANCH  28  29
ENDBRANCH  12  28
TORSDOF 6
