REMARK  Name = ZINC13064473
REMARK  12 active torsions:
REMARK  status: ('A' for Active; 'I' for Inactive)
REMARK    1  A    between atoms: C_1  and  C_2
REMARK    2  A    between atoms: C_2  and  C_3
REMARK    3  A    between atoms: C_3  and  C_5
REMARK    4  A    between atoms: C_3  and  N_66
REMARK    5  A    between atoms: N_9  and  C_10
REMARK    6  A    between atoms: C_10  and  C_11
REMARK    7  A    between atoms: C_11  and  O_12
REMARK    8  A    between atoms: O_12  and  C_13
REMARK    9  A    between atoms: C_14  and  C_15
REMARK   10  A    between atoms: C_14  and  N_66
REMARK   11  A    between atoms: C_22  and  C_23
REMARK   12  A    between atoms: C_22  and  N_66
REMARK                            x       y       z     vdW  Elec       q    Type
REMARK                         _______ _______ _______ _____ _____    ______ ____
ROOT
ATOM      1  N   UNL     1       0.495   3.774   1.330  0.00  0.00    +0.392 N 
ATOM      2  H   UNL     1       1.250   3.450   1.946  0.00  0.00    -0.080 HD
ENDROOT
BRANCH   1   3
ATOM      3  C   UNL     1      -0.768   3.124   1.736  0.00  0.00    +0.003 C 
BRANCH   3   4
ATOM      4  C   UNL     1      -1.270   3.763   3.005  0.00  0.00    +0.138 A 
ATOM      5  N   UNL     1      -0.556   4.075   4.059  0.00  0.00    -0.115 NA
ATOM      6  N   UNL     1      -1.345   4.601   4.931  0.00  0.00    -0.023 NA
ATOM      7  N   UNL     1      -2.543   4.633   4.462  0.00  0.00    -0.044 NA
ATOM      8  N   UNL     1      -2.537   4.130   3.273  0.00  0.00    -0.229 N 
BRANCH   8   9
ATOM      9  C   UNL     1      -3.693   3.982   2.385  0.00  0.00    +0.175 C 
BRANCH   9  10
ATOM     10  C   UNL     1      -4.355   2.625   2.632  0.00  0.00    +0.183 C 
BRANCH  10  11
ATOM     11  O   UNL     1      -5.482   2.481   1.766  0.00  0.00    -0.381 OA
ATOM     12  C   UNL     1      -6.176   1.241   1.916  0.00  0.00    +0.194 C 
ENDBRANCH  10  11
ENDBRANCH   9  10
ENDBRANCH   8   9
ENDBRANCH   3   4
BRANCH   3  14
ATOM     13  C   UNL     1       0.482   1.488   3.150  0.00  0.00    +0.002 C 
ATOM     14  C   UNL     1      -0.498   1.639   1.985  0.00  0.00    -0.011 C 
ENDBRANCH   3  14
ENDBRANCH   1   3
BRANCH   1  15
ATOM     15  C   UNL     1       0.370   5.242   1.455  0.00  0.00    -0.042 C 
BRANCH  15  16
ATOM     16  C   UNL     1       1.751   5.846   1.458  0.00  0.00    -0.064 A 
ATOM     17  C   UNL     1       2.480   5.894   2.632  0.00  0.00    +0.004 A 
ATOM     18  C   UNL     1       3.748   6.443   2.636  0.00  0.00    +0.038 A 
ATOM     19  C   UNL     1       4.284   6.955   1.466  0.00  0.00    +0.123 A 
ATOM     20  C   UNL     1       3.551   6.911   0.292  0.00  0.00    +0.038 A 
ATOM     21  C   UNL     1       2.285   6.356   0.290  0.00  0.00    +0.004 A 
ATOM     22  F   UNL     1       5.522   7.496   1.469  0.00  0.00    -0.205 F 
ENDBRANCH  15  16
ENDBRANCH   1  15
BRANCH   1  23
ATOM     23  C   UNL     1       0.825   3.413  -0.065  0.00  0.00    -0.036 C 
BRANCH  23  24
ATOM     24  C   UNL     1      -0.312   3.771  -0.987  0.00  0.00    +0.001 A 
ATOM     25  C   UNL     1      -0.312   4.968  -1.627  0.00  0.00    +0.017 A 
ATOM     26  C   UNL     1      -1.429   5.287  -2.515  0.00  0.00    +0.002 A 
ATOM     27  C   UNL     1      -1.482   6.506  -3.201  0.00  0.00    +0.059 A 
ATOM     28  C   UNL     1      -2.550   6.781  -4.029  0.00  0.00    +0.163 A 
ATOM     29  C   UNL     1      -3.576   5.845  -4.187  0.00  0.00    +0.164 A 
ATOM     30  C   UNL     1      -3.531   4.636  -3.514  0.00  0.00    +0.075 A 
ATOM     31  C   UNL     1      -2.464   4.345  -2.675  0.00  0.00    +0.053 A 
ATOM     32  N   UNL     1      -2.404   3.146  -1.995  0.00  0.00    -0.322 N 
ATOM     33  H   UNL     1      -3.117   2.497  -2.106  0.00  0.00    +0.169 HD
ATOM     34  C   UNL     1      -1.370   2.860  -1.185  0.00  0.00    +0.251 A 
ATOM     35  O   UNL     1      -1.348   1.789  -0.604  0.00  0.00    -0.268 OA
ATOM     36  O   UNL     1      -4.632   6.106  -5.005  0.00  0.00    -0.485 OA
ATOM     37  C   UNL     1      -4.838   7.473  -5.374  0.00  0.00    +0.270 C 
ATOM     38  C   UNL     1      -3.487   8.067  -5.796  0.00  0.00    +0.270 C 
ATOM     39  O   UNL     1      -2.590   7.974  -4.685  0.00  0.00    -0.485 OA
ENDBRANCH  23  24
ENDBRANCH   1  23
TORSDOF 10
