REMARK  Name = ZINC07011428
REMARK  6 active torsions:
REMARK  status: ('A' for Active; 'I' for Inactive)
REMARK    1  A    between atoms: C_1  and  C_2
REMARK    2  A    between atoms: C_2  and  C_26
REMARK    3  A    between atoms: C_7  and  C_11
REMARK    4  A    between atoms: N_13  and  N_14
REMARK    5  A    between atoms: C_15  and  C_17
REMARK    6  A    between atoms: C_21  and  N_23
REMARK                            x       y       z     vdW  Elec       q    Type
REMARK                         _______ _______ _______ _____ _____    ______ ____
ROOT
ATOM      1  C   UNL     1       3.592   0.750  -0.548  0.00  0.00    +0.239 C 
ATOM      2  O   UNL     1       3.950   0.137  -1.532  0.00  0.00    -0.273 OA
ATOM      3  N   UNL     1       4.468   1.532   0.114  0.00  0.00    -0.233 N 
ATOM      4  H   UNL     1       4.182   2.022   0.901  0.00  0.00    +0.173 HD
ENDROOT
BRANCH   1  10
ATOM      5  C   UNL     1      -0.217   0.384   2.499  0.00  0.00    +0.016 C 
ATOM      6  C   UNL     1       0.537  -0.390   1.415  0.00  0.00    -0.010 C 
ATOM      7  C   UNL     1      -0.050  -0.063   0.008  0.00  0.00    +0.000 C 
ATOM      8  C   UNL     1      -0.132   1.494  -0.024  0.00  0.00    +0.006 C 
ATOM      9  C   UNL     1       1.342   1.956  -0.088  0.00  0.00    +0.021 C 
ATOM     10  C   UNL     1       2.170   0.635  -0.065  0.00  0.00    +0.070 C 
ATOM     11  C   UNL     1       1.205  -0.306  -0.904  0.00  0.00    +0.025 C 
ATOM     12  C   UNL     1       1.986   0.067   1.350  0.00  0.00    -0.056 C 
ATOM     13  C   UNL     1       2.887  -0.008   2.298  0.00  0.00    +0.009 C 
ATOM     14  C   UNL     1       0.464  -1.894   1.686  0.00  0.00    +0.016 C 
ENDBRANCH   1  10
BRANCH   3  15
ATOM     15  N   UNL     1       5.791   1.639  -0.335  0.00  0.00    -0.230 N 
ATOM     16  C   UNL     1       6.666   2.422   0.326  0.00  0.00    +0.260 C 
ATOM     17  O   UNL     1       6.307   3.036   1.312  0.00  0.00    -0.269 OA
ATOM     18  H   UNL     1       6.077   1.149  -1.122  0.00  0.00    +0.173 HD
BRANCH  16  19
ATOM     19  C   UNL     1       8.062   2.534  -0.147  0.00  0.00    +0.040 A 
ATOM     20  C   UNL     1       8.478   1.826  -1.276  0.00  0.00    +0.013 A 
ATOM     21  C   UNL     1       9.781   1.938  -1.715  0.00  0.00    +0.003 A 
ATOM     22  C   UNL     1      10.677   2.743  -1.034  0.00  0.00    +0.033 A 
ATOM     23  C   UNL     1      10.272   3.444   0.088  0.00  0.00    +0.127 A 
ATOM     24  C   UNL     1       8.970   3.344   0.535  0.00  0.00    +0.045 A 
BRANCH  23  25
ATOM     25  N   UNL     1      11.237   4.303   0.811  0.00  0.00    +0.056 N 
ATOM     26  O   UNL     1      10.882   4.920   1.799  0.00  0.00    -0.126 OA
ATOM     27  O   UNL     1      12.386   4.392   0.417  0.00  0.00    -0.126 OA
ENDBRANCH  23  25
ENDBRANCH  16  19
ENDBRANCH   3  15
TORSDOF 4
