REMARK  Name = ZINC43919798
REMARK  12 active torsions:
REMARK  status: ('A' for Active; 'I' for Inactive)
REMARK    1  A    between atoms: C_1  and  C_2
REMARK    2  A    between atoms: C_2  and  O_3
REMARK    3  A    between atoms: O_3  and  C_4
REMARK    4  A    between atoms: C_4  and  C_6
REMARK    5  A    between atoms: C_6  and  C_7
REMARK    6  A    between atoms: C_7  and  C_8
REMARK    7  A    between atoms: C_8  and  C_10
REMARK    8  A    between atoms: C_8  and  C_11
REMARK    9  A    between atoms: C_17  and  C_38
REMARK   10  A    between atoms: C_18  and  O_37
REMARK   11  A    between atoms: C_29  and  C_36
REMARK   12  A    between atoms: C_32  and  O_35
REMARK                            x       y       z     vdW  Elec       q    Type
REMARK                         _______ _______ _______ _____ _____    ______ ____
ROOT
ATOM      1  C   UNL     1      -3.985  -6.069   0.144  0.00  0.00    +0.001 C 
ATOM      2  C   UNL     1      -3.350  -6.413   1.515  0.00  0.00    +0.005 C 
ATOM      3  C   UNL     1      -4.405  -7.251   2.288  0.00  0.00    +0.005 C 
ATOM      4  C   UNL     1      -5.725  -6.828   1.634  0.00  0.00    +0.001 C 
ATOM      5  C   UNL     1      -5.332  -6.784   0.130  0.00  0.00    +0.000 C 
ATOM      6  C   UNL     1      -6.457  -6.095  -0.616  0.00  0.00    +0.121 C 
ATOM      7  C   UNL     1      -7.705  -6.986  -0.486  0.00  0.00    +0.036 C 
ATOM      8  C   UNL     1      -8.062  -7.230   0.976  0.00  0.00    +0.001 C 
ATOM      9  C   UNL     1      -6.878  -7.803   1.780  0.00  0.00    -0.004 C 
ATOM     10  C   UNL     1      -7.270  -7.947   3.252  0.00  0.00    +0.004 C 
ATOM     11  C   UNL     1      -8.467  -8.892   3.370  0.00  0.00    +0.004 C 
ATOM     12  C   UNL     1      -9.649  -8.322   2.584  0.00  0.00    -0.002 C 
ATOM     13  C   UNL     1      -9.248  -8.192   1.071  0.00  0.00    -0.026 C 
ATOM     14  C   UNL     1     -10.431  -7.620   0.285  0.00  0.00    +0.010 C 
ATOM     15  C   UNL     1     -10.815  -6.257   0.864  0.00  0.00    +0.032 C 
ATOM     16  C   UNL     1     -11.210  -6.420   2.333  0.00  0.00    +0.115 C 
ATOM     17  C   UNL     1     -10.021  -6.949   3.148  0.00  0.00    +0.035 C 
ATOM     18  C   UNL     1      -8.852  -9.551   0.491  0.00  0.00    +0.012 C 
ATOM     19  C   UNL     1      -5.156  -8.208  -0.401  0.00  0.00    +0.014 C 
ENDROOT
BRANCH   1  20
ATOM     20  C   UNL     1      -4.186  -4.557   0.018  0.00  0.00    -0.010 C 
ATOM     21  C   UNL     1      -2.823  -3.865  -0.050  0.00  0.00    +0.008 C 
BRANCH  20  22
ATOM     22  C   UNL     1      -4.960  -4.042   1.232  0.00  0.00    +0.014 C 
BRANCH  22  23
ATOM     23  C   UNL     1      -5.170  -2.532   1.101  0.00  0.00    +0.121 C 
BRANCH  23  24
ATOM     24  C   UNL     1      -5.932  -2.025   2.297  0.00  0.00    +0.307 C 
ATOM     25  O   UNL     1      -6.273  -2.792   3.166  0.00  0.00    -0.251 OA
BRANCH  24  26
ATOM     26  O   UNL     1      -6.233  -0.720   2.398  0.00  0.00    -0.465 OA
BRANCH  26  28
ATOM     27  C   UNL     1      -7.206   1.199   3.497  0.00  0.00    +0.048 C 
ATOM     28  C   UNL     1      -6.958  -0.309   3.559  0.00  0.00    +0.229 C 
ENDBRANCH  26  28
ENDBRANCH  24  26
ENDBRANCH  23  24
ENDBRANCH  22  23
ENDBRANCH  20  22
ENDBRANCH   1  20
BRANCH  16  29
ATOM     29  O   UNL     1     -12.326  -7.308   2.430  0.00  0.00    -0.392 OA
ATOM     30  H   UNL     1     -13.112  -7.005   1.955  0.00  0.00    +0.210 HD
ENDBRANCH  16  29
BRANCH   6  31
ATOM     31  O   UNL     1      -6.107  -5.944  -1.993  0.00  0.00    -0.391 OA
ATOM     32  H   UNL     1      -6.786  -5.509  -2.526  0.00  0.00    +0.210 HD
ENDBRANCH   6  31
TORSDOF 8
