REMARK  Name = ZINC47203311
REMARK  5 active torsions:
REMARK  status: ('A' for Active; 'I' for Inactive)
REMARK    1  A    between atoms: C_3  and  O_15
REMARK    2  A    between atoms: C_4  and  N_12
REMARK    3  A    between atoms: C_6  and  O_7
REMARK    4  A    between atoms: O_7  and  C_8
REMARK    5  A    between atoms: O_15  and  C_16
REMARK                            x       y       z     vdW  Elec       q    Type
REMARK                         _______ _______ _______ _____ _____    ______ ____
ROOT
ATOM      1  C   UNL     1      -0.017   1.383   0.010  0.00  0.00    +0.049 A 
ATOM      2  C   UNL     1       1.170   2.090   0.002  0.00  0.00    +0.052 A 
ATOM      3  C   UNL     1       2.380   1.413  -0.013  0.00  0.00    +0.157 A 
ATOM      4  C   UNL     1       2.399   0.025  -0.021  0.00  0.00    +0.171 A 
ATOM      5  C   UNL     1       1.213  -0.681  -0.014  0.00  0.00    +0.082 A 
ATOM      6  C   UNL     1       0.002  -0.004   0.002  0.00  0.00    +0.132 A 
ENDROOT
BRANCH   4   7
ATOM      7  N   UNL     1       3.691  -0.697  -0.038  0.00  0.00    +0.060 N 
ATOM      8  O   UNL     1       3.707  -1.906  -0.045  0.00  0.00    -0.126 OA
ATOM      9  O   UNL     1       4.729  -0.078  -0.044  0.00  0.00    -0.126 OA
ENDBRANCH   4   7
BRANCH   6  10
ATOM     10  O   UNL     1      -1.166  -0.700   0.010  0.00  0.00    -0.406 OA
BRANCH  10  11
ATOM     11  C   UNL     1      -2.375   0.062   0.026  0.00  0.00    +0.575 C 
ATOM     12  F   UNL     1      -2.429   0.875  -1.111  0.00  0.00    -0.133 F 
ATOM     13  F   UNL     1      -3.473  -0.805   0.032  0.00  0.00    -0.133 F 
ATOM     14  F   UNL     1      -2.406   0.862   1.173  0.00  0.00    -0.133 F 
ENDBRANCH  10  11
ENDBRANCH   6  10
BRANCH   3  15
ATOM     15  O   UNL     1       3.549   2.108  -0.021  0.00  0.00    -0.432 OA
BRANCH  15  16
ATOM     16  C   UNL     1       3.454   3.534  -0.012  0.00  0.00    +0.541 C 
ATOM     17  F   UNL     1       2.755   3.962  -1.145  0.00  0.00    -0.166 F 
ATOM     18  F   UNL     1       2.777   3.950   1.139  0.00  0.00    -0.166 F 
ENDBRANCH  15  16
ENDBRANCH   3  15
TORSDOF 5
