REMARK  Name = ZINC24955481
REMARK  11 active torsions:
REMARK  status: ('A' for Active; 'I' for Inactive)
REMARK    1  A    between atoms: C_1  and  C_2
REMARK    2  A    between atoms: C_2  and  C_4
REMARK    3  A    between atoms: C_2  and  N_10
REMARK    4  A    between atoms: C_4  and  C_5
REMARK    5  A    between atoms: N_10  and  C_11
REMARK    6  A    between atoms: N_10  and  C_20
REMARK    7  A    between atoms: C_11  and  C_12
REMARK    8  A    between atoms: C_15  and  O_18
REMARK    9  A    between atoms: O_18  and  C_19
REMARK   10  A    between atoms: C_20  and  C_21
REMARK   11  A    between atoms: C_27  and  C_32
REMARK                            x       y       z     vdW  Elec       q    Type
REMARK                         _______ _______ _______ _____ _____    ______ ____
ROOT
ATOM      1  N   UNL     1       1.861   5.373  -0.477  0.00  0.00    +0.389 N 
ATOM      2  H   UNL     1       1.095   5.509  -1.254  0.00  0.00    -0.080 HD
ENDROOT
BRANCH   1   4
ATOM      3  C   UNL     1       2.375   6.090   1.807  0.00  0.00    -0.013 C 
ATOM      4  C   UNL     1       1.265   5.738   0.815  0.00  0.00    -0.066 C 
BRANCH   4   5
ATOM      5  C   UNL     1       0.345   6.946   0.629  0.00  0.00    +0.027 C 
BRANCH   5   6
ATOM      6  C   UNL     1      -0.779   6.583  -0.307  0.00  0.00    -0.012 A 
ATOM      7  C   UNL     1      -2.036   6.172  -0.011  0.00  0.00    +0.011 A 
ATOM      8  C   UNL     1      -2.911   5.894  -1.045  0.00  0.00    +0.008 A 
ATOM      9  C   UNL     1      -2.482   6.030  -2.324  0.00  0.00    +0.045 A 
ATOM     10  S   UNL     1      -0.797   6.574  -2.092  0.00  0.00    -0.102 S 
ENDBRANCH   5   6
ENDBRANCH   4   5
ENDBRANCH   1   4
BRANCH   1  11
ATOM     11  C   UNL     1       2.994   6.250  -0.801  0.00  0.00    -0.042 C 
BRANCH  11  12
ATOM     12  C   UNL     1       2.478   7.611  -1.194  0.00  0.00    -0.064 A 
ATOM     13  C   UNL     1       1.841   7.783  -2.409  0.00  0.00    +0.005 A 
ATOM     14  C   UNL     1       1.362   9.028  -2.769  0.00  0.00    +0.046 A 
ATOM     15  C   UNL     1       1.532  10.108  -1.915  0.00  0.00    +0.120 A 
ATOM     16  C   UNL     1       2.178   9.934  -0.700  0.00  0.00    +0.046 A 
ATOM     17  C   UNL     1       2.649   8.686  -0.342  0.00  0.00    +0.005 A 
BRANCH  15  18
ATOM     18  O   UNL     1       1.067  11.335  -2.270  0.00  0.00    -0.495 OA
ATOM     19  C   UNL     1       0.413  11.441  -3.536  0.00  0.00    +0.277 C 
ENDBRANCH  15  18
ENDBRANCH  11  12
ENDBRANCH   1  11
BRANCH   1  20
ATOM     20  C   UNL     1       2.269   3.961  -0.489  0.00  0.00    -0.002 C 
BRANCH  20  21
ATOM     21  C   UNL     1       1.044   3.084  -0.476  0.00  0.00    +0.094 A 
ATOM     22  N   UNL     1       1.183   1.741  -0.611  0.00  0.00    -0.312 N 
ATOM     23  H   UNL     1       2.185   1.301  -0.728  0.00  0.00    +0.170 HD
ATOM     24  C   UNL     1       0.115   0.922  -0.604  0.00  0.00    +0.260 A 
ATOM     25  O   UNL     1       0.257  -0.282  -0.726  0.00  0.00    -0.267 OA
ATOM     26  C   UNL     1      -1.192   1.489  -0.459  0.00  0.00    +0.083 A 
ATOM     27  C   UNL     1      -2.489   0.821  -0.428  0.00  0.00    +0.039 A 
ATOM     28  C   UNL     1      -3.606   1.576  -0.279  0.00  0.00    +0.059 A 
ATOM     29  S   UNL     1      -2.969   3.237  -0.157  0.00  0.00    -0.076 S 
ATOM     30  C   UNL     1      -1.238   2.885  -0.321  0.00  0.00    +0.116 A 
ATOM     31  N   UNL     1      -0.135   3.630  -0.336  0.00  0.00    -0.229 NA
BRANCH  27  32
ATOM     32  C   UNL     1      -2.583  -0.647  -0.556  0.00  0.00    +0.136 A 
ATOM     33  C   UNL     1      -3.275  -1.478   0.269  0.00  0.00    +0.050 A 
ATOM     34  C   UNL     1      -3.092  -2.786  -0.225  0.00  0.00    +0.042 A 
ATOM     35  C   UNL     1      -2.301  -2.691  -1.310  0.00  0.00    +0.196 A 
ATOM     36  O   UNL     1      -1.995  -1.397  -1.508  0.00  0.00    -0.463 OA
ENDBRANCH  27  32
ENDBRANCH  20  21
ENDBRANCH   1  20
TORSDOF 9
