REMARK  Name = ZINC67596435
REMARK  8 active torsions:
REMARK  status: ('A' for Active; 'I' for Inactive)
REMARK    1  A    between atoms: C_1  and  C_2
REMARK    2  A    between atoms: C_3  and  N_11
REMARK    3  A    between atoms: C_7  and  N_8
REMARK    4  A    between atoms: C_12  and  C_14
REMARK    5  A    between atoms: C_23  and  C_25
REMARK    6  A    between atoms: C_25  and  C_26
REMARK    7  A    between atoms: C_25  and  C_27
REMARK    8  A    between atoms: C_25  and  C_28
REMARK                            x       y       z     vdW  Elec       q    Type
REMARK                         _______ _______ _______ _____ _____    ______ ____
ROOT
ATOM      1  C   UNL     1       1.705   1.777  -5.434  0.00  0.00    +0.302 C 
ATOM      2  O   UNL     1       1.574   1.199  -4.375  0.00  0.00    -0.265 OA
ATOM      3  N   UNL     1       1.941   1.076  -6.560  0.00  0.00    -0.292 N 
ATOM      4  C   UNL     1       2.212   1.725  -7.795  0.00  0.00    +0.110 C 
ATOM      5  C   UNL     1       0.941   2.167  -8.590  0.00  0.00    +0.038 C 
ATOM      6  C   UNL     1      -0.136   1.049  -8.405  0.00  0.00    +0.109 C 
ATOM      7  N   UNL     1       0.380  -0.275  -8.400  0.00  0.00    -0.299 N 
ATOM      8  C   UNL     1       0.651  -0.889  -7.075  0.00  0.00    +0.126 C 
ATOM      9  C   UNL     1       1.937  -0.410  -6.564  0.00  0.00    +0.127 C 
ATOM     10  C   UNL     1       0.613  -0.944  -9.547  0.00  0.00    +0.221 C 
ATOM     11  O   UNL     1       0.468  -0.386 -10.614  0.00  0.00    -0.275 OA
ENDROOT
BRANCH   1  13
ATOM     12  N   UNL     1       1.417   3.971  -4.355  0.00  0.00    -0.277 N 
ATOM     13  C   UNL     1       1.605   3.266  -5.488  0.00  0.00    +0.303 C 
ATOM     14  O   UNL     1       1.692   3.842  -6.553  0.00  0.00    -0.265 OA
ATOM     15  H   UNL     1       1.281   3.509  -3.513  0.00  0.00    +0.155 HD
BRANCH  12  18
ATOM     16  C   UNL     1       2.361   5.376  -2.067  0.00  0.00    +0.048 C 
ATOM     17  C   UNL     1       1.871   6.094  -3.298  0.00  0.00    +0.001 A 
ATOM     18  C   UNL     1       1.418   5.368  -4.393  0.00  0.00    +0.039 A 
ATOM     19  C   UNL     1       0.967   6.034  -5.525  0.00  0.00    +0.024 A 
ATOM     20  C   UNL     1       0.970   7.415  -5.559  0.00  0.00    +0.004 A 
ATOM     21  C   UNL     1       1.421   8.134  -4.468  0.00  0.00    +0.033 A 
ATOM     22  C   UNL     1       1.865   7.474  -3.337  0.00  0.00    +0.131 A 
BRANCH  22  23
ATOM     23  N   UNL     1       2.341   8.248  -2.168  0.00  0.00    +0.057 N 
ATOM     24  O   UNL     1       2.136   7.840  -1.049  0.00  0.00    -0.126 OA
ATOM     25  O   UNL     1       2.934   9.289  -2.333  0.00  0.00    -0.126 OA
ENDBRANCH  22  23
ENDBRANCH  12  18
ENDBRANCH   1  13
BRANCH  10  26
ATOM     26  C   UNL     1       1.052  -2.385  -9.503  0.00  0.00    +0.039 C 
ATOM     27  C   UNL     1       1.312  -2.882 -10.926  0.00  0.00    +0.020 C 
ATOM     28  C   UNL     1       2.336  -2.501  -8.679  0.00  0.00    +0.020 C 
ATOM     29  C   UNL     1      -0.046  -3.233  -8.859  0.00  0.00    +0.020 C 
ENDBRANCH  10  26
TORSDOF 4
