REMARK  Name = ZINC30568858
REMARK  10 active torsions:
REMARK  status: ('A' for Active; 'I' for Inactive)
REMARK    1  A    between atoms: C_1  and  C_2
REMARK    2  A    between atoms: C_2  and  O_3
REMARK    3  A    between atoms: O_3  and  C_4
REMARK    4  A    between atoms: C_4  and  C_6
REMARK    5  A    between atoms: C_7  and  C_20
REMARK    6  A    between atoms: C_12  and  C_14
REMARK    7  A    between atoms: C_20  and  N_21
REMARK    8  A    between atoms: N_24  and  S_27
REMARK    9  A    between atoms: S_27  and  C_30
REMARK   10  A    between atoms: C_33  and  C_36
REMARK                            x       y       z     vdW  Elec       q    Type
REMARK                         _______ _______ _______ _____ _____    ______ ____
ROOT
ATOM      1  C   UNL     1      -6.302   2.315  -2.876  0.00  0.00    +0.079 C 
ATOM      2  C   UNL     1      -5.312   2.755  -3.683  0.00  0.00    +0.038 C 
ATOM      3  N   UNL     1      -5.121   2.214  -4.922  0.00  0.00    -0.271 N 
ATOM      4  C   UNL     1      -5.870   1.224  -5.424  0.00  0.00    +0.304 C 
ATOM      5  O   UNL     1      -5.619   0.803  -6.537  0.00  0.00    -0.252 OA
ATOM      6  N   UNL     1      -6.894   0.681  -4.738  0.00  0.00    -0.288 N 
ATOM      7  C   UNL     1      -7.188   1.198  -3.390  0.00  0.00    +0.144 C 
ATOM      8  H   UNL     1      -4.315   2.592  -5.569  0.00  0.00    +0.156 HD
ATOM      9  H   UNL     1      -7.506  -0.130  -5.161  0.00  0.00    +0.151 HD
ENDROOT
BRANCH   7  10
ATOM     10  C   UNL     1      -8.611   1.693  -3.383  0.00  0.00    -0.023 A 
ATOM     11  C   UNL     1      -9.065   2.510  -4.402  0.00  0.00    +0.006 A 
ATOM     12  C   UNL     1     -10.371   2.960  -4.397  0.00  0.00    +0.000 A 
ATOM     13  C   UNL     1     -11.222   2.602  -3.368  0.00  0.00    +0.000 A 
ATOM     14  C   UNL     1     -10.767   1.790  -2.346  0.00  0.00    +0.000 A 
ATOM     15  C   UNL     1      -9.461   1.336  -2.353  0.00  0.00    +0.006 A 
ENDBRANCH   7  10
BRANCH   1  16
ATOM     16  C   UNL     1      -6.504   2.877  -1.594  0.00  0.00    +0.339 C 
ATOM     17  O   UNL     1      -6.108   2.292  -0.603  0.00  0.00    -0.245 OA
BRANCH  16  18
ATOM     18  O   UNL     1      -7.136   4.063  -1.469  0.00  0.00    -0.462 OA
BRANCH  18  20
ATOM     19  C   UNL     1      -8.038   5.914  -0.204  0.00  0.00    +0.048 C 
ATOM     20  C   UNL     1      -7.306   4.571  -0.145  0.00  0.00    +0.229 C 
ENDBRANCH  18  20
ENDBRANCH  16  18
ENDBRANCH   1  16
BRANCH   2  21
ATOM     21  C   UNL     1      -4.408   3.864  -3.211  0.00  0.00    +0.136 C 
BRANCH  21  22
ATOM     22  N   UNL     1      -3.037   3.355  -3.079  0.00  0.00    -0.294 NA
ATOM     23  C   UNL     1      -2.176   4.333  -2.400  0.00  0.00    +0.102 C 
ATOM     24  C   UNL     1      -0.723   3.846  -2.443  0.00  0.00    +0.125 C 
ATOM     25  N   UNL     1      -0.670   2.483  -1.894  0.00  0.00    -0.174 NA
ATOM     26  C   UNL     1      -1.597   1.478  -2.436  0.00  0.00    +0.125 C 
ATOM     27  C   UNL     1      -3.020   2.059  -2.388  0.00  0.00    +0.102 C 
BRANCH  25  28
ATOM     28  S   UNL     1       0.409   2.088  -0.702  0.00  0.00    +0.061 S 
ATOM     29  O   UNL     1       0.612   0.684  -0.786  0.00  0.00    -0.153 OA
ATOM     30  O   UNL     1       1.478   3.019  -0.798  0.00  0.00    -0.153 OA
BRANCH  28  31
ATOM     31  C   UNL     1      -0.385   2.390   0.841  0.00  0.00    +0.105 A 
ATOM     32  C   UNL     1      -0.275   3.630   1.444  0.00  0.00    +0.029 A 
ATOM     33  C   UNL     1      -0.902   3.868   2.653  0.00  0.00    +0.005 A 
ATOM     34  C   UNL     1      -1.631   2.865   3.263  0.00  0.00    -0.050 A 
ATOM     35  C   UNL     1      -1.737   1.624   2.663  0.00  0.00    +0.005 A 
ATOM     36  C   UNL     1      -1.113   1.387   1.452  0.00  0.00    +0.029 A 
ATOM     37  C   UNL     1      -2.312   3.124   4.583  0.00  0.00    +0.044 C 
ENDBRANCH  28  31
ENDBRANCH  25  28
ENDBRANCH  21  22
ENDBRANCH   2  21
TORSDOF 8
