REMARK  Name = ZINC01130075
REMARK  10 active torsions:
REMARK  status: ('A' for Active; 'I' for Inactive)
REMARK    1  A    between atoms: C_1  and  C_2
REMARK    2  A    between atoms: C_3  and  C_29
REMARK    3  A    between atoms: C_4  and  C_20
REMARK    4  A    between atoms: C_10  and  C_15
REMARK    5  A    between atoms: C_24  and  N_26
REMARK    6  A    between atoms: C_29  and  O_31
REMARK    7  A    between atoms: O_31  and  C_32
REMARK    8  A    between atoms: C_32  and  C_33
REMARK    9  A    between atoms: C_36  and  O_39
REMARK   10  A    between atoms: O_39  and  C_40
REMARK                            x       y       z     vdW  Elec       q    Type
REMARK                         _______ _______ _______ _____ _____    ______ ____
ROOT
ATOM      1  C   UNL     1      -2.683   6.737   2.520  0.00  0.00    +0.061 C 
ATOM      2  C   UNL     1      -2.023   6.275   1.246  0.00  0.00    +0.016 C 
ATOM      3  C   UNL     1      -0.758   5.824   1.276  0.00  0.00    +0.065 C 
ATOM      4  C   UNL     1      -0.070   5.347   0.030  0.00  0.00    +0.092 C 
ATOM      5  C   UNL     1      -0.785   5.839  -1.204  0.00  0.00    +0.024 C 
ATOM      6  C   UNL     1      -2.054   6.294  -1.130  0.00  0.00    +0.016 C 
ATOM      7  N   UNL     1      -2.715   6.317   0.068  0.00  0.00    -0.321 N 
ATOM      8  C   UNL     1      -2.774   6.790  -2.360  0.00  0.00    +0.062 C 
ATOM      9  C   UNL     1      -2.263   6.041  -3.592  0.00  0.00    +0.068 C 
ATOM     10  C   UNL     1      -0.751   6.263  -3.703  0.00  0.00    +0.091 C 
ATOM     11  C   UNL     1      -0.095   5.809  -2.428  0.00  0.00    +0.162 C 
ATOM     12  O   UNL     1       1.052   5.408  -2.457  0.00  0.00    -0.292 OA
ATOM     13  H   UNL     1      -3.814   6.371   0.078  0.00  0.00    +0.152 HD
ENDROOT
BRANCH   4  14
ATOM     14  C   UNL     1      -0.050   3.840   0.022  0.00  0.00    -0.033 A 
ATOM     15  C   UNL     1      -1.238   3.133   0.030  0.00  0.00    +0.005 A 
ATOM     16  C   UNL     1      -1.219   1.751   0.017  0.00  0.00    +0.003 A 
ATOM     17  C   UNL     1      -0.013   1.076   0.008  0.00  0.00    +0.033 A 
ATOM     18  C   UNL     1       1.175   1.783   0.000  0.00  0.00    +0.126 A 
ATOM     19  C   UNL     1       1.156   3.166   0.008  0.00  0.00    +0.037 A 
BRANCH  18  20
ATOM     20  N   UNL     1       2.467   1.060  -0.016  0.00  0.00    +0.056 N 
ATOM     21  O   UNL     1       2.483  -0.157  -0.023  0.00  0.00    -0.126 OA
ATOM     22  O   UNL     1       3.513   1.684  -0.022  0.00  0.00    -0.126 OA
ENDBRANCH  18  20
ENDBRANCH   4  14
BRANCH   9  23
ATOM     23  C   UNL     1      -2.945   6.572  -4.827  0.00  0.00    +0.109 A 
ATOM     24  C   UNL     1      -3.706   5.857  -5.674  0.00  0.00    +0.045 A 
ATOM     25  C   UNL     1      -4.140   6.746  -6.684  0.00  0.00    +0.041 A 
ATOM     26  C   UNL     1      -3.619   7.952  -6.393  0.00  0.00    +0.195 A 
ATOM     27  O   UNL     1      -2.900   7.841  -5.264  0.00  0.00    -0.468 OA
ENDBRANCH   9  23
BRANCH   3  28
ATOM     28  C   UNL     1      -0.061   5.798   2.506  0.00  0.00    +0.338 C 
ATOM     29  O   UNL     1      -0.608   6.182   3.523  0.00  0.00    -0.245 OA
BRANCH  28  30
ATOM     30  O   UNL     1       1.210   5.348   2.552  0.00  0.00    -0.457 OA
BRANCH  30  31
ATOM     31  C   UNL     1       1.854   5.349   3.828  0.00  0.00    +0.268 C 
BRANCH  31  32
ATOM     32  C   UNL     1       3.256   4.817   3.684  0.00  0.00    -0.010 A 
ATOM     33  C   UNL     1       3.498   3.463   3.828  0.00  0.00    +0.010 A 
ATOM     34  C   UNL     1       4.782   2.972   3.691  0.00  0.00    +0.046 A 
ATOM     35  C   UNL     1       5.830   3.839   3.421  0.00  0.00    +0.120 A 
ATOM     36  C   UNL     1       5.586   5.197   3.283  0.00  0.00    +0.046 A 
ATOM     37  C   UNL     1       4.299   5.683   3.415  0.00  0.00    +0.010 A 
BRANCH  35  38
ATOM     38  O   UNL     1       7.095   3.359   3.291  0.00  0.00    -0.495 OA
ATOM     39  C   UNL     1       7.273   1.949   3.446  0.00  0.00    +0.277 C 
ENDBRANCH  35  38
ENDBRANCH  31  32
ENDBRANCH  30  31
ENDBRANCH  28  30
ENDBRANCH   3  28
TORSDOF 8
