REMARK  Name = ZINC09272616
REMARK  7 active torsions:
REMARK  status: ('A' for Active; 'I' for Inactive)
REMARK    1  A    between atoms: C_1  and  C_2
REMARK    2  A    between atoms: N_5  and  C_8
REMARK    3  A    between atoms: C_8  and  C_9
REMARK    4  A    between atoms: C_10  and  C_20
REMARK    5  A    between atoms: N_22  and  N_23
REMARK    6  A    between atoms: C_24  and  C_25
REMARK    7  A    between atoms: C_24  and  C_26
REMARK                            x       y       z     vdW  Elec       q    Type
REMARK                         _______ _______ _______ _____ _____    ______ ____
ROOT
ATOM      1  C   UNL     1      -0.143  -4.380   2.730  0.00  0.00    +0.063 A 
ATOM      2  C   UNL     1       1.172  -4.669   2.963  0.00  0.00    +0.170 A 
ATOM      3  N   UNL     1       1.310  -5.011   4.256  0.00  0.00    -0.124 NA
ATOM      4  N   UNL     1       0.165  -4.953   4.842  0.00  0.00    -0.058 NA
ATOM      5  N   UNL     1      -0.793  -4.548   3.903  0.00  0.00    -0.194 N 
ATOM      6  C   UNL     1      -2.160  -4.356   4.134  0.00  0.00    +0.240 A 
ATOM      7  C   UNL     1      -2.847  -4.537   5.416  0.00  0.00    +0.206 A 
ATOM      8  N   UNL     1      -4.112  -4.268   5.245  0.00  0.00    -0.032 NA
ATOM      9  O   UNL     1      -4.300  -3.912   3.888  0.00  0.00    -0.239 OA
ATOM     10  N   UNL     1      -3.038  -3.981   3.248  0.00  0.00    -0.027 NA
ATOM     11  N   UNL     1      -2.252  -4.929   6.610  0.00  0.00    -0.337 N 
ATOM     12  H   UNL     1      -1.299  -5.109   6.641  0.00  0.00    +0.144 HD
ATOM     13  H   UNL     1      -2.789  -5.023   7.412  0.00  0.00    +0.144 HD
ENDROOT
BRANCH   2  14
ATOM     14  C   UNL     1       2.256  -4.615   1.965  0.00  0.00    +0.285 C 
ATOM     15  O   UNL     1       2.012  -4.292   0.818  0.00  0.00    -0.267 OA
ATOM     16  N   UNL     1       3.518  -4.926   2.323  0.00  0.00    -0.201 N 
ATOM     17  H   UNL     1       3.713  -5.184   3.238  0.00  0.00    +0.178 HD
BRANCH  16  18
ATOM     18  N   UNL     1       4.548  -4.875   1.375  0.00  0.00    -0.184 NA
ATOM     19  C   UNL     1       5.763  -5.173   1.720  0.00  0.00    +0.063 C 
ATOM     20  C   UNL     1       6.065  -5.574   3.141  0.00  0.00    +0.068 C 
BRANCH  19  21
ATOM     21  C   UNL     1       6.847  -5.120   0.722  0.00  0.00    -0.001 A 
ATOM     22  C   UNL     1       8.155  -5.446   1.089  0.00  0.00    +0.010 A 
ATOM     23  C   UNL     1       9.165  -5.394   0.151  0.00  0.00    +0.002 A 
ATOM     24  C   UNL     1       8.885  -5.020  -1.152  0.00  0.00    +0.015 A 
ATOM     25  C   UNL     1       7.591  -4.695  -1.523  0.00  0.00    +0.018 A 
ATOM     26  C   UNL     1       6.570  -4.748  -0.595  0.00  0.00    +0.025 A 
ATOM     27 BR   UNL     1       7.221  -4.185  -3.305  0.00  0.00    -0.050 Br
ENDBRANCH  19  21
ENDBRANCH  16  18
ENDBRANCH   2  14
BRANCH   1  28
ATOM     28  C   UNL     1      -0.750  -3.952   1.419  0.00  0.00    -0.020 C 
BRANCH  28  33
ATOM     29  C   UNL     1      -0.019   1.526   0.010  0.00  0.00    +0.007 C 
ATOM     30  C   UNL     1       0.002  -0.004   0.002  0.00  0.00    -0.018 C 
ATOM     31  C   UNL     1      -1.434  -0.536   0.023  0.00  0.00    -0.016 C 
ATOM     32  C   UNL     1      -1.405  -2.064   0.095  0.00  0.00    -0.078 C 
ATOM     33  N   UNL     1      -0.707  -2.487   1.315  0.00  0.00    +0.383 N 
ATOM     34  C   UNL     1       0.691  -2.042   1.269  0.00  0.00    -0.078 C 
ATOM     35  C   UNL     1       0.743  -0.513   1.242  0.00  0.00    -0.016 C 
ATOM     36  H   UNL     1      -1.162  -2.082   2.119  0.00  0.00    -0.081 HD
ENDBRANCH  28  33
ENDBRANCH   1  28
TORSDOF 5
