REMARK  Name = ZINC63829840
REMARK  5 active torsions:
REMARK  status: ('A' for Active; 'I' for Inactive)
REMARK    1  A    between atoms: C_10  and  N_12
REMARK    2  A    between atoms: C_13  and  C_15
REMARK    3  A    between atoms: C_15  and  N_16
REMARK    4  A    between atoms: C_19  and  C_24
REMARK    5  A    between atoms: C_24  and  C_25
REMARK                            x       y       z     vdW  Elec       q    Type
REMARK                         _______ _______ _______ _____ _____    ______ ____
ROOT
ATOM      1  N   UNL     1       6.869   2.958  -0.781  0.00  0.00    -0.216 N 
ATOM      2  C   UNL     1       6.349   4.200  -0.731  0.00  0.00    +0.244 C 
ATOM      3  O   UNL     1       5.312   4.581  -1.231  0.00  0.00    -0.273 OA
ATOM      4  C   UNL     1       7.329   5.022   0.083  0.00  0.00    +0.165 C 
ATOM      5  N   UNL     1       8.387   4.057   0.428  0.00  0.00    -0.287 N 
ATOM      6  C   UNL     1       8.027   2.881  -0.116  0.00  0.00    +0.310 C 
ATOM      7  O   UNL     1       8.682   1.862  -0.017  0.00  0.00    -0.252 OA
ATOM      8  H   UNL     1       9.185   4.235   0.949  0.00  0.00    +0.151 HD
ENDROOT
BRANCH   1   9
ATOM      9  C   UNL     1       6.241   1.831  -1.474  0.00  0.00    +0.213 C 
BRANCH   9  11
ATOM     10  N   UNL     1       4.631   0.029  -0.946  0.00  0.00    -0.307 N 
ATOM     11  C   UNL     1       5.321   1.107  -0.525  0.00  0.00    +0.231 C 
ATOM     12  O   UNL     1       5.202   1.495   0.618  0.00  0.00    -0.274 OA
ATOM     13  H   UNL     1       4.726  -0.282  -1.860  0.00  0.00    +0.149 HD
BRANCH  10  23
ATOM     14  C   UNL     1      -0.017   1.375   0.010  0.00  0.00    +0.000 A 
ATOM     15  C   UNL     1       1.174   2.078   0.002  0.00  0.00    +0.000 A 
ATOM     16  C   UNL     1       2.372   1.395  -0.010  0.00  0.00    +0.006 A 
ATOM     17  C   UNL     1       2.393   0.006  -0.017  0.00  0.00    -0.024 A 
ATOM     18  C   UNL     1       1.208  -0.694  -0.015  0.00  0.00    -0.042 A 
ATOM     19  C   UNL     1       0.002  -0.004   0.002  0.00  0.00    +0.004 A 
ATOM     20  C   UNL     1       1.155  -2.199  -0.038  0.00  0.00    +0.035 C 
ATOM     21  C   UNL     1       2.501  -2.790   0.375  0.00  0.00    +0.007 C 
ATOM     22  C   UNL     1       3.599  -2.130  -0.467  0.00  0.00    +0.027 C 
ATOM     23  C   UNL     1       3.737  -0.675  -0.023  0.00  0.00    +0.103 C 
ENDBRANCH  10  23
ENDBRANCH   9  11
ENDBRANCH   1   9
BRANCH   4  24
ATOM     24  C   UNL     1       6.658   5.566   1.345  0.00  0.00    +0.065 C 
BRANCH  24  25
ATOM     25  C   UNL     1       7.614   6.477   2.071  0.00  0.00    -0.039 C 
ATOM     26  C   UNL     1       7.687   7.824   1.972  0.00  0.00    -0.001 A 
ATOM     27  C   UNL     1       6.928   8.806   1.189  0.00  0.00    +0.010 A 
ATOM     28  C   UNL     1       7.239  10.117   1.302  0.00  0.00    +0.001 A 
ATOM     29  C   UNL     1       8.267  10.560   2.146  0.00  0.00    +0.002 A 
ATOM     30  C   UNL     1       9.009   9.719   2.896  0.00  0.00    +0.026 A 
ATOM     31  C   UNL     1       8.767   8.318   2.856  0.00  0.00    +0.043 A 
ATOM     32  N   UNL     1       9.340   7.315   3.477  0.00  0.00    -0.380 N 
ATOM     33  C   UNL     1       8.683   6.071   3.061  0.00  0.00    +0.144 C 
ATOM     34  H   UNL     1      10.073   7.384   4.108  0.00  0.00    +0.160 HD
ENDBRANCH  24  25
ENDBRANCH   4  24
TORSDOF 5
