REMARK  Name = ZINC39628434
REMARK  11 active torsions:
REMARK  status: ('A' for Active; 'I' for Inactive)
REMARK    1  A    between atoms: C_1  and  C_2
REMARK    2  A    between atoms: C_2  and  C_3
REMARK    3  A    between atoms: C_3  and  C_4
REMARK    4  A    between atoms: C_3  and  C_6
REMARK    5  A    between atoms: C_4  and  C_5
REMARK    6  A    between atoms: C_10  and  C_19
REMARK    7  A    between atoms: N_21  and  C_22
REMARK    8  A    between atoms: C_22  and  C_23
REMARK    9  A    between atoms: C_23  and  C_24
REMARK   10  A    between atoms: C_24  and  N_25
REMARK   11  A    between atoms: C_30  and  C_32
REMARK                            x       y       z     vdW  Elec       q    Type
REMARK                         _______ _______ _______ _____ _____    ______ ____
ROOT
ATOM      1  C   UNL     1       0.794  -1.967   1.043  0.00  0.00    +0.219 C 
ATOM      2  O   UNL     1       0.464  -2.505   0.007  0.00  0.00    -0.275 OA
ATOM      3  N   UNL     1       1.322  -2.700   2.043  0.00  0.00    -0.300 N 
ATOM      4  C   UNL     1       1.867  -2.215   3.334  0.00  0.00    +0.121 C 
ATOM      5  C   UNL     1       1.396  -3.259   4.372  0.00  0.00    +0.100 C 
ATOM      6  C   UNL     1       1.152  -4.540   3.558  0.00  0.00    -0.004 C 
ATOM      7  C   UNL     1       1.483  -4.172   2.104  0.00  0.00    +0.115 C 
ATOM      8  C   UNL     1      -0.309  -4.965   3.668  0.00  0.00    -0.010 C 
ATOM      9  C   UNL     1      -0.515  -6.273   2.897  0.00  0.00    -0.082 C 
ATOM     10  N   UNL     1       0.362  -7.312   3.451  0.00  0.00    +0.379 N 
ATOM     11  C   UNL     1       1.768  -6.937   3.257  0.00  0.00    -0.082 C 
ATOM     12  C   UNL     1       2.070  -5.658   4.043  0.00  0.00    -0.010 C 
ATOM     13  H   UNL     1       0.175  -7.417   4.437  0.00  0.00    -0.086 HD
ATOM     14  H   UNL     1       0.181  -8.187   2.982  0.00  0.00    -0.086 HD
ENDROOT
BRANCH   5  15
ATOM     15  C   UNL     1       2.467  -3.488   5.407  0.00  0.00    +0.218 C 
ATOM     16  O   UNL     1       3.630  -3.283   5.133  0.00  0.00    -0.275 OA
ATOM     17  N   UNL     1       2.132  -3.921   6.639  0.00  0.00    -0.315 N 
ATOM     18  H   UNL     1       1.201  -4.085   6.859  0.00  0.00    +0.149 HD
BRANCH  17  19
ATOM     19  C   UNL     1       3.172  -4.144   7.645  0.00  0.00    +0.102 C 
BRANCH  19  20
ATOM     20  C   UNL     1       2.529  -4.631   8.945  0.00  0.00    +0.000 C 
BRANCH  20  21
ATOM     21  C   UNL     1       3.616  -4.864   9.996  0.00  0.00    -0.077 C 
BRANCH  21  22
ATOM     22  N   UNL     1       2.998  -5.331  11.245  0.00  0.00    +0.381 N 
ATOM     23  C   UNL     1       2.375  -6.641  11.021  0.00  0.00    -0.078 C 
ATOM     24  C   UNL     1       1.661  -7.095  12.295  0.00  0.00    -0.019 C 
ATOM     25  C   UNL     1       2.678  -7.200  13.435  0.00  0.00    -0.003 C 
ATOM     26  C   UNL     1       3.374  -5.847  13.610  0.00  0.00    -0.016 C 
ATOM     27  C   UNL     1       4.026  -5.439  12.287  0.00  0.00    -0.072 C 
ATOM     28  C   UNL     1       4.723  -4.088  12.458  0.00  0.00    -0.013 C 
ATOM     29  H   UNL     1       2.292  -4.671  11.537  0.00  0.00    -0.081 HD
ENDBRANCH  21  22
ENDBRANCH  20  21
ENDBRANCH  19  20
ENDBRANCH  17  19
ENDBRANCH   5  15
BRANCH   1  30
ATOM     30  C   UNL     1       0.614  -0.480   1.211  0.00  0.00    +0.075 C 
BRANCH  30  32
ATOM     31  C   UNL     1       1.699   1.749   0.902  0.00  0.00    +0.004 C 
ATOM     32  C   UNL     1       1.822   0.250   0.621  0.00  0.00    +0.009 C 
ENDBRANCH  30  32
BRANCH  30  33
ATOM     33  C   UNL     1      -0.657  -0.035   0.484  0.00  0.00    +0.009 C 
ATOM     34  C   UNL     1      -1.878  -0.658   1.162  0.00  0.00    +0.004 C 
ENDBRANCH  30  33
ENDBRANCH   1  30
TORSDOF 8
