REMARK  Name = ZINC12514748
REMARK  6 active torsions:
REMARK  status: ('A' for Active; 'I' for Inactive)
REMARK    1  A    between atoms: C_3  and  N_19
REMARK    2  A    between atoms: C_4  and  N_16
REMARK    3  A    between atoms: C_6  and  S_7
REMARK    4  A    between atoms: S_7  and  N_10
REMARK    5  A    between atoms: N_19  and  C_20
REMARK    6  A    between atoms: C_25  and  C_28
REMARK                            x       y       z     vdW  Elec       q    Type
REMARK                         _______ _______ _______ _____ _____    ______ ____
ROOT
ATOM      1  C   UNL     1       2.480   3.782   2.867  0.00  0.00    +0.030 A 
ATOM      2  C   UNL     1       1.410   3.076   2.353  0.00  0.00    +0.027 A 
ATOM      3  C   UNL     1       0.351   3.753   1.764  0.00  0.00    +0.058 A 
ATOM      4  C   UNL     1       0.374   5.141   1.688  0.00  0.00    +0.149 A 
ATOM      5  C   UNL     1       1.444   5.841   2.208  0.00  0.00    +0.063 A 
ATOM      6  C   UNL     1       2.497   5.163   2.794  0.00  0.00    +0.108 A 
ENDROOT
BRANCH   6   7
ATOM      7  S   UNL     1       3.865   6.061   3.450  0.00  0.00    +0.061 S 
ATOM      8  O   UNL     1       3.389   7.366   3.747  0.00  0.00    -0.153 OA
ATOM      9  O   UNL     1       4.465   5.227   4.431  0.00  0.00    -0.153 OA
BRANCH   7  10
ATOM     10  N   UNL     1       4.971   6.228   2.229  0.00  0.00    -0.172 NA
ATOM     11  C   UNL     1       6.027   5.223   2.020  0.00  0.00    +0.137 C 
ATOM     12  C   UNL     1       6.013   4.815   0.539  0.00  0.00    +0.177 C 
ATOM     13  O   UNL     1       6.086   5.989  -0.273  0.00  0.00    -0.377 OA
ATOM     14  C   UNL     1       4.975   6.876  -0.120  0.00  0.00    +0.177 C 
ATOM     15  C   UNL     1       4.932   7.388   1.324  0.00  0.00    +0.137 C 
ENDBRANCH   7  10
ENDBRANCH   6   7
BRANCH   4  16
ATOM     16  N   UNL     1      -0.750   5.867   1.056  0.00  0.00    +0.058 N 
ATOM     17  O   UNL     1      -0.682   7.072   0.894  0.00  0.00    -0.126 OA
ATOM     18  O   UNL     1      -1.743   5.259   0.698  0.00  0.00    -0.126 OA
ENDBRANCH   4  16
BRANCH   3  19
ATOM     19  N   UNL     1      -0.733   3.042   1.245  0.00  0.00    -0.339 N 
ATOM     20  H   UNL     1      -1.508   3.517   0.906  0.00  0.00    +0.146 HD
BRANCH  19  21
ATOM     21  C   UNL     1      -0.700   1.578   1.211  0.00  0.00    +0.071 C 
ATOM     22  C   UNL     1       0.024   1.113  -0.054  0.00  0.00    +0.022 C 
ATOM     23  C   UNL     1      -0.717   1.634  -1.286  0.00  0.00    +0.002 C 
ATOM     24  C   UNL     1      -2.148   1.091  -1.289  0.00  0.00    +0.012 C 
ATOM     25  C   UNL     1      -2.872   1.556  -0.024  0.00  0.00    +0.095 C 
ATOM     26  C   UNL     1      -2.130   1.035   1.209  0.00  0.00    +0.034 C 
BRANCH  25  27
ATOM     27  C   UNL     1      -4.302   1.014  -0.026  0.00  0.00    +0.393 C 
ATOM     28  F   UNL     1      -4.270  -0.385  -0.058  0.00  0.00    -0.170 F 
ATOM     29  F   UNL     1      -4.964   1.439   1.131  0.00  0.00    -0.170 F 
ATOM     30  F   UNL     1      -4.980   1.490  -1.153  0.00  0.00    -0.170 F 
ENDBRANCH  25  27
ENDBRANCH  19  21
ENDBRANCH   3  19
TORSDOF 6
