REMARK  Name = ZINC58918690
REMARK  4 active torsions:
REMARK  status: ('A' for Active; 'I' for Inactive)
REMARK    1  A    between atoms: C_1  and  C_2
REMARK    2  A    between atoms: C_2  and  C_4
REMARK    3  A    between atoms: C_4  and  N_5
REMARK    4  A    between atoms: C_9  and  C_12
REMARK                            x       y       z     vdW  Elec       q    Type
REMARK                         _______ _______ _______ _____ _____    ______ ____
ROOT
ATOM      1  N   UNL     1      -1.224  -0.922  -1.885  0.00  0.00    +0.383 N 
ATOM      2  C   UNL     1      -1.712   0.382  -2.349  0.00  0.00    -0.078 C 
ATOM      3  C   UNL     1      -3.136   0.235  -2.889  0.00  0.00    -0.018 C 
ATOM      4  C   UNL     1      -3.133  -0.756  -4.057  0.00  0.00    +0.007 C 
ATOM      5  C   UNL     1      -2.553  -2.090  -3.580  0.00  0.00    +0.040 C 
ATOM      6  C   UNL     1      -1.150  -1.857  -3.014  0.00  0.00    -0.067 C 
ATOM      7  H   UNL     1      -1.856  -1.287  -1.188  0.00  0.00    -0.081 HD
ENDROOT
BRANCH   5   8
ATOM      8  C   UNL     1      -2.475  -3.049  -4.740  0.00  0.00    +0.135 A 
ATOM      9  N   UNL     1      -1.793  -2.880  -5.842  0.00  0.00    -0.134 NA
ATOM     10  N   UNL     1      -1.950  -3.902  -6.610  0.00  0.00    -0.134 NA
ATOM     11  C   UNL     1      -2.733  -4.766  -6.031  0.00  0.00    +0.133 A 
ATOM     12  N   UNL     1      -3.094  -4.247  -4.834  0.00  0.00    -0.315 N 
ATOM     13  C   UNL     1      -3.989  -4.860  -3.852  0.00  0.00    +0.125 C 
ATOM     14  C   UNL     1      -3.920  -6.384  -3.984  0.00  0.00    +0.022 C 
ATOM     15  C   UNL     1      -4.957  -6.861  -5.000  0.00  0.00    +0.002 C 
ATOM     16  C   UNL     1      -4.672  -6.263  -6.375  0.00  0.00    +0.008 C 
ATOM     17  C   UNL     1      -3.166  -6.106  -6.567  0.00  0.00    +0.076 C 
ENDBRANCH   5   8
BRANCH   1  18
ATOM     18  C   UNL     1       0.113  -0.762  -1.296  0.00  0.00    -0.048 C 
BRANCH  18  20
ATOM     19  C   UNL     1      -0.380  -0.549   1.258  0.00  0.00    +0.036 C 
ATOM     20  C   UNL     1       0.015   0.082  -0.051  0.00  0.00    -0.096 C 
ATOM     21  C   UNL     1       0.274   1.365  -0.108  0.00  0.00    +0.005 C 
ENDBRANCH  18  20
ENDBRANCH   1  18
TORSDOF 3
