REMARK  Name = ZINC39914186
REMARK  16 active torsions:
REMARK  status: ('A' for Active; 'I' for Inactive)
REMARK    1  A    between atoms: C_1  and  C_2
REMARK    2  A    between atoms: C_2  and  C_3
REMARK    3  A    between atoms: C_3  and  O_4
REMARK    4  A    between atoms: O_4  and  C_5
REMARK    5  A    between atoms: C_8  and  C_14
REMARK    6  A    between atoms: C_10  and  O_11
REMARK    7  A    between atoms: O_11  and  C_12
REMARK    8  A    between atoms: C_12  and  C_13
REMARK    9  A    between atoms: C_17  and  C_30
REMARK   10  A    between atoms: N_24  and  C_25
REMARK   11  A    between atoms: C_25  and  C_26
REMARK   12  A    between atoms: C_26  and  C_27
REMARK   13  A    between atoms: C_27  and  O_28
REMARK   14  A    between atoms: O_28  and  C_29
REMARK   15  A    between atoms: C_33  and  C_37
REMARK   16  A    between atoms: C_35  and  O_36
REMARK                            x       y       z     vdW  Elec       q    Type
REMARK                         _______ _______ _______ _____ _____    ______ ____
ROOT
ATOM      1  C   UNL     1       3.715  -4.037   5.008  0.00  0.00    +0.141 C 
ATOM      2  C   UNL     1       3.152  -4.330   6.372  0.00  0.00    +0.035 A 
ATOM      3  C   UNL     1       2.160  -4.964   7.127  0.00  0.00    +0.102 A 
ATOM      4  N   UNL     1       2.403  -4.704   8.396  0.00  0.00    -0.173 NA
ATOM      5  N   UNL     1       3.450  -3.968   8.518  0.00  0.00    -0.272 N 
ATOM      6  H   UNL     1       3.815  -3.654   9.360  0.00  0.00    +0.189 HD
ATOM      7  C   UNL     1       3.972  -3.695   7.285  0.00  0.00    +0.126 A 
ATOM      8  C   UNL     1       5.040  -3.006   6.553  0.00  0.00    +0.265 C 
ATOM      9  O   UNL     1       5.927  -2.353   7.070  0.00  0.00    -0.268 OA
ATOM     10  N   UNL     1       4.901  -3.199   5.228  0.00  0.00    -0.285 N 
ENDROOT
BRANCH   3  11
ATOM     11  C   UNL     1       1.039  -5.780   6.596  0.00  0.00    +0.045 A 
ATOM     12  C   UNL     1       0.975  -6.080   5.238  0.00  0.00    +0.034 A 
ATOM     13  C   UNL     1      -0.070  -6.839   4.749  0.00  0.00    +0.045 A 
ATOM     14  C   UNL     1      -1.055  -7.303   5.606  0.00  0.00    -0.029 A 
ATOM     15  C   UNL     1      -0.999  -7.010   6.955  0.00  0.00    +0.050 A 
ATOM     16  C   UNL     1       0.047  -6.255   7.459  0.00  0.00    +0.126 A 
ATOM     17  C   UNL     1      -2.191  -8.131   5.064  0.00  0.00    +0.045 C 
ATOM     18 CL   UNL     1      -0.151  -7.213   3.056  0.00  0.00    -0.083 Cl
BRANCH  16  19
ATOM     19  O   UNL     1       0.106  -5.971   8.787  0.00  0.00    -0.506 OA
ATOM     20  H   UNL     1      -0.348  -5.154   9.034  0.00  0.00    +0.292 HD
ENDBRANCH  16  19
ENDBRANCH   3  11
BRANCH   1  24
ATOM     21  C   UNL     1       0.837  -1.934   2.646  0.00  0.00    +0.162 A 
ATOM     22  C   UNL     1       1.202  -3.227   2.309  0.00  0.00    +0.050 A 
ATOM     23  C   UNL     1       2.132  -3.905   3.075  0.00  0.00    +0.009 A 
ATOM     24  C   UNL     1       2.701  -3.294   4.177  0.00  0.00    -0.019 A 
ATOM     25  C   UNL     1       2.342  -2.004   4.519  0.00  0.00    +0.055 A 
ATOM     26  C   UNL     1       1.414  -1.317   3.752  0.00  0.00    +0.162 A 
BRANCH  21  27
ATOM     27  O   UNL     1      -0.078  -1.266   1.894  0.00  0.00    -0.488 OA
BRANCH  27  28
ATOM     28  C   UNL     1      -0.629  -1.961   0.773  0.00  0.00    +0.229 C 
BRANCH  28  30
ATOM     29  C   UNL     1      -2.221  -1.801  -1.145  0.00  0.00    +0.007 C 
ATOM     30  C   UNL     1      -1.632  -1.057   0.054  0.00  0.00    +0.038 C 
ENDBRANCH  28  30
ENDBRANCH  27  28
ENDBRANCH  21  27
BRANCH  26  31
ATOM     31  O   UNL     1       1.063  -0.045   4.084  0.00  0.00    -0.489 OA
BRANCH  31  32
ATOM     32  C   UNL     1       1.758   0.554   5.179  0.00  0.00    +0.226 C 
ATOM     33  C   UNL     1       1.294   2.003   5.345  0.00  0.00    +0.048 C 
ENDBRANCH  31  32
ENDBRANCH  26  31
ENDBRANCH   1  24
BRANCH  10  34
ATOM     34  C   UNL     1       5.780  -2.665   4.184  0.00  0.00    +0.111 C 
BRANCH  34  35
ATOM     35  C   UNL     1       5.265  -1.296   3.735  0.00  0.00    +0.047 C 
BRANCH  35  36
ATOM     36  C   UNL     1       6.183  -0.739   2.645  0.00  0.00    +0.161 C 
BRANCH  36  37
ATOM     37  O   UNL     1       5.702   0.539   2.225  0.00  0.00    -0.383 OA
ATOM     38  C   UNL     1       6.493   1.151   1.203  0.00  0.00    +0.193 C 
ENDBRANCH  36  37
ENDBRANCH  35  36
ENDBRANCH  34  35
ENDBRANCH  10  34
TORSDOF 12
