REMARK  Name = ZINC39652669
REMARK  8 active torsions:
REMARK  status: ('A' for Active; 'I' for Inactive)
REMARK    1  A    between atoms: C_1  and  C_2
REMARK    2  A    between atoms: C_2  and  O_3
REMARK    3  A    between atoms: O_3  and  C_4
REMARK    4  A    between atoms: C_9  and  C_10
REMARK    5  A    between atoms: C_10  and  C_11
REMARK    6  A    between atoms: C_11  and  N_12
REMARK    7  A    between atoms: C_13  and  C_15
REMARK    8  A    between atoms: C_26  and  C_28
REMARK                            x       y       z     vdW  Elec       q    Type
REMARK                         _______ _______ _______ _____ _____    ______ ____
ROOT
ATOM      1  C   UNL     1      -7.739   1.530  -2.259  0.00  0.00    +0.100 C 
ATOM      2  C   UNL     1      -7.125   2.684  -1.436  0.00  0.00    +0.121 C 
ATOM      3  N   UNL     1      -6.647   3.654  -2.449  0.00  0.00    -0.296 N 
ATOM      4  C   UNL     1      -7.698   3.644  -3.494  0.00  0.00    +0.115 C 
ATOM      5  C   UNL     1      -8.117   2.164  -3.608  0.00  0.00    -0.004 C 
ATOM      6  C   UNL     1      -7.354   1.487  -4.743  0.00  0.00    -0.010 C 
ATOM      7  C   UNL     1      -7.789   2.097  -6.079  0.00  0.00    -0.082 C 
ATOM      8  N   UNL     1      -9.235   1.912  -6.255  0.00  0.00    +0.379 N 
ATOM      9  C   UNL     1      -9.964   2.644  -5.213  0.00  0.00    -0.082 C 
ATOM     10  C   UNL     1      -9.621   2.058  -3.840  0.00  0.00    -0.010 C 
ATOM     11  C   UNL     1      -5.512   4.381  -2.426  0.00  0.00    +0.247 C 
ATOM     12  O   UNL     1      -4.683   4.186  -1.558  0.00  0.00    -0.270 OA
ATOM     13  H   UNL     1      -9.508   2.260  -7.162  0.00  0.00    -0.086 HD
ATOM     14  H   UNL     1      -9.457   0.930  -6.193  0.00  0.00    -0.086 HD
ENDROOT
BRANCH  11  15
ATOM     15  C   UNL     1      -5.276   5.415  -3.456  0.00  0.00    +0.037 A 
ATOM     16  C   UNL     1      -6.348   5.950  -4.171  0.00  0.00    +0.014 A 
ATOM     17  C   UNL     1      -6.121   6.914  -5.130  0.00  0.00    +0.016 A 
ATOM     18  C   UNL     1      -4.832   7.351  -5.385  0.00  0.00    +0.018 A 
ATOM     19  C   UNL     1      -3.764   6.824  -4.679  0.00  0.00    +0.016 A 
ATOM     20  C   UNL     1      -3.979   5.864  -3.713  0.00  0.00    +0.014 A 
ATOM     21 BR   UNL     1      -4.529   8.673  -6.703  0.00  0.00    -0.050 Br
ENDBRANCH  11  15
BRANCH   1  23
ATOM     22  N   UNL     1      -7.137  -0.826  -2.711  0.00  0.00    -0.315 N 
ATOM     23  C   UNL     1      -6.726   0.433  -2.461  0.00  0.00    +0.218 C 
ATOM     24  O   UNL     1      -5.541   0.683  -2.398  0.00  0.00    -0.275 OA
ATOM     25  H   UNL     1      -8.085  -1.026  -2.761  0.00  0.00    +0.149 HD
BRANCH  22  26
ATOM     26  C   UNL     1      -6.152  -1.893  -2.907  0.00  0.00    +0.109 C 
BRANCH  26  27
ATOM     27  C   UNL     1      -6.877  -3.214  -3.173  0.00  0.00    +0.057 C 
BRANCH  27  33
ATOM     28  C   UNL     1      -5.333  -4.976  -2.279  0.00  0.00    +0.124 A 
ATOM     29  C   UNL     1      -4.405  -5.990  -2.468  0.00  0.00    +0.046 A 
ATOM     30  C   UNL     1      -4.007  -6.330  -3.746  0.00  0.00    +0.004 A 
ATOM     31  C   UNL     1      -4.533  -5.662  -4.836  0.00  0.00    +0.000 A 
ATOM     32  C   UNL     1      -5.458  -4.652  -4.650  0.00  0.00    +0.007 A 
ATOM     33  C   UNL     1      -5.864  -4.311  -3.374  0.00  0.00    -0.004 A 
BRANCH  28  34
ATOM     34  O   UNL     1      -5.727  -4.640  -1.022  0.00  0.00    -0.492 OA
BRANCH  34  36
ATOM     35  C   UNL     1      -5.701  -4.851   1.385  0.00  0.00    +0.048 C 
ATOM     36  C   UNL     1      -5.139  -5.367   0.059  0.00  0.00    +0.225 C 
ENDBRANCH  34  36
ENDBRANCH  28  34
ENDBRANCH  27  33
ENDBRANCH  26  27
ENDBRANCH  22  26
ENDBRANCH   1  23
TORSDOF 7
