REMARK  Name = ZINC03186760
REMARK  6 active torsions:
REMARK  status: ('A' for Active; 'I' for Inactive)
REMARK    1  A    between atoms: C_1  and  S_2
REMARK    2  A    between atoms: S_2  and  C_3
REMARK    3  A    between atoms: C_7  and  C_9
REMARK    4  A    between atoms: C_9  and  C_11
REMARK    5  A    between atoms: C_11  and  C_13
REMARK    6  A    between atoms: C_11  and  C_15
REMARK                            x       y       z     vdW  Elec       q    Type
REMARK                         _______ _______ _______ _____ _____    ______ ____
ROOT
ATOM      1  C   UNL     1       4.735   4.093  -0.023  0.00  0.00    +0.229 C 
ENDROOT
BRANCH   1   2
ATOM      2  C   UNL     1       3.475   3.266  -0.015  0.00  0.00    +0.135 A 
ATOM      3  N   UNL     1       3.592   1.912  -0.023  0.00  0.00    -0.309 N 
ATOM      4  H   UNL     1       4.473   1.506  -0.034  0.00  0.00    +0.170 HD
ATOM      5  C   UNL     1       2.491   1.125  -0.016  0.00  0.00    +0.259 A 
ATOM      6  O   UNL     1       2.581  -0.088  -0.022  0.00  0.00    -0.267 OA
ATOM      7  C   UNL     1       1.181   1.794   0.000  0.00  0.00    +0.066 A 
ATOM      8  C   UNL     1      -0.013   1.076   0.008  0.00  0.00    +0.029 A 
ATOM      9  C   UNL     1      -1.212   1.754   0.017  0.00  0.00    +0.014 A 
ATOM     10  C   UNL     1      -1.239   3.143   0.030  0.00  0.00    +0.016 A 
ATOM     11  C   UNL     1      -0.070   3.870   0.023  0.00  0.00    +0.029 A 
ATOM     12  C   UNL     1       1.158   3.206   0.008  0.00  0.00    +0.078 A 
ATOM     13  N   UNL     1       2.333   3.884  -0.000  0.00  0.00    -0.232 NA
ATOM     14  I   UNL     1      -3.012   0.681   0.021  0.00  0.00    -0.044 I 
ENDBRANCH   1   2
BRANCH   1  15
ATOM     15  C   UNL     1       4.443   5.448  -0.614  0.00  0.00    +0.207 C 
ATOM     16  O   UNL     1       3.344   5.934  -0.495  0.00  0.00    -0.289 OA
BRANCH  15  21
ATOM     17  C   UNL     1       7.667   6.309  -2.125  0.00  0.00    +0.189 A 
ATOM     18  N   UNL     1       7.451   7.504  -2.660  0.00  0.00    -0.229 NA
ATOM     19  C   UNL     1       6.271   8.089  -2.565  0.00  0.00    +0.136 A 
ATOM     20  C   UNL     1       5.241   7.437  -1.896  0.00  0.00    +0.088 A 
ATOM     21  C   UNL     1       5.502   6.182  -1.339  0.00  0.00    +0.130 A 
ATOM     22  N   UNL     1       6.718   5.655  -1.476  0.00  0.00    -0.217 NA
ATOM     23 CL   UNL     1       3.672   8.166  -1.752  0.00  0.00    -0.080 Cl
BRANCH  17  25
ATOM     24  C   UNL     1      10.110   6.866  -3.223  0.00  0.00    +0.093 C 
ATOM     25  S   UNL     1       9.260   5.574  -2.283  0.00  0.00    -0.089 S 
ENDBRANCH  17  25
ENDBRANCH  15  21
ENDBRANCH   1  15
BRANCH   1  26
ATOM     26  C   UNL     1       5.225   4.254   1.356  0.00  0.00    +0.082 C 
ATOM     27  N   UNL     1       5.603   4.378   2.420  0.00  0.00    -0.195 NA
ENDBRANCH   1  26
TORSDOF 5
