REMARK  Name = ZINC35107213
REMARK  10 active torsions:
REMARK  status: ('A' for Active; 'I' for Inactive)
REMARK    1  A    between atoms: C_1  and  C_2
REMARK    2  A    between atoms: C_2  and  C_3
REMARK    3  A    between atoms: C_2  and  C_4
REMARK    4  A    between atoms: C_4  and  C_5
REMARK    5  A    between atoms: C_7  and  C_36
REMARK    6  A    between atoms: C_9  and  C_28
REMARK    7  A    between atoms: C_13  and  C_15
REMARK    8  A    between atoms: C_15  and  C_16
REMARK    9  A    between atoms: C_16  and  C_17
REMARK   10  A    between atoms: C_28  and  C_30
REMARK                            x       y       z     vdW  Elec       q    Type
REMARK                         _______ _______ _______ _____ _____    ______ ____
ROOT
ATOM      1  C   UNL     1       2.055   0.064  -1.197  0.00  0.00    +0.086 C 
ATOM      2  C   UNL     1       2.704  -0.087  -2.590  0.00  0.00    +0.053 C 
ATOM      3  C   UNL     1       4.171  -0.473  -2.254  0.00  0.00    +0.106 C 
ATOM      4  C   UNL     1       3.980  -1.323  -0.985  0.00  0.00    +0.151 C 
ATOM      5  N   UNL     1       2.874  -0.706  -0.245  0.00  0.00    -0.279 N 
ATOM      6  C   UNL     1       2.643  -0.822   1.078  0.00  0.00    +0.217 C 
ATOM      7  O   UNL     1       3.324  -1.569   1.748  0.00  0.00    -0.276 OA
ATOM      8  C   UNL     1       3.694  -2.757  -1.332  0.00  0.00    +0.007 A 
ATOM      9  C   UNL     1       2.694  -3.378  -2.046  0.00  0.00    +0.008 A 
ATOM     10  C   UNL     1       2.703  -4.753  -2.198  0.00  0.00    +0.000 A 
ATOM     11  C   UNL     1       3.718  -5.502  -1.630  0.00  0.00    +0.002 A 
ATOM     12  C   UNL     1       4.721  -4.884  -0.912  0.00  0.00    +0.023 A 
ATOM     13  C   UNL     1       4.719  -3.500  -0.754  0.00  0.00    +0.039 A 
ATOM     14  N   UNL     1       5.607  -2.657  -0.082  0.00  0.00    -0.283 N 
ATOM     15  C   UNL     1       5.243  -1.363  -0.168  0.00  0.00    +0.246 C 
ATOM     16  O   UNL     1       5.821  -0.414   0.318  0.00  0.00    -0.273 OA
ATOM     17  H   UNL     1       6.394  -2.968   0.393  0.00  0.00    +0.155 HD
ENDROOT
BRANCH   2  18
ATOM     18  C   UNL     1       2.652   1.216  -3.346  0.00  0.00    -0.042 A 
ATOM     19  C   UNL     1       3.275   2.338  -2.833  0.00  0.00    +0.004 A 
ATOM     20  C   UNL     1       3.227   3.533  -3.526  0.00  0.00    +0.000 A 
ATOM     21  C   UNL     1       2.557   3.605  -4.733  0.00  0.00    +0.000 A 
ATOM     22  C   UNL     1       1.935   2.483  -5.247  0.00  0.00    +0.000 A 
ATOM     23  C   UNL     1       1.986   1.287  -4.556  0.00  0.00    +0.004 A 
ENDBRANCH   2  18
BRANCH   3  24
ATOM     24  C   UNL     1       4.784  -1.286  -3.364  0.00  0.00    +0.170 C 
ATOM     25  O   UNL     1       4.671  -2.494  -3.365  0.00  0.00    -0.292 OA
BRANCH  24  26
ATOM     26  C   UNL     1       5.520  -0.616  -4.448  0.00  0.00    +0.018 A 
ATOM     27  C   UNL     1       5.658   0.776  -4.447  0.00  0.00    +0.011 A 
ATOM     28  C   UNL     1       6.350   1.397  -5.466  0.00  0.00    +0.001 A 
ATOM     29  C   UNL     1       6.907   0.646  -6.487  0.00  0.00    +0.000 A 
ATOM     30  C   UNL     1       6.775  -0.731  -6.494  0.00  0.00    +0.001 A 
ATOM     31  C   UNL     1       6.091  -1.367  -5.480  0.00  0.00    +0.011 A 
ENDBRANCH  24  26
ENDBRANCH   3  24
BRANCH   1  32
ATOM     32  C   UNL     1       0.629  -0.490  -1.224  0.00  0.00    +0.026 C 
BRANCH  32  34
ATOM     33  C   UNL     1       0.734  -2.985  -1.300  0.00  0.00    +0.007 C 
ATOM     34  C   UNL     1       0.575  -1.715  -2.139  0.00  0.00    -0.015 C 
ATOM     35  C   UNL     1      -0.770  -1.750  -2.867  0.00  0.00    +0.007 C 
ENDBRANCH  32  34
ENDBRANCH   1  32
BRANCH   6  36
ATOM     36  C   UNL     1       1.541  -0.023   1.724  0.00  0.00    +0.097 C 
BRANCH  36  37
ATOM     37  C   UNL     1       1.590  -0.219   3.240  0.00  0.00    +0.025 C 
BRANCH  37  38
ATOM     38  C   UNL     1       0.471   0.592   3.896  0.00  0.00    +0.109 C 
ATOM     39 CL   UNL     1       0.529   0.361   5.683  0.00  0.00    -0.125 Cl
ENDBRANCH  37  38
ENDBRANCH  36  37
ENDBRANCH   6  36
TORSDOF 8
