REMARK  Name = ZINC59385739
REMARK  5 active torsions:
REMARK  status: ('A' for Active; 'I' for Inactive)
REMARK    1  A    between atoms: C_1  and  C_2
REMARK    2  A    between atoms: C_3  and  C_18
REMARK    3  A    between atoms: C_4  and  C_10
REMARK    4  A    between atoms: N_20  and  N_21
REMARK    5  A    between atoms: C_22  and  C_23
REMARK                            x       y       z     vdW  Elec       q    Type
REMARK                         _______ _______ _______ _____ _____    ______ ____
ROOT
ATOM      1  C   UNL     1       0.633   1.224  -0.132  0.00  0.00    +0.061 C 
ATOM      2  C   UNL     1       0.379  -0.259  -0.064  0.00  0.00    +0.019 C 
ATOM      3  C   UNL     1      -0.885  -0.721  -0.165  0.00  0.00    +0.057 C 
ATOM      4  C   UNL     1      -1.096  -2.220  -0.092  0.00  0.00    +0.143 C 
ATOM      5  N   UNL     1       0.103  -3.055   0.084  0.00  0.00    -0.288 N 
ATOM      6  C   UNL     1       1.303  -2.446   0.169  0.00  0.00    +0.304 C 
ATOM      7  O   UNL     1       2.299  -3.127   0.313  0.00  0.00    -0.252 OA
ATOM      8  N   UNL     1       1.433  -1.116   0.092  0.00  0.00    -0.273 N 
ATOM      9  H   UNL     1       0.032  -4.021   0.138  0.00  0.00    +0.151 HD
ATOM     10  H   UNL     1       2.324  -0.739   0.156  0.00  0.00    +0.156 HD
ENDROOT
BRANCH   4  11
ATOM     11  C   UNL     1      -1.782  -2.655  -1.361  0.00  0.00    -0.004 A 
ATOM     12  C   UNL     1      -1.032  -3.072  -2.444  0.00  0.00    +0.008 A 
ATOM     13  C   UNL     1      -1.660  -3.471  -3.609  0.00  0.00    +0.020 A 
ATOM     14  C   UNL     1      -3.041  -3.453  -3.691  0.00  0.00    +0.042 A 
ATOM     15  C   UNL     1      -3.793  -3.036  -2.608  0.00  0.00    +0.040 A 
ATOM     16  C   UNL     1      -3.163  -2.641  -1.441  0.00  0.00    +0.048 A 
ATOM     17 CL   UNL     1      -4.106  -2.123  -0.078  0.00  0.00    -0.083 Cl
ATOM     18 CL   UNL     1      -3.830  -3.953  -5.154  0.00  0.00    -0.083 Cl
ENDBRANCH   4  11
BRANCH   3  19
ATOM     19  C   UNL     1      -1.977   0.165  -0.332  0.00  0.00    +0.263 C 
ATOM     20  O   UNL     1      -2.678   0.455   0.621  0.00  0.00    -0.269 OA
ATOM     21  N   UNL     1      -2.241   0.687  -1.546  0.00  0.00    -0.203 N 
ATOM     22  H   UNL     1      -1.726   0.405  -2.318  0.00  0.00    +0.178 HD
BRANCH  21  23
ATOM     23  N   UNL     1      -3.260   1.638  -1.693  0.00  0.00    -0.187 NA
ATOM     24  C   UNL     1      -3.450   2.213  -2.841  0.00  0.00    +0.141 C 
BRANCH  24  25
ATOM     25  C   UNL     1      -4.446   3.292  -2.969  0.00  0.00    +0.030 A 
ATOM     26  C   UNL     1      -4.658   3.909  -4.205  0.00  0.00    +0.012 A 
ATOM     27  C   UNL     1      -5.592   4.918  -4.317  0.00  0.00    +0.001 A 
ATOM     28  C   UNL     1      -6.319   5.320  -3.211  0.00  0.00    +0.003 A 
ATOM     29  C   UNL     1      -6.117   4.715  -1.984  0.00  0.00    +0.039 A 
ATOM     30  C   UNL     1      -5.188   3.699  -1.856  0.00  0.00    +0.132 A 
ATOM     31  F   UNL     1      -4.995   3.105  -0.658  0.00  0.00    -0.205 F 
ENDBRANCH  24  25
ENDBRANCH  21  23
ENDBRANCH   3  19
TORSDOF 4
