REMARK  Name = ZINC17043993
REMARK  10 active torsions:
REMARK  status: ('A' for Active; 'I' for Inactive)
REMARK    1  A    between atoms: C_1  and  C_2
REMARK    2  A    between atoms: C_5  and  C_34
REMARK    3  A    between atoms: C_6  and  S_8
REMARK    4  A    between atoms: S_8  and  N_11
REMARK    5  A    between atoms: N_11  and  C_12
REMARK    6  A    between atoms: N_11  and  S_23
REMARK    7  A    between atoms: C_16  and  N_18
REMARK    8  A    between atoms: S_23  and  C_26
REMARK    9  A    between atoms: C_28  and  C_33
REMARK   10  A    between atoms: C_31  and  C_32
REMARK                            x       y       z     vdW  Elec       q    Type
REMARK                         _______ _______ _______ _____ _____    ______ ____
ROOT
ATOM      1  N   UNL     1      -2.226   1.031   0.059  0.00  0.00    -0.069 N 
ENDROOT
BRANCH   1   2
ATOM      2  C   UNL     1      -1.202   1.981   0.070  0.00  0.00    +0.078 A 
ATOM      3  C   UNL     1      -0.191   1.925  -0.882  0.00  0.00    +0.027 A 
ATOM      4  C   UNL     1       0.825   2.861  -0.868  0.00  0.00    +0.004 A 
ATOM      5  C   UNL     1       0.836   3.858   0.088  0.00  0.00    +0.028 A 
ATOM      6  C   UNL     1      -0.174   3.923   1.038  0.00  0.00    +0.071 A 
ATOM      7  C   UNL     1      -1.195   2.985   1.028  0.00  0.00    +0.054 A 
BRANCH   6   8
ATOM      8  N   UNL     1      -0.161   4.936   2.008  0.00  0.00    -0.200 N 
ATOM      9  C   UNL     1       0.754   5.919   2.155  0.00  0.00    +0.250 A 
ATOM     10  N   UNL     1       0.385   6.643   3.180  0.00  0.00    -0.116 NA
ATOM     11  N   UNL     1      -0.701   6.184   3.690  0.00  0.00    -0.023 NA
ATOM     12  N   UNL     1      -1.101   5.151   3.031  0.00  0.00    -0.039 NA
ENDBRANCH   6   8
ENDBRANCH   1   2
BRANCH   1  13
ATOM     13  S   UNL     1      -3.804   1.514   0.197  0.00  0.00    +0.093 S 
ATOM     14  O   UNL     1      -4.495   0.462   0.857  0.00  0.00    -0.148 OA
ATOM     15  O   UNL     1      -3.780   2.843   0.699  0.00  0.00    -0.148 OA
BRANCH  13  21
ATOM     16  C   UNL     1      -7.145  -0.076  -3.495  0.00  0.00    +0.044 C 
ATOM     17  C   UNL     1      -6.018   0.837  -3.088  0.00  0.00    -0.049 A 
ATOM     18  C   UNL     1      -5.503   1.746  -3.993  0.00  0.00    +0.004 A 
ATOM     19  C   UNL     1      -4.469   2.584  -3.619  0.00  0.00    +0.005 A 
ATOM     20  C   UNL     1      -3.954   2.517  -2.338  0.00  0.00    -0.024 A 
ATOM     21  C   UNL     1      -4.465   1.604  -1.434  0.00  0.00    +0.114 A 
ATOM     22  C   UNL     1      -5.499   0.766  -1.808  0.00  0.00    +0.032 A 
ATOM     23  C   UNL     1      -2.831   3.435  -1.928  0.00  0.00    +0.046 C 
ENDBRANCH  13  21
ENDBRANCH   1  13
BRANCH   1  24
ATOM     24  S   UNL     1      -1.862  -0.577  -0.090  0.00  0.00    +0.093 S 
ATOM     25  O   UNL     1      -2.955  -1.179  -0.772  0.00  0.00    -0.148 OA
ATOM     26  O   UNL     1      -0.529  -0.648  -0.577  0.00  0.00    -0.148 OA
BRANCH  24  27
ATOM     27  C   UNL     1      -1.844  -1.261   1.534  0.00  0.00    +0.114 A 
ATOM     28  C   UNL     1      -2.771  -2.222   1.889  0.00  0.00    +0.032 A 
ATOM     29  C   UNL     1      -2.756  -2.759   3.163  0.00  0.00    -0.049 A 
ATOM     30  C   UNL     1      -1.814  -2.334   4.081  0.00  0.00    +0.004 A 
ATOM     31  C   UNL     1      -0.887  -1.372   3.725  0.00  0.00    +0.005 A 
ATOM     32  C   UNL     1      -0.898  -0.840   2.450  0.00  0.00    -0.024 A 
ATOM     33  C   UNL     1       0.117   0.204   2.060  0.00  0.00    +0.046 C 
ATOM     34  C   UNL     1      -3.767  -3.807   3.551  0.00  0.00    +0.044 C 
ENDBRANCH  24  27
ENDBRANCH   1  24
TORSDOF 6
