REMARK  Name = ZINC54622363
REMARK  15 active torsions:
REMARK  status: ('A' for Active; 'I' for Inactive)
REMARK    1  A    between atoms: C_1  and  C_2
REMARK    2  A    between atoms: C_2  and  C_3
REMARK    3  A    between atoms: C_3  and  C_4
REMARK    4  A    between atoms: C_4  and  O_5
REMARK    5  A    between atoms: O_5  and  C_6
REMARK    6  A    between atoms: C_6  and  C_8
REMARK    7  A    between atoms: C_9  and  C_37
REMARK    8  A    between atoms: C_13  and  S_28
REMARK    9  A    between atoms: C_16  and  C_18
REMARK   10  A    between atoms: C_21  and  O_26
REMARK   11  A    between atoms: C_22  and  O_24
REMARK   12  A    between atoms: O_24  and  C_25
REMARK   13  A    between atoms: O_26  and  C_27
REMARK   14  A    between atoms: S_28  and  C_29
REMARK   15  A    between atoms: C_29  and  C_30
REMARK                            x       y       z     vdW  Elec       q    Type
REMARK                         _______ _______ _______ _____ _____    ______ ____
ROOT
ATOM      1  C   UNL     1       2.414  -4.417   3.557  0.00  0.00    +0.082 C 
ATOM      2  C   UNL     1       2.239  -5.721   3.821  0.00  0.00    +0.020 C 
ATOM      3  N   UNL     1       2.671  -6.295   4.990  0.00  0.00    -0.287 N 
ATOM      4  C   UNL     1       3.065  -5.442   6.013  0.00  0.00    +0.219 A 
ATOM      5  N   UNL     1       3.302  -5.694   7.272  0.00  0.00    -0.187 NA
ATOM      6  C   UNL     1       3.652  -4.561   7.897  0.00  0.00    +0.211 A 
ATOM      7  N   UNL     1       3.642  -3.572   7.030  0.00  0.00    -0.141 NA
ATOM      8  N   UNL     1       3.268  -4.119   5.803  0.00  0.00    -0.220 N 
ATOM      9  C   UNL     1       3.112  -3.474   4.501  0.00  0.00    +0.179 C 
ATOM     10  C   UNL     1       1.543  -6.584   2.800  0.00  0.00    +0.061 C 
ATOM     11  H   UNL     1       2.701  -7.258   5.098  0.00  0.00    +0.155 HD
ENDROOT
BRANCH   9  12
ATOM     12  C   UNL     1       4.467  -3.118   3.946  0.00  0.00    -0.015 A 
ATOM     13  C   UNL     1       5.398  -4.111   3.709  0.00  0.00    +0.010 A 
ATOM     14  C   UNL     1       6.642  -3.790   3.200  0.00  0.00    +0.050 A 
ATOM     15  C   UNL     1       6.958  -2.469   2.925  0.00  0.00    +0.162 A 
ATOM     16  C   UNL     1       6.021  -1.469   3.163  0.00  0.00    +0.162 A 
ATOM     17  C   UNL     1       4.773  -1.798   3.669  0.00  0.00    +0.055 A 
BRANCH  16  18
ATOM     18  O   UNL     1       6.326  -0.171   2.895  0.00  0.00    -0.491 OA
ATOM     19  C   UNL     1       5.314   0.802   3.163  0.00  0.00    +0.277 C 
ENDBRANCH  16  18
BRANCH  15  20
ATOM     20  O   UNL     1       8.182  -2.151   2.425  0.00  0.00    -0.491 OA
ATOM     21  C   UNL     1       9.094  -3.229   2.206  0.00  0.00    +0.277 C 
ENDBRANCH  15  20
ENDBRANCH   9  12
BRANCH   1  22
ATOM     22  C   UNL     1       1.928  -3.906   2.333  0.00  0.00    +0.339 C 
ATOM     23  O   UNL     1       0.925  -3.217   2.317  0.00  0.00    -0.245 OA
BRANCH  22  24
ATOM     24  O   UNL     1       2.574  -4.183   1.181  0.00  0.00    -0.461 OA
BRANCH  24  25
ATOM     25  C   UNL     1       2.026  -3.634  -0.019  0.00  0.00    +0.232 C 
BRANCH  25  26
ATOM     26  C   UNL     1       2.888  -4.053  -1.212  0.00  0.00    +0.041 C 
BRANCH  26  28
ATOM     27  C   UNL     1       3.164  -3.884  -3.689  0.00  0.00    +0.004 C 
ATOM     28  C   UNL     1       2.301  -3.465  -2.497  0.00  0.00    -0.000 C 
ENDBRANCH  26  28
ENDBRANCH  25  26
ENDBRANCH  24  25
ENDBRANCH  22  24
ENDBRANCH   1  22
BRANCH   6  29
ATOM     29  S   UNL     1       4.060  -4.419   9.606  0.00  0.00    -0.080 S 
BRANCH  29  30
ATOM     30  C   UNL     1       3.888  -6.110  10.240  0.00  0.00    +0.114 C 
BRANCH  30  31
ATOM     31  C   UNL     1       4.213  -6.130  11.711  0.00  0.00    -0.019 A 
ATOM     32  C   UNL     1       5.513  -6.347  12.129  0.00  0.00    +0.006 A 
ATOM     33  C   UNL     1       5.811  -6.366  13.479  0.00  0.00    +0.000 A 
ATOM     34  C   UNL     1       4.809  -6.168  14.411  0.00  0.00    +0.001 A 
ATOM     35  C   UNL     1       3.510  -5.951  13.995  0.00  0.00    +0.020 A 
ATOM     36  C   UNL     1       3.212  -5.926  12.644  0.00  0.00    +0.045 A 
ATOM     37 CL   UNL     1       1.580  -5.647  12.119  0.00  0.00    -0.083 Cl
ENDBRANCH  30  31
ENDBRANCH  29  30
ENDBRANCH   6  29
TORSDOF 11
