REMARK  Name = ZINC63140192
REMARK  8 active torsions:
REMARK  status: ('A' for Active; 'I' for Inactive)
REMARK    1  A    between atoms: C_1  and  O_2
REMARK    2  A    between atoms: O_2  and  C_3
REMARK    3  A    between atoms: C_5  and  C_13
REMARK    4  A    between atoms: C_7  and  O_11
REMARK    5  A    between atoms: C_8  and  O_9
REMARK    6  A    between atoms: O_9  and  C_10
REMARK    7  A    between atoms: O_11  and  C_12
REMARK    8  A    between atoms: N_32  and  C_35
REMARK                            x       y       z     vdW  Elec       q    Type
REMARK                         _______ _______ _______ _____ _____    ______ ____
ROOT
ATOM      1  C   UNL     1      -4.871   0.264   0.038  0.00  0.00    +0.134 C 
ATOM      2  C   UNL     1      -5.420   0.345  -1.385  0.00  0.00    +0.131 C 
ATOM      3  C   UNL     1      -6.857   0.846  -1.251  0.00  0.00    -0.034 C 
ATOM      4  C   UNL     1      -6.924   1.995  -1.908  0.00  0.00    -0.001 A 
ATOM      5  C   UNL     1      -8.043   2.920  -2.154  0.00  0.00    +0.010 A 
ATOM      6  C   UNL     1      -7.753   4.033  -2.878  0.00  0.00    +0.001 A 
ATOM      7  C   UNL     1      -6.478   4.316  -3.376  0.00  0.00    +0.002 A 
ATOM      8  C   UNL     1      -5.392   3.522  -3.201  0.00  0.00    +0.026 A 
ATOM      9  C   UNL     1      -5.572   2.319  -2.456  0.00  0.00    +0.043 A 
ATOM     10  N   UNL     1      -4.706   1.373  -2.154  0.00  0.00    -0.375 N 
ATOM     11  C   UNL     1      -7.879   0.076  -0.461  0.00  0.00    +0.065 C 
ATOM     12  C   UNL     1      -7.255  -0.458   0.801  0.00  0.00    +0.167 C 
ATOM     13  N   UNL     1      -5.819  -0.359   0.951  0.00  0.00    -0.279 N 
ATOM     14  C   UNL     1      -5.312  -0.876   2.119  0.00  0.00    +0.234 C 
ATOM     15  O   UNL     1      -4.119  -0.912   2.332  0.00  0.00    -0.274 OA
ATOM     16  C   UNL     1      -6.313  -1.397   3.128  0.00  0.00    +0.204 C 
ATOM     17  N   UNL     1      -7.423  -0.432   3.227  0.00  0.00    -0.288 N 
ATOM     18  C   UNL     1      -7.931   0.043   2.053  0.00  0.00    +0.237 C 
ATOM     19  O   UNL     1      -8.866   0.815   2.017  0.00  0.00    -0.274 OA
ATOM     20  H   UNL     1      -3.765   1.351  -2.388  0.00  0.00    +0.160 HD
ENDROOT
BRANCH   1  23
ATOM     21  C   UNL     1      -1.201  -0.638   0.010  0.00  0.00    +0.165 A 
ATOM     22  C   UNL     1      -2.375   0.101   0.019  0.00  0.00    +0.055 A 
ATOM     23  C   UNL     1      -3.598  -0.543   0.028  0.00  0.00    -0.018 A 
ATOM     24  C   UNL     1      -3.657  -1.924   0.027  0.00  0.00    +0.055 A 
ATOM     25  C   UNL     1      -2.488  -2.670   0.017  0.00  0.00    +0.165 A 
ATOM     26  C   UNL     1      -1.256  -2.027   0.003  0.00  0.00    +0.204 A 
BRANCH  21  28
ATOM     27  C   UNL     1      -0.017   1.425   0.010  0.00  0.00    +0.277 C 
ATOM     28  O   UNL     1       0.002  -0.004   0.002  0.00  0.00    -0.491 OA
ENDBRANCH  21  28
BRANCH  26  29
ATOM     29  O   UNL     1      -0.106  -2.755  -0.012  0.00  0.00    -0.488 OA
ATOM     30  C   UNL     1       0.454  -3.109   1.254  0.00  0.00    +0.277 C 
ENDBRANCH  26  29
BRANCH  25  31
ATOM     31  O   UNL     1      -2.547  -4.028   0.017  0.00  0.00    -0.491 OA
ATOM     32  C   UNL     1      -3.847  -4.621   0.026  0.00  0.00    +0.277 C 
ENDBRANCH  25  31
ENDBRANCH   1  23
BRANCH  17  33
ATOM     33  C   UNL     1      -7.955  -0.001   4.522  0.00  0.00    +0.077 C 
ATOM     34  C   UNL     1      -8.427  -1.225   5.333  0.00  0.00    +0.022 C 
ATOM     35  C   UNL     1      -7.222  -1.565   6.245  0.00  0.00    +0.002 C 
ATOM     36  C   UNL     1      -6.682  -0.166   6.634  0.00  0.00    +0.002 C 
ATOM     37  C   UNL     1      -6.846   0.673   5.349  0.00  0.00    +0.022 C 
ENDBRANCH  17  33
TORSDOF 5
