REMARK  Name = ZINC11599165
REMARK  7 active torsions:
REMARK  status: ('A' for Active; 'I' for Inactive)
REMARK    1  A    between atoms: C_3  and  C_6
REMARK    2  A    between atoms: C_6  and  C_8
REMARK    3  A    between atoms: C_6  and  N_62
REMARK    4  A    between atoms: C_8  and  N_9
REMARK    5  A    between atoms: C_10  and  C_12
REMARK    6  A    between atoms: C_12  and  C_13
REMARK    7  A    between atoms: C_13  and  C_14
REMARK                            x       y       z     vdW  Elec       q    Type
REMARK                         _______ _______ _______ _____ _____    ______ ____
ROOT
ATOM      1  N   UNL     1      -3.096  10.485  -5.564  0.00  0.00    -0.316 N 
ATOM      2  C   UNL     1      -3.361   9.217  -5.936  0.00  0.00    +0.213 C 
ATOM      3  O   UNL     1      -3.761   8.985  -7.057  0.00  0.00    -0.276 OA
ATOM      4  H   UNL     1      -2.777  10.670  -4.667  0.00  0.00    +0.149 HD
ENDROOT
BRANCH   1   5
ATOM      5  C   UNL     1      -3.291  11.583  -6.514  0.00  0.00    +0.096 C 
BRANCH   5   6
ATOM      6  C   UNL     1      -2.921  12.908  -5.844  0.00  0.00    +0.016 C 
BRANCH   6  12
ATOM      7  C   UNL     1      -5.135  12.983  -4.869  0.00  0.00    -0.078 C 
ATOM      8  C   UNL     1      -5.900  13.002  -3.543  0.00  0.00    -0.019 C 
ATOM      9  C   UNL     1      -5.571  14.293  -2.788  0.00  0.00    -0.004 C 
ATOM     10  C   UNL     1      -4.058  14.375  -2.568  0.00  0.00    -0.019 C 
ATOM     11  C   UNL     1      -3.346  14.316  -3.921  0.00  0.00    -0.078 C 
ATOM     12  N   UNL     1      -3.685  13.040  -4.587  0.00  0.00    +0.387 N 
ATOM     13  H   UNL     1      -3.436  12.263  -3.963  0.00  0.00    -0.081 HD
ENDBRANCH   6  12
BRANCH   6  16
ATOM     14  C   UNL     1      -3.064  15.742  -8.196  0.00  0.00    +0.041 A 
ATOM     15  C   UNL     1      -2.335  14.796  -7.439  0.00  0.00    +0.043 A 
ATOM     16  C   UNL     1      -3.236  14.048  -6.778  0.00  0.00    +0.093 A 
ATOM     17  O   UNL     1      -4.465  14.493  -7.087  0.00  0.00    -0.469 OA
ATOM     18  C   UNL     1      -4.367  15.520  -7.947  0.00  0.00    +0.195 A 
ENDBRANCH   6  16
ENDBRANCH   5   6
ENDBRANCH   1   5
BRANCH   2  19
ATOM     19  C   UNL     1      -3.161   8.087  -4.959  0.00  0.00    +0.103 C 
BRANCH  19  20
ATOM     20  C   UNL     1      -3.532   6.762  -5.628  0.00  0.00    +0.083 C 
BRANCH  20  21
ATOM     21  C   UNL     1      -3.332   5.633  -4.651  0.00  0.00    +0.111 A 
ATOM     22  N   UNL     1      -3.607   4.370  -5.057  0.00  0.00    -0.310 N 
ATOM     23  H   UNL     1      -3.924   4.235  -5.964  0.00  0.00    +0.170 HD
ATOM     24  C   UNL     1      -3.460   3.287  -4.257  0.00  0.00    +0.260 A 
ATOM     25  O   UNL     1      -3.712   2.158  -4.641  0.00  0.00    -0.267 OA
ATOM     26  C   UNL     1      -2.989   3.555  -2.928  0.00  0.00    +0.075 A 
ATOM     27  C   UNL     1      -2.748   2.582  -1.877  0.00  0.00    -0.023 A 
ATOM     28  C   UNL     1      -2.301   3.064  -0.694  0.00  0.00    -0.004 A 
ATOM     29  S   UNL     1      -2.181   4.821  -0.924  0.00  0.00    -0.073 S 
ATOM     30  C   UNL     1      -2.729   4.904  -2.599  0.00  0.00    +0.116 A 
ATOM     31  N   UNL     1      -2.897   5.918  -3.443  0.00  0.00    -0.227 NA
ATOM     32  C   UNL     1      -1.979   2.282   0.541  0.00  0.00    +0.043 C 
ATOM     33  C   UNL     1      -2.583   0.877   0.397  0.00  0.00    +0.005 C 
ATOM     34  C   UNL     1      -2.213   0.325  -0.982  0.00  0.00    +0.005 C 
ATOM     35  C   UNL     1      -2.977   1.085  -2.067  0.00  0.00    +0.037 C 
ENDBRANCH  20  21
ENDBRANCH  19  20
ENDBRANCH   2  19
TORSDOF 7
