REMARK  Name = ZINC20868143
REMARK  8 active torsions:
REMARK  status: ('A' for Active; 'I' for Inactive)
REMARK    1  A    between atoms: C_1  and  C_2
REMARK    2  A    between atoms: C_5  and  C_8
REMARK    3  A    between atoms: C_11  and  C_25
REMARK    4  A    between atoms: N_18  and  C_19
REMARK    5  A    between atoms: C_19  and  C_20
REMARK    6  A    between atoms: C_26  and  C_33
REMARK    7  A    between atoms: C_28  and  C_32
REMARK    8  A    between atoms: C_30  and  O_31
REMARK                            x       y       z     vdW  Elec       q    Type
REMARK                         _______ _______ _______ _____ _____    ______ ____
ROOT
ATOM      1  C   UNL     1       0.065  -4.299  -0.038  0.00  0.00    +0.142 C 
ATOM      2  C   UNL     1      -1.287  -4.822   0.364  0.00  0.00    +0.035 A 
ATOM      3  C   UNL     1      -2.656  -4.890   0.085  0.00  0.00    +0.102 A 
ATOM      4  N   UNL     1      -3.214  -5.628   1.025  0.00  0.00    -0.173 NA
ATOM      5  N   UNL     1      -2.333  -6.032   1.869  0.00  0.00    -0.272 N 
ATOM      6  H   UNL     1      -2.517  -6.589   2.642  0.00  0.00    +0.189 HD
ATOM      7  C   UNL     1      -1.100  -5.564   1.515  0.00  0.00    +0.126 A 
ATOM      8  C   UNL     1       0.325  -5.533   1.863  0.00  0.00    +0.266 C 
ATOM      9  O   UNL     1       0.816  -6.090   2.826  0.00  0.00    -0.268 OA
ATOM     10  N   UNL     1       1.012  -4.801   0.966  0.00  0.00    -0.278 N 
ENDROOT
BRANCH   3  11
ATOM     11  C   UNL     1      -3.353  -4.249  -1.058  0.00  0.00    +0.047 A 
ATOM     12  C   UNL     1      -4.500  -3.489  -0.841  0.00  0.00    -0.037 A 
ATOM     13  C   UNL     1      -5.144  -2.895  -1.907  0.00  0.00    +0.007 A 
ATOM     14  C   UNL     1      -4.655  -3.050  -3.192  0.00  0.00    -0.047 A 
ATOM     15  C   UNL     1      -3.518  -3.802  -3.418  0.00  0.00    +0.049 A 
ATOM     16  C   UNL     1      -2.858  -4.399  -2.356  0.00  0.00    +0.127 A 
ATOM     17  C   UNL     1      -5.365  -2.398  -4.349  0.00  0.00    +0.044 C 
ATOM     18  C   UNL     1      -5.037  -3.317   0.557  0.00  0.00    +0.044 C 
BRANCH  16  19
ATOM     19  O   UNL     1      -1.736  -5.133  -2.576  0.00  0.00    -0.506 OA
ATOM     20  H   UNL     1      -1.909  -6.053  -2.820  0.00  0.00    +0.292 HD
ENDBRANCH  16  19
ENDBRANCH   3  11
BRANCH   1  25
ATOM     21  C   UNL     1       0.037   1.480  -0.039  0.00  0.00    +0.044 C 
ATOM     22  C   UNL     1       0.044  -0.028  -0.039  0.00  0.00    -0.050 A 
ATOM     23  C   UNL     1       0.159  -0.718  -1.231  0.00  0.00    +0.004 A 
ATOM     24  C   UNL     1       0.166  -2.101  -1.231  0.00  0.00    +0.006 A 
ATOM     25  C   UNL     1       0.058  -2.792  -0.039  0.00  0.00    -0.022 A 
ATOM     26  C   UNL     1      -0.056  -2.102   1.153  0.00  0.00    +0.006 A 
ATOM     27  C   UNL     1      -0.058  -0.719   1.154  0.00  0.00    +0.004 A 
ENDBRANCH   1  25
BRANCH  10  28
ATOM     28  C   UNL     1       2.454  -4.547   0.987  0.00  0.00    +0.183 C 
BRANCH  28  29
ATOM     29  C   UNL     1       2.733  -3.296   1.779  0.00  0.00    +0.122 A 
ATOM     30  C   UNL     1       2.975  -3.240   3.101  0.00  0.00    +0.046 A 
ATOM     31  C   UNL     1       3.182  -1.879   3.422  0.00  0.00    +0.041 A 
ATOM     32  C   UNL     1       3.053  -1.184   2.277  0.00  0.00    +0.195 A 
ATOM     33  O   UNL     1       2.787  -2.049   1.284  0.00  0.00    -0.466 OA
ENDBRANCH  28  29
ENDBRANCH  10  28
TORSDOF 5
