REMARK  Name = ZINC14461361
REMARK  11 active torsions:
REMARK  status: ('A' for Active; 'I' for Inactive)
REMARK    1  A    between atoms: C_1  and  C_2
REMARK    2  A    between atoms: C_2  and  N_3
REMARK    3  A    between atoms: N_3  and  C_4
REMARK    4  A    between atoms: N_3  and  C_6
REMARK    5  A    between atoms: C_4  and  C_5
REMARK    6  A    between atoms: C_9  and  C_12
REMARK    7  A    between atoms: C_23  and  S_28
REMARK    8  A    between atoms: S_28  and  N_31
REMARK    9  A    between atoms: N_31  and  C_32
REMARK   10  A    between atoms: C_35  and  O_38
REMARK   11  A    between atoms: O_38  and  C_39
REMARK                            x       y       z     vdW  Elec       q    Type
REMARK                         _______ _______ _______ _____ _____    ______ ____
ROOT
ATOM      1  C   UNL     1       1.264   2.008  -0.354  0.00  0.00    +0.105 C 
ATOM      2  C   UNL     1       2.365   1.353  -1.169  0.00  0.00    +0.029 C 
ATOM      3  C   UNL     1       3.739   2.034  -1.162  0.00  0.00    +0.033 C 
ATOM      4  C   UNL     1       4.676   0.842  -1.370  0.00  0.00    -0.030 C 
ATOM      5  C   UNL     1       4.098  -0.270  -0.931  0.00  0.00    -0.023 C 
ATOM      6  C   UNL     1       2.767   0.076  -0.372  0.00  0.00    +0.049 C 
ATOM      7  C   UNL     1       1.629  -0.867  -0.415  0.00  0.00    -0.018 A 
ATOM      8  C   UNL     1       1.801  -2.233  -0.458  0.00  0.00    +0.034 A 
ATOM      9  C   UNL     1       0.704  -3.075  -0.475  0.00  0.00    +0.109 A 
ATOM     10  C   UNL     1      -0.574  -2.545  -0.450  0.00  0.00    +0.030 A 
ATOM     11  C   UNL     1      -0.757  -1.178  -0.415  0.00  0.00    +0.025 A 
ATOM     12  C   UNL     1       0.339  -0.323  -0.404  0.00  0.00    +0.031 A 
ATOM     13  N   UNL     1       0.128   1.061  -0.383  0.00  0.00    -0.336 N 
ATOM     14  H   UNL     1      -0.779   1.404  -0.391  0.00  0.00    +0.147 HD
ENDROOT
BRANCH   1  18
ATOM     15  C   UNL     1       2.572   2.623   3.668  0.00  0.00    +0.030 A 
ATOM     16  C   UNL     1       2.784   3.606   2.709  0.00  0.00    +0.023 A 
ATOM     17  C   UNL     1       2.360   3.404   1.411  0.00  0.00    +0.007 A 
ATOM     18  C   UNL     1       1.725   2.225   1.064  0.00  0.00    -0.027 A 
ATOM     19  C   UNL     1       1.508   1.247   2.018  0.00  0.00    +0.007 A 
ATOM     20  C   UNL     1       1.934   1.440   3.317  0.00  0.00    +0.023 A 
BRANCH  15  21
ATOM     21  N   UNL     1       3.000   2.825   4.983  0.00  0.00    -0.330 N 
BRANCH  21  23
ATOM     22  C   UNL     1       3.973   0.835   6.020  0.00  0.00    +0.024 C 
ATOM     23  C   UNL     1       2.776   1.787   5.992  0.00  0.00    +0.102 C 
ENDBRANCH  21  23
BRANCH  21  24
ATOM     24  C   UNL     1       3.672   4.073   5.351  0.00  0.00    +0.102 C 
ATOM     25  C   UNL     1       2.631   5.098   5.804  0.00  0.00    +0.024 C 
ENDBRANCH  21  24
ENDBRANCH  15  21
ENDBRANCH   1  18
BRANCH   9  26
ATOM     26  S   UNL     1       0.933  -4.821  -0.529  0.00  0.00    +0.072 S 
ATOM     27  O   UNL     1      -0.198  -5.358  -1.200  0.00  0.00    -0.150 OA
ATOM     28  O   UNL     1       2.262  -5.042  -0.979  0.00  0.00    -0.150 OA
BRANCH  26  29
ATOM     29  N   UNL     1       0.864  -5.372   1.031  0.00  0.00    -0.216 N 
ATOM     30  H   UNL     1       0.172  -6.000   1.294  0.00  0.00    +0.174 HD
BRANCH  29  31
ATOM     31  C   UNL     1       1.802  -4.932   1.972  0.00  0.00    +0.048 A 
ATOM     32  C   UNL     1       3.152  -4.910   1.648  0.00  0.00    +0.028 A 
ATOM     33  C   UNL     1       4.077  -4.470   2.575  0.00  0.00    +0.047 A 
ATOM     34  C   UNL     1       3.658  -4.060   3.832  0.00  0.00    +0.120 A 
ATOM     35  C   UNL     1       2.311  -4.087   4.158  0.00  0.00    +0.047 A 
ATOM     36  C   UNL     1       1.384  -4.522   3.231  0.00  0.00    +0.028 A 
BRANCH  34  37
ATOM     37  O   UNL     1       4.570  -3.632   4.745  0.00  0.00    -0.495 OA
ATOM     38  C   UNL     1       5.941  -3.631   4.342  0.00  0.00    +0.277 C 
ENDBRANCH  34  37
ENDBRANCH  29  31
ENDBRANCH  26  29
ENDBRANCH   9  26
TORSDOF 8
