REMARK  Name = ZINC11843984
REMARK  4 active torsions:
REMARK  status: ('A' for Active; 'I' for Inactive)
REMARK    1  A    between atoms: C_1  and  C_2
REMARK    2  A    between atoms: C_6  and  C_7
REMARK    3  A    between atoms: N_9  and  C_10
REMARK    4  A    between atoms: N_15  and  C_17
REMARK                            x       y       z     vdW  Elec       q    Type
REMARK                         _______ _______ _______ _____ _____    ______ ____
ROOT
ATOM      1  C   UNL     1      -2.449   1.121   0.020  0.00  0.00    +0.099 C 
ATOM      2  C   UNL     1      -2.925   0.835  -1.423  0.00  0.00    +0.119 C 
ATOM      3  C   UNL     1      -3.857   1.983  -1.742  0.00  0.00    +0.218 C 
ATOM      4  O   UNL     1      -4.224   2.291  -2.856  0.00  0.00    -0.276 OA
ATOM      5  N   UNL     1      -4.218   2.613  -0.610  0.00  0.00    -0.297 N 
ATOM      6  C   UNL     1      -3.607   1.985   0.568  0.00  0.00    +0.130 C 
ENDROOT
BRANCH   5   7
ATOM      7  C   UNL     1      -5.107   3.776  -0.559  0.00  0.00    +0.076 C 
ATOM      8  C   UNL     1      -6.484   3.377  -1.128  0.00  0.00    +0.022 C 
ATOM      9  C   UNL     1      -7.511   4.355  -0.622  0.00  0.00    +0.002 C 
ATOM     10  C   UNL     1      -7.759   5.510  -1.610  0.00  0.00    +0.000 C 
ATOM     11  C   UNL     1      -6.460   6.044  -2.243  0.00  0.00    +0.000 C 
ATOM     12  C   UNL     1      -5.339   6.160  -1.246  0.00  0.00    +0.002 C 
ATOM     13  C   UNL     1      -4.497   4.869  -1.303  0.00  0.00    +0.022 C 
ENDBRANCH   5   7
BRANCH   1  16
ATOM     14  C   UNL     1      -0.014   1.213   0.009  0.00  0.00    +0.280 C 
ATOM     15  O   UNL     1       0.002  -0.004   0.002  0.00  0.00    -0.267 OA
ATOM     16  N   UNL     1      -1.191   1.871   0.018  0.00  0.00    -0.304 N 
ATOM     17  H   UNL     1      -1.204   2.841   0.023  0.00  0.00    +0.149 HD
BRANCH  14  23
ATOM     18  C   UNL     1       2.850  -0.041  -0.025  0.00  0.00    +0.048 C 
ATOM     19  C   UNL     1       2.500   1.425  -0.014  0.00  0.00    -0.000 A 
ATOM     20  C   UNL     1       3.401   2.501  -0.017  0.00  0.00    +0.045 A 
ATOM     21  C   UNL     1       2.667   3.635  -0.004  0.00  0.00    +0.196 A 
ATOM     22  O   UNL     1       1.368   3.307   0.001  0.00  0.00    -0.458 OA
ATOM     23  C   UNL     1       1.246   1.963   0.001  0.00  0.00    +0.192 A 
ENDBRANCH  14  23
ENDBRANCH   1  16
TORSDOF 3
