REMARK  Name = ZINC64981514
REMARK  13 active torsions:
REMARK  status: ('A' for Active; 'I' for Inactive)
REMARK    1  A    between atoms: C_1  and  C_2
REMARK    2  A    between atoms: C_2  and  C_3
REMARK    3  A    between atoms: C_3  and  C_4
REMARK    4  A    between atoms: C_4  and  C_5
REMARK    5  A    between atoms: C_5  and  C_6
REMARK    6  A    between atoms: C_6  and  N_7
REMARK    7  A    between atoms: N_20  and  N_21
REMARK    8  A    between atoms: C_22  and  C_23
REMARK    9  A    between atoms: C_25  and  O_33
REMARK   10  A    between atoms: C_26  and  O_30
REMARK   11  A    between atoms: O_30  and  C_31
REMARK   12  A    between atoms: C_31  and  C_32
REMARK   13  A    between atoms: O_33  and  C_34
REMARK                            x       y       z     vdW  Elec       q    Type
REMARK                         _______ _______ _______ _____ _____    ______ ____
ROOT
ATOM      1  N   UNL     1       2.162  -4.523  -3.738  0.00  0.00    -0.323 N 
ATOM      2  C   UNL     1       1.542  -4.783  -4.949  0.00  0.00    +0.053 A 
ATOM      3  C   UNL     1       0.217  -4.689  -5.362  0.00  0.00    +0.026 A 
ATOM      4  C   UNL     1      -0.128  -5.019  -6.655  0.00  0.00    +0.002 A 
ATOM      5  C   UNL     1       0.835  -5.447  -7.556  0.00  0.00    +0.001 A 
ATOM      6  C   UNL     1       2.154  -5.546  -7.165  0.00  0.00    +0.012 A 
ATOM      7  C   UNL     1       2.516  -5.216  -5.862  0.00  0.00    +0.029 A 
ATOM      8  C   UNL     1       3.798  -5.209  -5.136  0.00  0.00    +0.138 A 
ATOM      9  C   UNL     1       3.510  -4.765  -3.828  0.00  0.00    +0.166 A 
ATOM     10  N   UNL     1       4.513  -4.663  -2.962  0.00  0.00    -0.192 NA
ATOM     11  C   UNL     1       5.742  -4.976  -3.352  0.00  0.00    +0.256 A 
ATOM     12  N   UNL     1       5.989  -5.388  -4.590  0.00  0.00    -0.111 NA
ATOM     13  N   UNL     1       5.046  -5.511  -5.461  0.00  0.00    -0.142 NA
ATOM     14  N   UNL     1       6.787  -4.870  -2.450  0.00  0.00    -0.204 N 
ATOM     15  H   UNL     1       6.618  -4.569  -1.544  0.00  0.00    +0.177 HD
ENDROOT
BRANCH  14  16
ATOM     16  N   UNL     1       8.091  -5.197  -2.848  0.00  0.00    -0.187 NA
ATOM     17  C   UNL     1       9.071  -5.097  -2.003  0.00  0.00    +0.138 C 
BRANCH  17  18
ATOM     18  C   UNL     1      10.442  -5.441  -2.421  0.00  0.00    -0.001 A 
ATOM     19  C   UNL     1      11.498  -5.340  -1.511  0.00  0.00    +0.059 A 
ATOM     20  C   UNL     1      12.782  -5.664  -1.908  0.00  0.00    +0.163 A 
ATOM     21  C   UNL     1      13.021  -6.090  -3.213  0.00  0.00    +0.176 A 
ATOM     22  C   UNL     1      11.974  -6.190  -4.117  0.00  0.00    +0.064 A 
ATOM     23  C   UNL     1      10.688  -5.874  -3.726  0.00  0.00    +0.028 A 
ATOM     24 BR   UNL     1      12.307  -6.768  -5.887  0.00  0.00    -0.046 Br
BRANCH  20  25
ATOM     25  O   UNL     1      13.811  -5.567  -1.025  0.00  0.00    -0.491 OA
ATOM     26  C   UNL     1      13.493  -5.124   0.296  0.00  0.00    +0.277 C 
ENDBRANCH  20  25
BRANCH  21  27
ATOM     27  O   UNL     1      14.285  -6.408  -3.601  0.00  0.00    -0.487 OA
BRANCH  27  28
ATOM     28  C   UNL     1      14.695  -7.766  -3.428  0.00  0.00    +0.226 C 
ATOM     29  C   UNL     1      16.135  -7.931  -3.918  0.00  0.00    +0.048 C 
ENDBRANCH  27  28
ENDBRANCH  21  27
ENDBRANCH  17  18
ENDBRANCH  14  16
BRANCH   1  30
ATOM     30  C   UNL     1       1.476  -4.051  -2.532  0.00  0.00    +0.124 C 
BRANCH  30  31
ATOM     31  C   UNL     1       1.455  -2.521  -2.524  0.00  0.00    +0.022 C 
BRANCH  31  32
ATOM     32  C   UNL     1       0.739  -2.027  -1.265  0.00  0.00    +0.002 C 
BRANCH  32  33
ATOM     33  C   UNL     1       0.718  -0.497  -1.257  0.00  0.00    -0.000 C 
BRANCH  33  35
ATOM     34  C   UNL     1      -0.019   1.526   0.010  0.00  0.00    +0.004 C 
ATOM     35  C   UNL     1       0.002  -0.004   0.002  0.00  0.00    -0.003 C 
ENDBRANCH  33  35
ENDBRANCH  32  33
ENDBRANCH  31  32
ENDBRANCH  30  31
ENDBRANCH   1  30
TORSDOF 10
