REMARK  Name = ZINC35291593
REMARK  11 active torsions:
REMARK  status: ('A' for Active; 'I' for Inactive)
REMARK    1  A    between atoms: C_1  and  C_2
REMARK    2  A    between atoms: C_2  and  O_3
REMARK    3  A    between atoms: O_3  and  C_4
REMARK    4  A    between atoms: C_4  and  C_6
REMARK    5  A    between atoms: C_7  and  C_39
REMARK    6  A    between atoms: N_8  and  C_21
REMARK    7  A    between atoms: C_12  and  C_14
REMARK    8  A    between atoms: C_17  and  C_20
REMARK    9  A    between atoms: C_21  and  C_22
REMARK   10  A    between atoms: C_25  and  C_28
REMARK   11  A    between atoms: C_33  and  C_36
REMARK                            x       y       z     vdW  Elec       q    Type
REMARK                         _______ _______ _______ _____ _____    ______ ____
ROOT
ATOM      1  C   UNL     1       1.131  -2.624  -2.014  0.00  0.00    +0.061 C 
ATOM      2  C   UNL     1       1.460  -3.889  -2.325  0.00  0.00    +0.021 C 
ATOM      3  N   UNL     1       2.117  -4.185  -3.490  0.00  0.00    -0.271 N 
ATOM      4  C   UNL     1       2.701  -3.220  -4.221  0.00  0.00    +0.221 C 
ATOM      5  O   UNL     1       3.199  -3.491  -5.292  0.00  0.00    -0.275 OA
ATOM      6  C   UNL     1       2.739  -1.801  -3.712  0.00  0.00    +0.109 C 
ATOM      7  C   UNL     1       1.434  -1.497  -2.966  0.00  0.00    +0.066 C 
ATOM      8  C   UNL     1       1.100  -5.002  -1.375  0.00  0.00    +0.061 C 
ENDROOT
BRANCH   7   9
ATOM      9  C   UNL     1       0.306  -1.357  -3.955  0.00  0.00    -0.039 A 
ATOM     10  C   UNL     1      -0.027  -2.416  -4.779  0.00  0.00    +0.004 A 
ATOM     11  C   UNL     1      -1.063  -2.287  -5.685  0.00  0.00    +0.003 A 
ATOM     12  C   UNL     1      -1.766  -1.099  -5.768  0.00  0.00    -0.050 A 
ATOM     13  C   UNL     1      -1.433  -0.041  -4.944  0.00  0.00    +0.003 A 
ATOM     14  C   UNL     1      -0.401  -0.171  -4.034  0.00  0.00    +0.004 A 
ATOM     15  C   UNL     1      -2.894  -0.959  -6.757  0.00  0.00    +0.044 C 
ENDBRANCH   7   9
BRANCH   1  16
ATOM     16  C   UNL     1       0.488  -2.349  -0.783  0.00  0.00    +0.337 C 
ATOM     17  O   UNL     1       1.128  -1.903   0.151  0.00  0.00    -0.245 OA
BRANCH  16  18
ATOM     18  O   UNL     1      -0.834  -2.582  -0.646  0.00  0.00    -0.462 OA
BRANCH  18  20
ATOM     19  C   UNL     1      -2.911  -2.607   0.589  0.00  0.00    +0.048 C 
ATOM     20  C   UNL     1      -1.417  -2.281   0.624  0.00  0.00    +0.229 C 
ENDBRANCH  18  20
ENDBRANCH  16  18
ENDBRANCH   1  16
BRANCH   3  21
ATOM     21  C   UNL     1       2.184  -5.576  -3.946  0.00  0.00    +0.148 C 
BRANCH  21  22
ATOM     22  C   UNL     1       1.000  -5.873  -4.829  0.00  0.00    -0.030 A 
ATOM     23  C   UNL     1      -0.173  -6.349  -4.271  0.00  0.00    +0.006 A 
ATOM     24  C   UNL     1      -1.261  -6.622  -5.074  0.00  0.00    +0.013 A 
ATOM     25  C   UNL     1      -1.177  -6.418  -6.452  0.00  0.00    +0.037 A 
ATOM     26  C   UNL     1       0.010  -5.938  -7.009  0.00  0.00    +0.013 A 
ATOM     27  C   UNL     1       1.089  -5.662  -6.194  0.00  0.00    +0.006 A 
BRANCH  25  28
ATOM     28  C   UNL     1      -2.338  -6.710  -7.319  0.00  0.00    +0.247 C 
ATOM     29  O   UNL     1      -3.447  -6.330  -6.997  0.00  0.00    -0.270 OA
ATOM     30  N   UNL     1      -2.168  -7.396  -8.466  0.00  0.00    -0.297 N 
ATOM     31  C   UNL     1      -3.323  -7.768  -9.295  0.00  0.00    +0.109 C 
ATOM     32  C   UNL     1      -3.280  -9.278  -9.551  0.00  0.00    +0.032 C 
ATOM     33  C   UNL     1      -1.925  -9.650 -10.158  0.00  0.00    +0.078 C 
ATOM     34  C   UNL     1      -0.809  -9.295  -9.173  0.00  0.00    +0.032 C 
ATOM     35  C   UNL     1      -0.823  -7.781  -8.916  0.00  0.00    +0.109 C 
BRANCH  33  36
ATOM     36  C   UNL     1      -1.892 -11.129 -10.443  0.00  0.00    +0.214 C 
ATOM     37  O   UNL     1      -2.857 -11.818 -10.186  0.00  0.00    -0.276 OA
ATOM     38  N   UNL     1      -0.790 -11.687 -10.983  0.00  0.00    -0.329 N 
ATOM     39  H   UNL     1      -0.019 -11.136 -11.188  0.00  0.00    +0.145 HD
ATOM     40  H   UNL     1      -0.769 -12.640 -11.166  0.00  0.00    +0.145 HD
ENDBRANCH  33  36
ENDBRANCH  25  28
ENDBRANCH  21  22
ENDBRANCH   3  21
TORSDOF 8
