REMARK  Name = ZINC33763468
REMARK  16 active torsions:
REMARK  status: ('A' for Active; 'I' for Inactive)
REMARK    1  A    between atoms: C_1  and  C_2
REMARK    2  A    between atoms: C_2  and  C_3
REMARK    3  A    between atoms: C_7  and  C_41
REMARK    4  A    between atoms: C_8  and  N_9
REMARK    5  A    between atoms: C_14  and  C_30
REMARK    6  A    between atoms: C_17  and  C_22
REMARK    7  A    between atoms: C_17  and  C_27
REMARK    8  A    between atoms: C_22  and  C_24
REMARK    9  A    between atoms: C_22  and  C_25
REMARK   10  A    between atoms: C_25  and  C_26
REMARK   11  A    between atoms: C_33  and  O_39
REMARK   12  A    between atoms: C_34  and  C_38
REMARK   13  A    between atoms: C_35  and  O_36
REMARK   14  A    between atoms: O_36  and  C_37
REMARK   15  A    between atoms: O_39  and  C_40
REMARK   16  A    between atoms: C_41  and  C_42
REMARK                            x       y       z     vdW  Elec       q    Type
REMARK                         _______ _______ _______ _____ _____    ______ ____
ROOT
ATOM      1  N   UNL     1       1.325   1.004  -0.522  0.00  0.00    -0.209 N 
ATOM      2  C   UNL     1       0.551   2.102  -0.806  0.00  0.00    +0.229 C 
ATOM      3  O   UNL     1       0.870   3.088  -1.435  0.00  0.00    -0.275 OA
ATOM      4  C   UNL     1      -0.722   1.823  -0.193  0.00  0.00    +0.077 C 
ATOM      5  C   UNL     1      -2.132   2.242  -0.244  0.00  0.00    -0.023 C 
ATOM      6  N   UNL     1      -2.799   1.213   0.625  0.00  0.00    +0.396 N 
ATOM      7  C   UNL     1      -1.924   0.004   0.655  0.00  0.00    +0.051 C 
ATOM      8  C   UNL     1      -0.839   0.259  -0.392  0.00  0.00    +0.086 C 
ATOM      9  C   UNL     1       0.595  -0.048  -0.045  0.00  0.00    +0.229 C 
ATOM     10  O   UNL     1       1.014  -1.026   0.536  0.00  0.00    -0.275 OA
ATOM     11  H   UNL     1      -2.926   1.617   1.640  0.00  0.00    -0.083 HD
ATOM     12  H   UNL     1      -3.784   0.961   0.205  0.00  0.00    -0.083 HD
ENDROOT
BRANCH   5  13
ATOM     13  C   UNL     1      -2.304   3.625   0.330  0.00  0.00    -0.018 A 
ATOM     14  C   UNL     1      -2.642   3.782   1.661  0.00  0.00    +0.009 A 
ATOM     15  C   UNL     1      -2.800   5.048   2.191  0.00  0.00    +0.046 A 
ATOM     16  C   UNL     1      -2.618   6.165   1.388  0.00  0.00    +0.126 A 
ATOM     17  C   UNL     1      -2.278   6.010   0.053  0.00  0.00    +0.033 A 
ATOM     18  C   UNL     1      -2.115   4.739  -0.475  0.00  0.00    +0.128 A 
ATOM     19  C   UNL     1      -2.079   7.222  -0.821  0.00  0.00    +0.051 C 
BRANCH  18  20
ATOM     20  O   UNL     1      -1.777   4.583  -1.782  0.00  0.00    -0.495 OA
ATOM     21  C   UNL     1      -2.848   4.488  -2.723  0.00  0.00    +0.277 C 
ENDBRANCH  18  20
BRANCH  16  22
ATOM     22  O   UNL     1      -2.772   7.411   1.910  0.00  0.00    -0.495 OA
ATOM     23  C   UNL     1      -3.123   7.495   3.293  0.00  0.00    +0.277 C 
ENDBRANCH  16  22
ENDBRANCH   5  13
BRANCH   1  29
ATOM     24  C   UNL     1       3.559   1.353   0.331  0.00  0.00    -0.026 A 
ATOM     25  C   UNL     1       4.929   1.310   0.154  0.00  0.00    +0.005 A 
ATOM     26  C   UNL     1       5.458   0.891  -1.052  0.00  0.00    +0.001 A 
ATOM     27  C   UNL     1       4.620   0.510  -2.084  0.00  0.00    +0.005 A 
ATOM     28  C   UNL     1       3.250   0.546  -1.911  0.00  0.00    -0.026 A 
ATOM     29  C   UNL     1       2.715   0.966  -0.700  0.00  0.00    +0.050 A 
BRANCH  24  31
ATOM     30  C   UNL     1       2.697   0.602   2.532  0.00  0.00    +0.009 C 
ATOM     31  C   UNL     1       2.983   1.816   1.645  0.00  0.00    +0.033 C 
ENDBRANCH  24  31
BRANCH  28  32
ATOM     32  C   UNL     1       2.336   0.130  -3.035  0.00  0.00    +0.033 C 
ATOM     33  C   UNL     1       1.902   1.367  -3.823  0.00  0.00    +0.009 C 
ENDBRANCH  28  32
ENDBRANCH   1  29
BRANCH   7  34
ATOM     34  C   UNL     1      -2.719  -1.225   0.294  0.00  0.00    +0.347 C 
ATOM     35  O   UNL     1      -2.224  -2.084  -0.396  0.00  0.00    -0.248 OA
ATOM     36  O   UNL     1      -3.978  -1.364   0.738  0.00  0.00    -0.248 OA
ENDBRANCH   7  34
BRANCH   7  37
ATOM     37  C   UNL     1      -1.296  -0.161   2.041  0.00  0.00    -0.014 C 
ATOM     38  C   UNL     1      -0.681   1.169   2.483  0.00  0.00    +0.006 C 
BRANCH  37  39
ATOM     39  C   UNL     1      -2.372  -0.583   3.042  0.00  0.00    -0.001 C 
ATOM     40  C   UNL     1      -1.723  -0.868   4.399  0.00  0.00    +0.004 C 
ENDBRANCH  37  39
ENDBRANCH   7  37
TORSDOF 9
