REMARK  Name = ZINC58917285
REMARK  5 active torsions:
REMARK  status: ('A' for Active; 'I' for Inactive)
REMARK    1  A    between atoms: C_1  and  C_2
REMARK    2  A    between atoms: C_15  and  C_17
REMARK    3  A    between atoms: C_17  and  C_18
REMARK    4  A    between atoms: C_18  and  C_19
REMARK    5  A    between atoms: C_19  and  C_21
REMARK                            x       y       z     vdW  Elec       q    Type
REMARK                         _______ _______ _______ _____ _____    ______ ____
ROOT
ATOM      1  C   UNL     1      -0.019   1.526   0.010  0.00  0.00    +0.008 C 
ATOM      2  C   UNL     1       0.002  -0.004   0.002  0.00  0.00    -0.008 C 
ATOM      3  C   UNL     1       0.719  -0.498  -1.257  0.00  0.00    +0.022 C 
ATOM      4  C   UNL     1       0.722  -2.030  -1.274  0.00  0.00    +0.108 C 
ATOM      5  N   UNL     1       1.299  -2.520  -0.015  0.00  0.00    -0.298 N 
ATOM      6  C   UNL     1       0.725  -2.042   1.252  0.00  0.00    +0.079 C 
ATOM      7  C   UNL     1       0.742  -0.511   1.240  0.00  0.00    +0.012 C 
ATOM      8  C   UNL     1       0.082   0.033   2.505  0.00  0.00    +0.005 C 
ATOM      9  C   UNL     1      -1.361  -0.467   2.592  0.00  0.00    +0.000 C 
ATOM     10  C   UNL     1      -1.363  -1.997   2.630  0.00  0.00    +0.002 C 
ATOM     11  C   UNL     1      -0.715  -2.549   1.359  0.00  0.00    +0.023 C 
ATOM     12  C   UNL     1       2.331  -3.388  -0.022  0.00  0.00    +0.216 C 
ATOM     13  O   UNL     1       2.796  -3.783   1.026  0.00  0.00    -0.276 OA
ENDROOT
BRANCH  12  14
ATOM     14  C   UNL     1       2.905  -3.866  -1.330  0.00  0.00    +0.104 C 
BRANCH  14  15
ATOM     15  C   UNL     1       4.056  -4.836  -1.057  0.00  0.00    +0.089 C 
BRANCH  15  16
ATOM     16  C   UNL     1       4.630  -5.315  -2.366  0.00  0.00    +0.170 C 
ATOM     17  O   UNL     1       4.164  -4.919  -3.415  0.00  0.00    -0.291 OA
BRANCH  16  18
ATOM     18  C   UNL     1       5.710  -6.223  -2.372  0.00  0.00    +0.056 A 
ATOM     19  C   UNL     1       6.383  -6.779  -3.457  0.00  0.00    +0.020 A 
ATOM     20  C   UNL     1       7.403  -7.640  -3.146  0.00  0.00    +0.028 A 
ATOM     21  C   UNL     1       7.682  -7.889  -1.839  0.00  0.00    +0.079 A 
ATOM     22  S   UNL     1       6.572  -6.953  -0.994  0.00  0.00    -0.074 S 
ATOM     23 CL   UNL     1       8.911  -8.930  -1.191  0.00  0.00    -0.076 Cl
ENDBRANCH  16  18
ENDBRANCH  15  16
ENDBRANCH  14  15
ENDBRANCH  12  14
TORSDOF 4
