REMARK  Name = ZINC39325579
REMARK  8 active torsions:
REMARK  status: ('A' for Active; 'I' for Inactive)
REMARK    1  A    between atoms: C_1  and  C_2
REMARK    2  A    between atoms: C_7  and  C_12
REMARK    3  A    between atoms: C_12  and  S_13
REMARK    4  A    between atoms: S_13  and  C_14
REMARK    5  A    between atoms: C_15  and  C_28
REMARK    6  A    between atoms: C_16  and  C_23
REMARK    7  A    between atoms: C_17  and  C_21
REMARK    8  A    between atoms: C_18  and  N_20
REMARK                            x       y       z     vdW  Elec       q    Type
REMARK                         _______ _______ _______ _____ _____    ______ ____
ROOT
ATOM      1  C   UNL     1      -7.610   2.635  -6.137  0.00  0.00    +0.117 A 
ATOM      2  C   UNL     1      -8.470   1.778  -6.849  0.00  0.00    +0.093 A 
ATOM      3  C   UNL     1      -9.615   2.324  -7.471  0.00  0.00    +0.029 A 
ATOM      4  C   UNL     1      -9.840   3.714  -7.345  0.00  0.00    +0.101 A 
ATOM      5  C   UNL     1      -8.922   4.487  -6.612  0.00  0.00    +0.136 A 
ATOM      6  N   UNL     1      -7.865   3.931  -6.042  0.00  0.00    -0.224 NA
ENDROOT
BRANCH   3   7
ATOM      7  C   UNL     1     -10.545   1.472  -8.227  0.00  0.00    +0.022 A 
ATOM      8  C   UNL     1     -11.871   1.177  -7.961  0.00  0.00    +0.016 A 
ATOM      9  C   UNL     1     -12.490   0.339  -8.861  0.00  0.00    +0.008 A 
ATOM     10  C   UNL     1     -11.783  -0.128  -9.918  0.00  0.00    +0.046 A 
ATOM     11  S   UNL     1     -10.261   0.557  -9.730  0.00  0.00    -0.097 S 
ENDBRANCH   3   7
BRANCH   5  12
ATOM     12  N   UNL     1      -9.129   5.846  -6.481  0.00  0.00    -0.342 N 
ATOM     13  H   UNL     1      -9.903   6.261  -6.893  0.00  0.00    +0.144 HD
ATOM     14  H   UNL     1      -8.501   6.386  -5.978  0.00  0.00    +0.144 HD
ENDBRANCH   5  12
BRANCH   4  15
ATOM     15  C   UNL     1     -10.983   4.325  -7.954  0.00  0.00    +0.103 C 
ATOM     16  N   UNL     1     -11.889   4.809  -8.437  0.00  0.00    -0.191 NA
ENDBRANCH   4  15
BRANCH   2  17
ATOM     17  C   UNL     1      -8.190   0.377  -6.942  0.00  0.00    +0.102 C 
ATOM     18  N   UNL     1      -7.967  -0.734  -7.015  0.00  0.00    -0.191 NA
ENDBRANCH   2  17
BRANCH   1  19
ATOM     19  S   UNL     1      -6.178   1.971  -5.354  0.00  0.00    -0.097 S 
BRANCH  19  20
ATOM     20  C   UNL     1      -5.399   3.410  -4.571  0.00  0.00    +0.150 C 
BRANCH  20  27
ATOM     21  C   UNL     1      -0.013   1.086   0.008  0.00  0.00    +0.044 C 
ATOM     22  C   UNL     1      -0.742   1.585  -1.213  0.00  0.00    -0.048 A 
ATOM     23  C   UNL     1      -0.038   1.825  -2.385  0.00  0.00    +0.005 A 
ATOM     24  C   UNL     1      -0.681   2.278  -3.502  0.00  0.00    +0.030 A 
ATOM     25  C   UNL     1      -2.060   2.502  -3.470  0.00  0.00    +0.089 A 
ATOM     26  N   UNL     1      -2.959   2.938  -4.389  0.00  0.00    -0.232 NA
ATOM     27  C   UNL     1      -4.145   2.977  -3.856  0.00  0.00    +0.118 A 
ATOM     28  H   UNL     1      -4.835   2.506  -1.944  0.00  0.00    +0.167 HD
ATOM     29  N   UNL     1      -4.089   2.568  -2.560  0.00  0.00    -0.341 N 
ATOM     30  C   UNL     1      -2.772   2.259  -2.284  0.00  0.00    +0.066 A 
ATOM     31  C   UNL     1      -2.103   1.794  -1.159  0.00  0.00    +0.031 A 
ENDBRANCH  20  27
ENDBRANCH  19  20
ENDBRANCH   1  19
TORSDOF 7
