REMARK  Name = ZINC01894244
REMARK  16 active torsions:
REMARK  status: ('A' for Active; 'I' for Inactive)
REMARK    1  A    between atoms: C_1  and  C_2
REMARK    2  A    between atoms: C_2  and  O_3
REMARK    3  A    between atoms: O_3  and  C_4
REMARK    4  A    between atoms: C_6  and  C_14
REMARK    5  A    between atoms: C_9  and  O_10
REMARK    6  A    between atoms: O_10  and  C_11
REMARK    7  A    between atoms: C_11  and  C_13
REMARK    8  A    between atoms: C_21  and  C_40
REMARK    9  A    between atoms: C_22  and  C_35
REMARK   10  A    between atoms: C_23  and  C_25
REMARK   11  A    between atoms: C_28  and  O_31
REMARK   12  A    between atoms: O_31  and  C_32
REMARK   13  A    between atoms: C_32  and  C_34
REMARK   14  A    between atoms: C_35  and  O_37
REMARK   15  A    between atoms: O_37  and  C_38
REMARK   16  A    between atoms: C_38  and  C_39
REMARK                            x       y       z     vdW  Elec       q    Type
REMARK                         _______ _______ _______ _____ _____    ______ ____
ROOT
ATOM      1  C   UNL     1       0.563  -4.974   0.007  0.00  0.00    +0.028 C 
ATOM      2  C   UNL     1       0.404  -6.279   0.345  0.00  0.00    +0.081 A 
ATOM      3  C   UNL     1       1.386  -7.372   0.341  0.00  0.00    +0.268 A 
ATOM      4  O   UNL     1       2.539  -7.178  -0.000  0.00  0.00    -0.266 OA
ATOM      5  N   UNL     1       0.976  -8.588   0.723  0.00  0.00    -0.275 N 
ATOM      6  C   UNL     1      -0.337  -8.754   1.099  0.00  0.00    +0.178 A 
ATOM      7  N   UNL     1      -0.850  -9.893   1.489  0.00  0.00    -0.228 NA
ATOM      8  C   UNL     1      -0.179 -11.035   1.576  0.00  0.00    +0.053 C 
ATOM      9  C   UNL     1       1.147 -11.089   1.247  0.00  0.00    +0.085 C 
ATOM     10  C   UNL     1       1.817  -9.816   0.785  0.00  0.00    +0.162 C 
ATOM     11  C   UNL     1      -0.885 -12.283   2.041  0.00  0.00    +0.066 C 
ATOM     12  S   UNL     1      -1.055  -7.132   0.923  0.00  0.00    -0.046 S 
ENDROOT
BRANCH   1  15
ATOM     13  C   UNL     1      -1.533  -1.865  -0.093  0.00  0.00    +0.163 A 
ATOM     14  C   UNL     1      -0.431  -2.696  -0.030  0.00  0.00    +0.057 A 
ATOM     15  C   UNL     1      -0.604  -4.085  -0.059  0.00  0.00    -0.020 A 
ATOM     16  C   UNL     1      -1.893  -4.624  -0.154  0.00  0.00    +0.012 A 
ATOM     17  C   UNL     1      -2.986  -3.788  -0.217  0.00  0.00    +0.051 A 
ATOM     18  C   UNL     1      -2.813  -2.410  -0.181  0.00  0.00    +0.173 A 
BRANCH  13  19
ATOM     19  O   UNL     1      -1.369  -0.516  -0.064  0.00  0.00    -0.489 OA
BRANCH  19  21
ATOM     20  C   UNL     1      -0.046   1.503   0.048  0.00  0.00    +0.048 C 
ATOM     21  C   UNL     1      -0.030  -0.026   0.028  0.00  0.00    +0.226 C 
ENDBRANCH  19  21
ENDBRANCH  13  19
BRANCH  18  22
ATOM     22  O   UNL     1      -3.896  -1.591  -0.239  0.00  0.00    -0.422 OA
BRANCH  22  23
ATOM     23  C   UNL     1      -4.179  -1.001  -1.411  0.00  0.00    +0.309 C 
ATOM     24  O   UNL     1      -3.537  -1.278  -2.397  0.00  0.00    -0.251 OA
ATOM     25  C   UNL     1      -5.297   0.006  -1.498  0.00  0.00    +0.136 C 
ENDBRANCH  22  23
ENDBRANCH  18  22
ENDBRANCH   1  15
BRANCH  10  26
ATOM     26  C   UNL     1       2.974  -9.540   1.711  0.00  0.00    -0.020 A 
ATOM     27  C   UNL     1       2.769  -8.823   2.875  0.00  0.00    +0.009 A 
ATOM     28  C   UNL     1       3.828  -8.568   3.726  0.00  0.00    +0.047 A 
ATOM     29  C   UNL     1       5.097  -9.031   3.410  0.00  0.00    +0.132 A 
ATOM     30  C   UNL     1       5.299  -9.750   2.241  0.00  0.00    +0.047 A 
ATOM     31  C   UNL     1       4.237 -10.007   1.397  0.00  0.00    +0.009 A 
BRANCH  29  32
ATOM     32  O   UNL     1       6.140  -8.781   4.245  0.00  0.00    -0.426 OA
BRANCH  32  33
ATOM     33  C   UNL     1       6.231  -9.502   5.373  0.00  0.00    +0.309 C 
ATOM     34  O   UNL     1       5.454 -10.404   5.578  0.00  0.00    -0.251 OA
ATOM     35  C   UNL     1       7.303  -9.186   6.385  0.00  0.00    +0.136 C 
ENDBRANCH  32  33
ENDBRANCH  29  32
ENDBRANCH  10  26
BRANCH   9  36
ATOM     36  C   UNL     1       1.865 -12.293   1.335  0.00  0.00    +0.339 C 
ATOM     37  O   UNL     1       1.306 -13.309   1.710  0.00  0.00    -0.245 OA
BRANCH  36  38
ATOM     38  O   UNL     1       3.174 -12.325   1.005  0.00  0.00    -0.462 OA
BRANCH  38  39
ATOM     39  C   UNL     1       3.842 -13.583   1.119  0.00  0.00    +0.229 C 
ATOM     40  C   UNL     1       5.306 -13.422   0.705  0.00  0.00    +0.048 C 
ENDBRANCH  38  39
ENDBRANCH  36  38
ENDBRANCH   9  36
TORSDOF 11
