REMARK  Name = ZINC16677380
REMARK  9 active torsions:
REMARK  status: ('A' for Active; 'I' for Inactive)
REMARK    1  A    between atoms: C_1  and  C_2
REMARK    2  A    between atoms: C_3  and  C_29
REMARK    3  A    between atoms: C_4  and  C_23
REMARK    4  A    between atoms: C_6  and  C_21
REMARK    5  A    between atoms: C_7  and  S_9
REMARK    6  A    between atoms: S_9  and  C_10
REMARK    7  A    between atoms: C_10  and  C_11
REMARK    8  A    between atoms: N_13  and  C_14
REMARK    9  A    between atoms: C_29  and  C_31
REMARK                            x       y       z     vdW  Elec       q    Type
REMARK                         _______ _______ _______ _____ _____    ______ ____
ROOT
ATOM      1  C   UNL     1       9.321  -4.250   0.136  0.00  0.00    +0.061 C 
ATOM      2  C   UNL     1       9.620  -2.830  -0.272  0.00  0.00    +0.013 C 
ATOM      3  C   UNL     1      10.902  -2.425  -0.379  0.00  0.00    +0.024 C 
ATOM      4  C   UNL     1      11.254  -1.024  -0.790  0.00  0.00    +0.096 C 
ATOM      5  C   UNL     1      10.064  -0.115  -0.666  0.00  0.00    +0.069 C 
ATOM      6  C   UNL     1       8.806  -0.613  -0.540  0.00  0.00    +0.080 C 
ATOM      7  N   UNL     1       8.589  -1.973  -0.525  0.00  0.00    -0.312 N 
ATOM      8  H   UNL     1       7.580  -2.367  -0.719  0.00  0.00    +0.152 HD
ENDROOT
BRANCH   4   9
ATOM      9  C   UNL     1      11.720  -1.030  -2.223  0.00  0.00    -0.035 A 
ATOM     10  C   UNL     1      10.877  -1.478  -3.223  0.00  0.00    +0.004 A 
ATOM     11  C   UNL     1      11.303  -1.479  -4.537  0.00  0.00    +0.000 A 
ATOM     12  C   UNL     1      12.576  -1.040  -4.852  0.00  0.00    +0.000 A 
ATOM     13  C   UNL     1      13.421  -0.597  -3.852  0.00  0.00    +0.000 A 
ATOM     14  C   UNL     1      12.993  -0.592  -2.537  0.00  0.00    +0.004 A 
ENDBRANCH   4   9
BRANCH   3  15
ATOM     15  C   UNL     1      11.933  -3.336  -0.101  0.00  0.00    +0.159 C 
ATOM     16  O   UNL     1      11.665  -4.473   0.232  0.00  0.00    -0.293 OA
ATOM     17  C   UNL     1      13.372  -2.904  -0.216  0.00  0.00    +0.091 C 
ENDBRANCH   3  15
BRANCH   5  18
ATOM     18  C   UNL     1      10.261   1.304  -0.676  0.00  0.00    +0.098 C 
ATOM     19  N   UNL     1      10.416   2.429  -0.683  0.00  0.00    -0.191 NA
ENDBRANCH   5  18
BRANCH   6  20
ATOM     20  S   UNL     1       7.439   0.491  -0.402  0.00  0.00    -0.100 S 
BRANCH  20  21
ATOM     21  C   UNL     1       6.083  -0.701  -0.276  0.00  0.00    +0.171 C 
BRANCH  21  22
ATOM     22  C   UNL     1       4.776   0.037  -0.145  0.00  0.00    +0.227 C 
ATOM     23  O   UNL     1       4.762   1.250  -0.139  0.00  0.00    -0.275 OA
ATOM     24  N   UNL     1       3.622  -0.651  -0.036  0.00  0.00    -0.285 N 
ATOM     25  H   UNL     1       3.641  -1.748   0.045  0.00  0.00    +0.155 HD
BRANCH  24  26
ATOM     26  C   UNL     1       2.399   0.031  -0.026  0.00  0.00    +0.033 A 
ATOM     27  C   UNL     1       2.246   1.195  -0.768  0.00  0.00    +0.024 A 
ATOM     28  C   UNL     1       1.039   1.865  -0.756  0.00  0.00    +0.017 A 
ATOM     29  C   UNL     1      -0.017   1.379  -0.006  0.00  0.00    +0.018 A 
ATOM     30  C   UNL     1       0.133   0.219   0.734  0.00  0.00    +0.017 A 
ATOM     31  C   UNL     1       1.338  -0.456   0.726  0.00  0.00    +0.024 A 
ATOM     32 BR   UNL     1      -1.666   2.304   0.014  0.00  0.00    -0.050 Br
ENDBRANCH  24  26
ENDBRANCH  21  22
ENDBRANCH  20  21
ENDBRANCH   6  20
TORSDOF 7
