REMARK  Name = ZINC01226887
REMARK  6 active torsions:
REMARK  status: ('A' for Active; 'I' for Inactive)
REMARK    1  A    between atoms: C_4  and  S_17
REMARK    2  A    between atoms: C_5  and  N_7
REMARK    3  A    between atoms: C_11  and  C_13
REMARK    4  A    between atoms: S_17  and  C_18
REMARK    5  A    between atoms: C_18  and  C_19
REMARK    6  A    between atoms: C_19  and  C_20
REMARK                            x       y       z     vdW  Elec       q    Type
REMARK                         _______ _______ _______ _____ _____    ______ ____
ROOT
ATOM      1  C   UNL     1      -3.675  -0.840  -0.160  0.00  0.00    +0.002 A 
ATOM      2  C   UNL     1      -4.851  -0.118  -0.245  0.00  0.00    +0.001 A 
ATOM      3  C   UNL     1      -4.821   1.264  -0.244  0.00  0.00    +0.016 A 
ATOM      4  C   UNL     1      -3.607   1.931  -0.157  0.00  0.00    +0.029 A 
ATOM      5  C   UNL     1      -2.420   1.202  -0.070  0.00  0.00    +0.048 A 
ATOM      6  C   UNL     1      -2.460  -0.184  -0.077  0.00  0.00    +0.024 A 
ENDROOT
BRANCH   5   7
ATOM      7  N   UNL     1      -1.191   1.869   0.018  0.00  0.00    -0.268 N 
ATOM      8  C   UNL     1      -0.097   1.348  -0.573  0.00  0.00    +0.310 C 
ATOM      9  O   UNL     1      -0.158   0.260  -1.113  0.00  0.00    -0.252 OA
ATOM     10  N   UNL     1       1.062   2.035  -0.571  0.00  0.00    -0.236 N 
ATOM     11  C   UNL     1       2.154   1.516  -1.167  0.00  0.00    +0.272 C 
ATOM     12  O   UNL     1       2.093   0.431  -1.705  0.00  0.00    -0.271 OA
ATOM     13  H   UNL     1      -1.127   2.706   0.504  0.00  0.00    +0.156 HD
ATOM     14  H   UNL     1       1.111   2.903  -0.140  0.00  0.00    +0.159 HD
BRANCH  11  15
ATOM     15  C   UNL     1       3.451   2.284  -1.164  0.00  0.00    +0.267 C 
ATOM     16 CL   UNL     1       4.714   1.335  -2.032  0.00  0.00    -0.074 Cl
ATOM     17 CL   UNL     1       3.213   3.868  -1.993  0.00  0.00    -0.074 Cl
ATOM     18 CL   UNL     1       3.977   2.570   0.537  0.00  0.00    -0.074 Cl
ENDBRANCH  11  15
ENDBRANCH   5   7
BRANCH   4  19
ATOM     19  S   UNL     1      -3.564   3.692  -0.155  0.00  0.00    -0.123 S 
BRANCH  19  20
ATOM     20  C   UNL     1      -5.309   4.173  -0.282  0.00  0.00    +0.083 C 
BRANCH  20  21
ATOM     21  C   UNL     1      -5.418   5.699  -0.291  0.00  0.00    +0.124 C 
BRANCH  21  22
ATOM     22  C   UNL     1      -6.889   6.105  -0.398  0.00  0.00    +0.391 C 
ATOM     23  F   UNL     1      -7.595   5.594   0.697  0.00  0.00    -0.171 F 
ATOM     24  F   UNL     1      -6.989   7.500  -0.407  0.00  0.00    -0.171 F 
ATOM     25  F   UNL     1      -7.430   5.591  -1.582  0.00  0.00    -0.171 F 
ENDBRANCH  21  22
ENDBRANCH  20  21
ENDBRANCH  19  20
ENDBRANCH   4  19
TORSDOF 6
