REMARK  Name = ZINC08964728
REMARK  12 active torsions:
REMARK  status: ('A' for Active; 'I' for Inactive)
REMARK    1  A    between atoms: C_1  and  C_2
REMARK    2  A    between atoms: C_5  and  C_8
REMARK    3  A    between atoms: C_8  and  C_10
REMARK    4  A    between atoms: C_8  and  O_43
REMARK    5  A    between atoms: C_10  and  N_11
REMARK    6  A    between atoms: C_12  and  C_14
REMARK    7  A    between atoms: C_14  and  C_15
REMARK    8  A    between atoms: C_15  and  C_16
REMARK    9  A    between atoms: C_16  and  O_18
REMARK   10  A    between atoms: O_18  and  C_19
REMARK   11  A    between atoms: C_25  and  C_42
REMARK   12  A    between atoms: C_40  and  C_41
REMARK                            x       y       z     vdW  Elec       q    Type
REMARK                         _______ _______ _______ _____ _____    ______ ____
ROOT
ATOM      1  O   UNL     1       5.374 -10.941   0.745  0.00  0.00    -0.461 OA
ENDROOT
BRANCH   1   2
ATOM      2  C   UNL     1       5.324 -12.364   0.676  0.00  0.00    +0.183 C 
ATOM      3  C   UNL     1       5.066 -12.966   2.080  0.00  0.00    +0.045 C 
ATOM      4  C   UNL     1       6.405 -13.619   2.529  0.00  0.00    +0.008 C 
ATOM      5  C   UNL     1       7.430 -12.906   1.630  0.00  0.00    +0.002 C 
ATOM      6  C   UNL     1       6.702 -12.928   0.268  0.00  0.00    +0.008 C 
ATOM      7  C   UNL     1       7.457 -12.092  -0.731  0.00  0.00    +0.011 C 
ATOM      8  C   UNL     1       8.958 -12.383  -0.692  0.00  0.00    +0.005 C 
ATOM      9  C   UNL     1       9.327 -13.600   0.139  0.00  0.00    +0.002 C 
ATOM     10  C   UNL     1       8.800 -13.512   1.565  0.00  0.00    -0.003 C 
ATOM     11  C   UNL     1       8.880 -14.858   2.277  0.00  0.00    +0.008 C 
ATOM     12  C   UNL     1      10.155 -15.600   1.868  0.00  0.00    +0.032 C 
ATOM     13  C   UNL     1      11.180 -14.590   1.409  0.00  0.00    -0.060 C 
ATOM     14  C   UNL     1      12.326 -14.444   2.062  0.00  0.00    +0.046 C 
ATOM     15  C   UNL     1      13.322 -13.464   1.635  0.00  0.00    +0.156 C 
ATOM     16  O   UNL     1      14.384 -13.388   2.218  0.00  0.00    -0.293 OA
ATOM     17  C   UNL     1      13.035 -12.546   0.475  0.00  0.00    +0.080 C 
ATOM     18  C   UNL     1      11.522 -12.389   0.305  0.00  0.00    +0.019 C 
ATOM     19  C   UNL     1      10.858 -13.755   0.192  0.00  0.00    -0.007 C 
ATOM     20  C   UNL     1      11.331 -14.479  -1.069  0.00  0.00    +0.016 C 
ATOM     21  C   UNL     1       6.467 -14.345  -0.256  0.00  0.00    +0.015 C 
ENDBRANCH   1   2
BRANCH   1  22
ATOM     22  C   UNL     1       4.233 -10.279   0.497  0.00  0.00    +0.308 C 
ATOM     23  O   UNL     1       3.225 -10.890   0.230  0.00  0.00    -0.251 OA
BRANCH  22  24
ATOM     24  C   UNL     1       4.209  -8.773   0.552  0.00  0.00    +0.130 C 
BRANCH  24  25
ATOM     25  C   UNL     1       2.799  -8.273   0.233  0.00  0.00    +0.107 C 
BRANCH  25  27
ATOM     26  N   UNL     1       1.629  -6.102   0.038  0.00  0.00    -0.313 N 
ATOM     27  C   UNL     1       2.775  -6.768   0.287  0.00  0.00    +0.214 C 
ATOM     28  O   UNL     1       3.786  -6.154   0.555  0.00  0.00    -0.276 OA
ATOM     29  H   UNL     1       0.820  -6.593  -0.176  0.00  0.00    +0.149 HD
BRANCH  26  30
ATOM     30  C   UNL     1       1.606  -4.638   0.092  0.00  0.00    +0.140 C 
BRANCH  30  31
ATOM     31  C   UNL     1       0.196  -4.139  -0.228  0.00  0.00    +0.163 C 
BRANCH  31  36
ATOM     32  C   UNL     1       0.202   1.593  -0.333  0.00  0.00    +0.065 C 
ATOM     33  C   UNL     1       0.201   0.086  -0.331  0.00  0.00    +0.038 A 
ATOM     34  C   UNL     1       0.241  -0.598  -1.531  0.00  0.00    +0.023 A 
ATOM     35  C   UNL     1       0.240  -1.984  -1.519  0.00  0.00    +0.009 A 
ATOM     36  C   UNL     1       0.199  -2.633  -0.294  0.00  0.00    +0.000 A 
ATOM     37  C   UNL     1       0.161  -1.882   0.865  0.00  0.00    +0.117 A 
ATOM     38  N   UNL     1       0.168  -0.564   0.816  0.00  0.00    -0.260 NA
ENDBRANCH  31  36
BRANCH  31  39
ATOM     39  O   UNL     1      -0.705  -4.569   0.795  0.00  0.00    -0.386 OA
ATOM     40  H   UNL     1      -0.481  -4.245   1.678  0.00  0.00    +0.210 HD
ENDBRANCH  31  39
ENDBRANCH  30  31
ENDBRANCH  26  30
ENDBRANCH  25  27
ENDBRANCH  24  25
ENDBRANCH  22  24
ENDBRANCH   1  22
TORSDOF 9
