REMARK  Name = ZINC04847693
REMARK  9 active torsions:
REMARK  status: ('A' for Active; 'I' for Inactive)
REMARK    1  A    between atoms: C_1  and  C_2
REMARK    2  A    between atoms: C_7  and  C_9
REMARK    3  A    between atoms: C_7  and  C_19
REMARK    4  A    between atoms: C_7  and  N_62
REMARK    5  A    between atoms: C_12  and  O_17
REMARK    6  A    between atoms: C_13  and  O_15
REMARK    7  A    between atoms: O_15  and  C_16
REMARK    8  A    between atoms: O_17  and  C_18
REMARK    9  A    between atoms: N_23  and  C_24
REMARK                            x       y       z     vdW  Elec       q    Type
REMARK                         _______ _______ _______ _____ _____    ______ ____
ROOT
ATOM      1  C   UNL     1       2.489   1.043  -0.016  0.00  0.00    +0.033 C 
ENDROOT
BRANCH   1   8
ATOM      2  C   UNL     1       3.272  -3.346  -3.593  0.00  0.00    +0.007 C 
ATOM      3  C   UNL     1       3.362  -1.978  -2.913  0.00  0.00    -0.018 C 
ATOM      4  C   UNL     1       3.845  -2.155  -1.471  0.00  0.00    -0.015 C 
ATOM      5  C   UNL     1       3.874  -0.791  -0.777  0.00  0.00    -0.077 C 
ATOM      6  C   UNL     1       2.063   0.020  -2.168  0.00  0.00    -0.077 C 
ATOM      7  C   UNL     1       1.980  -1.320  -2.903  0.00  0.00    -0.015 C 
ATOM      8  N   UNL     1       2.510  -0.222  -0.779  0.00  0.00    +0.389 N 
ATOM      9  H   UNL     1       1.869  -0.890  -0.335  0.00  0.00    -0.080 HD
ENDBRANCH   1   8
BRANCH   1  10
ATOM     10  C   UNL     1       1.095   1.614  -0.052  0.00  0.00    -0.050 A 
ATOM     11  C   UNL     1       0.007   0.794   0.183  0.00  0.00    +0.006 A 
ATOM     12  C   UNL     1      -1.274   1.312   0.145  0.00  0.00    +0.049 A 
ATOM     13  C   UNL     1      -1.469   2.658  -0.119  0.00  0.00    +0.161 A 
ATOM     14  C   UNL     1      -0.374   3.484  -0.355  0.00  0.00    +0.162 A 
ATOM     15  C   UNL     1       0.907   2.957  -0.321  0.00  0.00    +0.051 A 
BRANCH  14  16
ATOM     16  O   UNL     1      -0.561   4.805  -0.619  0.00  0.00    -0.491 OA
ATOM     17  C   UNL     1       0.609   5.592  -0.851  0.00  0.00    +0.277 C 
ENDBRANCH  14  16
BRANCH  13  18
ATOM     18  O   UNL     1      -2.728   3.171  -0.151  0.00  0.00    -0.491 OA
ATOM     19  C   UNL     1      -3.804   2.264   0.101  0.00  0.00    +0.277 C 
ENDBRANCH  13  18
ENDBRANCH   1  10
BRANCH   1  20
ATOM     20  C   UNL     1       2.877   0.756   1.412  0.00  0.00    +0.143 A 
ATOM     21  N   UNL     1       2.431  -0.221   2.163  0.00  0.00    -0.115 NA
ATOM     22  N   UNL     1       3.001  -0.130   3.315  0.00  0.00    -0.023 NA
ATOM     23  N   UNL     1       3.793   0.885   3.321  0.00  0.00    -0.044 NA
ATOM     24  N   UNL     1       3.745   1.457   2.165  0.00  0.00    -0.227 N 
BRANCH  24  25
ATOM     25  C   UNL     1       4.494   2.646   1.751  0.00  0.00    +0.111 C 
ATOM     26  C   UNL     1       5.995   2.367   1.860  0.00  0.00    +0.027 C 
ATOM     27  C   UNL     1       6.777   3.608   1.427  0.00  0.00    +0.002 C 
ATOM     28  C   UNL     1       6.410   4.785   2.334  0.00  0.00    +0.000 C 
ATOM     29  C   UNL     1       4.909   5.064   2.225  0.00  0.00    +0.002 C 
ATOM     30  C   UNL     1       4.127   3.822   2.658  0.00  0.00    +0.027 C 
ENDBRANCH  24  25
ENDBRANCH   1  20
TORSDOF 6
