REMARK  Name = ZINC16044346
REMARK  11 active torsions:
REMARK  status: ('A' for Active; 'I' for Inactive)
REMARK    1  A    between atoms: C_1  and  C_2
REMARK    2  A    between atoms: C_2  and  O_3
REMARK    3  A    between atoms: O_3  and  C_4
REMARK    4  A    between atoms: C_4  and  C_6
REMARK    5  A    between atoms: C_7  and  C_15
REMARK    6  A    between atoms: C_12  and  C_14
REMARK    7  A    between atoms: C_15  and  S_16
REMARK    8  A    between atoms: S_16  and  C_17
REMARK    9  A    between atoms: N_27  and  C_28
REMARK   10  A    between atoms: C_31  and  O_34
REMARK   11  A    between atoms: O_34  and  C_35
REMARK                            x       y       z     vdW  Elec       q    Type
REMARK                         _______ _______ _______ _____ _____    ______ ____
ROOT
ATOM      1  C   UNL     1      -1.226  -1.132   0.205  0.00  0.00    +0.177 A 
ATOM      2  N   UNL     1      -1.383  -2.431   0.274  0.00  0.00    -0.223 NA
ATOM      3  C   UNL     1      -0.332  -3.274   0.216  0.00  0.00    +0.079 A 
ATOM      4  C   UNL     1      -0.499  -4.660   0.295  0.00  0.00    +0.028 A 
ATOM      5  C   UNL     1       0.594  -5.477   0.234  0.00  0.00    +0.002 A 
ATOM      6  C   UNL     1       1.872  -4.952   0.093  0.00  0.00    +0.001 A 
ATOM      7  C   UNL     1       2.068  -3.601   0.013  0.00  0.00    +0.015 A 
ATOM      8  C   UNL     1       0.971  -2.743   0.073  0.00  0.00    +0.065 A 
ATOM      9  C   UNL     1       1.121  -1.284  -0.007  0.00  0.00    +0.267 A 
ATOM     10  O   UNL     1       2.217  -0.768  -0.130  0.00  0.00    -0.267 OA
ATOM     11  N   UNL     1      -0.004  -0.535   0.061  0.00  0.00    -0.255 N 
ENDROOT
BRANCH  11  12
ATOM     12  C   UNL     1       0.084   0.862  -0.011  0.00  0.00    +0.052 A 
ATOM     13  C   UNL     1       0.026   1.499  -1.243  0.00  0.00    +0.030 A 
ATOM     14  C   UNL     1       0.108   2.876  -1.313  0.00  0.00    +0.048 A 
ATOM     15  C   UNL     1       0.259   3.622  -0.153  0.00  0.00    +0.127 A 
ATOM     16  C   UNL     1       0.323   2.985   1.078  0.00  0.00    +0.048 A 
ATOM     17  C   UNL     1       0.236   1.609   1.149  0.00  0.00    +0.030 A 
BRANCH  15  18
ATOM     18  O   UNL     1       0.345   4.977  -0.223  0.00  0.00    -0.434 OA
BRANCH  18  19
ATOM     19  C   UNL     1       0.272   5.565  -1.523  0.00  0.00    +0.541 C 
ATOM     20  F   UNL     1       1.319   5.081  -2.314  0.00  0.00    -0.166 F 
ATOM     21  F   UNL     1      -0.951   5.235  -2.116  0.00  0.00    -0.166 F 
ENDBRANCH  18  19
ENDBRANCH  15  18
ENDBRANCH  11  12
BRANCH   1  22
ATOM     22  S   UNL     1      -2.656  -0.107   0.296  0.00  0.00    -0.081 S 
BRANCH  22  23
ATOM     23  C   UNL     1      -3.938  -1.372   0.476  0.00  0.00    +0.128 C 
BRANCH  23  25
ATOM     24  C   UNL     1      -6.122  -0.737  -0.487  0.00  0.00    +0.074 C 
ATOM     25  C   UNL     1      -5.288  -0.709   0.575  0.00  0.00    +0.034 C 
ATOM     26  N   UNL     1      -5.650  -0.094   1.740  0.00  0.00    -0.272 N 
ATOM     27  C   UNL     1      -6.824   0.524   1.919  0.00  0.00    +0.304 C 
ATOM     28  O   UNL     1      -7.055   1.048   2.991  0.00  0.00    -0.253 OA
ATOM     29  N   UNL     1      -7.760   0.580   0.951  0.00  0.00    -0.292 N 
ATOM     30  C   UNL     1      -7.469  -0.058  -0.344  0.00  0.00    +0.110 C 
ATOM     31  C   UNL     1      -8.554  -1.103  -0.609  0.00  0.00    +0.033 C 
ATOM     32  H   UNL     1      -5.020  -0.103   2.478  0.00  0.00    +0.156 HD
ATOM     33  H   UNL     1      -8.606   1.030   1.104  0.00  0.00    +0.151 HD
BRANCH  24  34
ATOM     34  C   UNL     1      -5.750  -1.377  -1.692  0.00  0.00    +0.338 C 
ATOM     35  O   UNL     1      -5.351  -0.717  -2.633  0.00  0.00    -0.245 OA
BRANCH  34  36
ATOM     36  O   UNL     1      -5.837  -2.720  -1.797  0.00  0.00    -0.462 OA
BRANCH  36  38
ATOM     37  C   UNL     1      -5.611  -4.819  -2.974  0.00  0.00    +0.048 C 
ATOM     38  C   UNL     1      -5.444  -3.299  -3.043  0.00  0.00    +0.229 C 
ENDBRANCH  36  38
ENDBRANCH  34  36
ENDBRANCH  24  34
ENDBRANCH  23  25
ENDBRANCH  22  23
ENDBRANCH   1  22
TORSDOF 9
