REMARK  Name = ZINC00930995
REMARK  8 active torsions:
REMARK  status: ('A' for Active; 'I' for Inactive)
REMARK    1  A    between atoms: C_1  and  C_2
REMARK    2  A    between atoms: N_4  and  C_5
REMARK    3  A    between atoms: C_9  and  N_11
REMARK    4  A    between atoms: N_11  and  C_12
REMARK    5  A    between atoms: C_12  and  C_14
REMARK    6  A    between atoms: C_12  and  C_19
REMARK    7  A    between atoms: N_21  and  C_22
REMARK    8  A    between atoms: C_28  and  C_30
REMARK                            x       y       z     vdW  Elec       q    Type
REMARK                         _______ _______ _______ _____ _____    ______ ____
ROOT
ATOM      1  N   UNL     1       2.422   5.047   0.241  0.00  0.00    -0.252 N 
ATOM      2  C   UNL     1       3.273   5.585   1.137  0.00  0.00    +0.265 C 
ATOM      3  O   UNL     1       3.613   4.945   2.110  0.00  0.00    -0.271 OA
ENDROOT
BRANCH   2   4
ATOM      4  C   UNL     1       3.802   6.981   0.930  0.00  0.00    +0.296 C 
ATOM      5  C   UNL     1       3.383   7.873   2.106  0.00  0.00    +0.283 C 
ATOM      6  O   UNL     1       3.912   9.184   1.884  0.00  0.00    -0.484 OA
ATOM      7  C   UNL     1       5.215   9.261   1.499  0.00  0.00    +0.162 A 
ATOM      8  C   UNL     1       5.889  10.468   1.612  0.00  0.00    +0.049 A 
ATOM      9  C   UNL     1       7.211  10.562   1.222  0.00  0.00    +0.004 A 
ATOM     10  C   UNL     1       7.866   9.454   0.717  0.00  0.00    +0.004 A 
ATOM     11  C   UNL     1       7.201   8.248   0.602  0.00  0.00    +0.049 A 
ATOM     12  C   UNL     1       5.874   8.147   0.993  0.00  0.00    +0.163 A 
ATOM     13  O   UNL     1       5.233   6.952   0.877  0.00  0.00    -0.472 OA
ENDBRANCH   2   4
BRANCH   1  18
ATOM     14  C   UNL     1       1.522   5.930  -3.217  0.00  0.00    +0.035 A 
ATOM     15  C   UNL     1       1.206   7.274  -3.069  0.00  0.00    +0.023 A 
ATOM     16  C   UNL     1       1.294   7.873  -1.827  0.00  0.00    +0.004 A 
ATOM     17  C   UNL     1       1.697   7.137  -0.729  0.00  0.00    +0.023 A 
ATOM     18  C   UNL     1       2.014   5.792  -0.871  0.00  0.00    +0.039 A 
ATOM     19  C   UNL     1       1.932   5.189  -2.118  0.00  0.00    +0.046 A 
BRANCH  14  23
ATOM     20  C   UNL     1       0.321   4.998  -6.661  0.00  0.00    +0.109 C 
ATOM     21  C   UNL     1       0.483   5.718  -5.347  0.00  0.00    +0.214 C 
ATOM     22  O   UNL     1      -0.242   6.651  -5.073  0.00  0.00    -0.276 OA
ATOM     23  N   UNL     1       1.433   5.324  -4.476  0.00  0.00    -0.286 N 
ATOM     24  H   UNL     1       2.055   4.622  -4.721  0.00  0.00    +0.155 HD
ENDBRANCH  14  23
ENDBRANCH   1  18
BRANCH   1  25
ATOM     25  C   UNL     1       1.923   3.683   0.432  0.00  0.00    +0.204 C 
BRANCH  25  26
ATOM     26  C   UNL     1       0.450   3.637   0.116  0.00  0.00    +0.019 A 
ATOM     27  C   UNL     1      -0.539   2.966   0.753  0.00  0.00    +0.013 A 
ATOM     28  C   UNL     1      -1.834   3.072   0.281  0.00  0.00    +0.008 A 
ATOM     29  C   UNL     1      -2.075   3.840  -0.810  0.00  0.00    +0.045 A 
ATOM     30  S   UNL     1      -0.443   4.454  -1.196  0.00  0.00    -0.099 S 
ENDBRANCH  25  26
BRANCH  25  31
ATOM     31  C   UNL     1       2.663   2.744  -0.486  0.00  0.00    +0.239 C 
ATOM     32  O   UNL     1       3.523   3.173  -1.227  0.00  0.00    -0.273 OA
ATOM     33  N   UNL     1       2.370   1.429  -0.484  0.00  0.00    -0.311 N 
ATOM     34  H   UNL     1       1.683   1.086   0.108  0.00  0.00    +0.149 HD
BRANCH  33  35
ATOM     35  C   UNL     1       3.090   0.517  -1.376  0.00  0.00    +0.073 C 
ATOM     36  C   UNL     1       2.419   0.514  -2.752  0.00  0.00    +0.022 C 
ATOM     37  C   UNL     1       3.171  -0.438  -3.684  0.00  0.00    +0.002 C 
ATOM     38  C   UNL     1       3.141  -1.852  -3.099  0.00  0.00    +0.000 C 
ATOM     39  C   UNL     1       3.812  -1.850  -1.724  0.00  0.00    +0.002 C 
ATOM     40  C   UNL     1       3.060  -0.897  -0.792  0.00  0.00    +0.022 C 
ENDBRANCH  33  35
ENDBRANCH  25  31
ENDBRANCH   1  25
TORSDOF 7
