REMARK  Name = ZINC35929998
REMARK  4 active torsions:
REMARK  status: ('A' for Active; 'I' for Inactive)
REMARK    1  A    between atoms: C_4  and  N_7
REMARK    2  A    between atoms: C_15  and  C_30
REMARK    3  A    between atoms: C_17  and  N_29
REMARK    4  A    between atoms: N_18  and  C_22
REMARK                            x       y       z     vdW  Elec       q    Type
REMARK                         _______ _______ _______ _____ _____    ______ ____
ROOT
ATOM      1  N   UNL     1       5.612   0.368  -2.838  0.00  0.00    -0.327 N 
ATOM      2  C   UNL     1       6.942   0.798  -2.385  0.00  0.00    +0.124 C 
ATOM      3  C   UNL     1       7.129   0.360  -0.927  0.00  0.00    +0.127 C 
ATOM      4  N   UNL     1       6.766  -1.060  -0.814  0.00  0.00    -0.297 N 
ATOM      5  C   UNL     1       5.436  -1.490  -1.267  0.00  0.00    +0.127 C 
ATOM      6  C   UNL     1       5.248  -1.051  -2.720  0.00  0.00    +0.124 C 
ATOM      7  C   UNL     1       7.662  -1.975  -0.290  0.00  0.00    +0.220 A 
ATOM      8  N   UNL     1       7.286  -3.249  -0.214  0.00  0.00    -0.214 NA
ATOM      9  C   UNL     1       8.083  -4.191   0.275  0.00  0.00    +0.089 A 
ATOM     10  C   UNL     1       9.368  -3.814   0.725  0.00  0.00    +0.086 A 
ATOM     11  C   UNL     1      10.459  -4.470   1.282  0.00  0.00    +0.131 A 
ATOM     12  N   UNL     1      11.416  -3.548   1.503  0.00  0.00    -0.215 N 
ATOM     13  N   UNL     1      10.966  -2.287   1.097  0.00  0.00    -0.144 NA
ATOM     14  C   UNL     1       9.743  -2.392   0.623  0.00  0.00    +0.189 A 
ATOM     15  N   UNL     1       8.841  -1.539   0.102  0.00  0.00    -0.193 NA
ENDROOT
BRANCH  12  16
ATOM     16  C   UNL     1      12.675  -3.812   2.057  0.00  0.00    +0.086 A 
ATOM     17  C   UNL     1      13.092  -5.123   2.245  0.00  0.00    +0.029 A 
ATOM     18  C   UNL     1      14.334  -5.381   2.791  0.00  0.00    +0.002 A 
ATOM     19  C   UNL     1      15.163  -4.334   3.151  0.00  0.00    +0.002 A 
ATOM     20  C   UNL     1      14.753  -3.027   2.966  0.00  0.00    +0.022 A 
ATOM     21  C   UNL     1      13.513  -2.762   2.414  0.00  0.00    +0.066 A 
ATOM     22 CL   UNL     1      13.000  -1.121   2.176  0.00  0.00    -0.081 Cl
ENDBRANCH  12  16
BRANCH   9  23
ATOM     23  C   UNL     1       7.636  -5.600   0.346  0.00  0.00    +0.001 A 
ATOM     24  C   UNL     1       7.858  -6.347   1.504  0.00  0.00    +0.013 A 
ATOM     25  C   UNL     1       7.440  -7.660   1.566  0.00  0.00    +0.039 A 
ATOM     26  C   UNL     1       6.800  -8.237   0.480  0.00  0.00    +0.123 A 
ATOM     27  C   UNL     1       6.577  -7.500  -0.672  0.00  0.00    +0.039 A 
ATOM     28  C   UNL     1       6.986  -6.185  -0.742  0.00  0.00    +0.013 A 
ATOM     29  F   UNL     1       6.393  -9.524   0.546  0.00  0.00    -0.205 F 
ENDBRANCH   9  23
BRANCH   1  33
ATOM     30  C   UNL     1       2.917   3.124  -4.413  0.00  0.00    +0.000 A 
ATOM     31  C   UNL     1       2.520   1.817  -4.195  0.00  0.00    +0.002 A 
ATOM     32  C   UNL     1       3.411   0.901  -3.673  0.00  0.00    +0.023 A 
ATOM     33  C   UNL     1       4.708   1.292  -3.367  0.00  0.00    +0.030 A 
ATOM     34  C   UNL     1       5.104   2.606  -3.587  0.00  0.00    +0.023 A 
ATOM     35  C   UNL     1       4.208   3.517  -4.110  0.00  0.00    +0.002 A 
ENDBRANCH   1  33
BRANCH  11  36
ATOM     36  N   UNL     1      10.547  -5.822   1.558  0.00  0.00    -0.342 N 
ATOM     37  H   UNL     1      10.165  -6.468   0.944  0.00  0.00    +0.144 HD
ATOM     38  H   UNL     1      10.991  -6.123   2.366  0.00  0.00    +0.144 HD
ENDBRANCH  11  36
TORSDOF 4
