REMARK  Name = ZINC22744994
REMARK  9 active torsions:
REMARK  status: ('A' for Active; 'I' for Inactive)
REMARK    1  A    between atoms: C_3  and  C_8
REMARK    2  A    between atoms: N_9  and  N_10
REMARK    3  A    between atoms: C_11  and  C_13
REMARK    4  A    between atoms: C_13  and  N_14
REMARK    5  A    between atoms: C_15  and  C_17
REMARK    6  A    between atoms: C_17  and  C_18
REMARK    7  A    between atoms: C_18  and  C_19
REMARK    8  A    between atoms: C_19  and  O_20
REMARK    9  A    between atoms: O_20  and  C_21
REMARK                            x       y       z     vdW  Elec       q    Type
REMARK                         _______ _______ _______ _____ _____    ______ ____
ROOT
ATOM      1  N   UNL     1       5.273  -4.286  -0.074  0.00  0.00    -0.307 N 
ATOM      2  C   UNL     1       5.077  -2.953  -0.065  0.00  0.00    +0.214 C 
ATOM      3  O   UNL     1       6.028  -2.200  -0.070  0.00  0.00    -0.276 OA
ATOM      4  H   UNL     1       4.411  -4.969  -0.070  0.00  0.00    +0.149 HD
ENDROOT
BRANCH   1   5
ATOM      5  C   UNL     1       6.635  -4.826  -0.091  0.00  0.00    +0.201 C 
BRANCH   5   7
ATOM      6  N   UNL     1       7.719  -7.049  -0.114  0.00  0.00    -0.206 N 
ATOM      7  C   UNL     1       6.578  -6.332  -0.099  0.00  0.00    +0.249 C 
ATOM      8  O   UNL     1       5.506  -6.899  -0.092  0.00  0.00    -0.272 OA
ATOM      9  H   UNL     1       8.692  -6.536  -0.121  0.00  0.00    +0.177 HD
BRANCH   6  11
ATOM     10  C   UNL     1       8.765  -9.140  -0.136  0.00  0.00    +0.138 C 
ATOM     11  N   UNL     1       7.666  -8.449  -0.122  0.00  0.00    -0.188 NA
BRANCH  10  14
ATOM     12  C   UNL     1       9.830 -12.739  -0.167  0.00  0.00    +0.002 A 
ATOM     13  C   UNL     1       9.889 -11.360  -0.160  0.00  0.00    +0.009 A 
ATOM     14  C   UNL     1       8.709 -10.614  -0.144  0.00  0.00    -0.004 A 
ATOM     15  C   UNL     1       7.476 -11.270  -0.130  0.00  0.00    +0.024 A 
ATOM     16  C   UNL     1       7.431 -12.649  -0.142  0.00  0.00    +0.018 A 
ATOM     17  C   UNL     1       8.606 -13.382  -0.158  0.00  0.00    +0.015 A 
ATOM     18 BR   UNL     1       5.763 -13.539  -0.129  0.00  0.00    -0.050 Br
ENDBRANCH  10  14
ENDBRANCH   6  11
ENDBRANCH   5   7
ENDBRANCH   1   5
BRANCH   2  19
ATOM     19  C   UNL     1       3.676  -2.397  -0.048  0.00  0.00    +0.099 C 
BRANCH  19  20
ATOM     20  C   UNL     1       3.734  -0.868  -0.040  0.00  0.00    +0.050 C 
BRANCH  20  21
ATOM     21  C   UNL     1       2.312  -0.304  -0.023  0.00  0.00    +0.229 C 
BRANCH  21  22
ATOM     22  O   UNL     1       2.366   1.123  -0.015  0.00  0.00    -0.490 OA
BRANCH  22  23
ATOM     23  C   UNL     1       1.179   1.786   0.000  0.00  0.00    +0.139 A 
ATOM     24  C   UNL     1      -0.013   1.076   0.008  0.00  0.00    +0.048 A 
ATOM     25  C   UNL     1      -1.218   1.751   0.017  0.00  0.00    +0.023 A 
ATOM     26  C   UNL     1      -1.238   3.134   0.031  0.00  0.00    +0.043 A 
ATOM     27  C   UNL     1      -0.051   3.845   0.023  0.00  0.00    +0.043 A 
ATOM     28  C   UNL     1       1.157   3.174   0.008  0.00  0.00    +0.084 A 
ATOM     29 CL   UNL     1       2.647   4.066  -0.002  0.00  0.00    -0.080 Cl
ATOM     30 CL   UNL     1      -2.754   3.979   0.049  0.00  0.00    -0.083 Cl
ENDBRANCH  22  23
ENDBRANCH  21  22
ENDBRANCH  20  21
ENDBRANCH  19  20
ENDBRANCH   2  19
TORSDOF 9
