REMARK  Name = ZINC09451219
REMARK  8 active torsions:
REMARK  status: ('A' for Active; 'I' for Inactive)
REMARK    1  A    between atoms: C_1  and  O_2
REMARK    2  A    between atoms: O_2  and  C_3
REMARK    3  A    between atoms: C_3  and  C_4
REMARK    4  A    between atoms: C_3  and  O_33
REMARK    5  A    between atoms: C_4  and  N_5
REMARK    6  A    between atoms: C_13  and  N_15
REMARK    7  A    between atoms: N_23  and  C_26
REMARK    8  A    between atoms: O_33  and  C_34
REMARK                            x       y       z     vdW  Elec       q    Type
REMARK                         _______ _______ _______ _____ _____    ______ ____
ROOT
ATOM      1  N   UNL     1       2.321  -2.933  -0.048  0.00  0.00    -0.323 N 
ATOM      2  C   UNL     1       0.989  -2.881  -0.667  0.00  0.00    +0.131 C 
ATOM      3  C   UNL     1       0.836  -4.127  -1.552  0.00  0.00    +0.145 C 
ATOM      4  C   UNL     1       1.873  -4.057  -2.674  0.00  0.00    +0.064 C 
ATOM      5  C   UNL     1       3.247  -3.821  -2.103  0.00  0.00    -0.023 A 
ATOM      6  C   UNL     1       3.423  -3.272  -0.841  0.00  0.00    +0.033 A 
ATOM      7  C   UNL     1       4.704  -3.060  -0.345  0.00  0.00    +0.025 A 
ATOM      8  C   UNL     1       5.805  -3.391  -1.110  0.00  0.00    +0.034 A 
ATOM      9  C   UNL     1       5.631  -3.934  -2.370  0.00  0.00    +0.127 A 
ATOM     10  C   UNL     1       4.355  -4.156  -2.862  0.00  0.00    +0.038 A 
ATOM     11  C   UNL     1      -0.545  -4.152  -2.141  0.00  0.00    +0.257 C 
ATOM     12  O   UNL     1      -0.936  -3.129  -2.917  0.00  0.00    -0.272 OA
ATOM     13  N   UNL     1      -1.374  -5.129  -1.928  0.00  0.00    -0.126 NA
ATOM     14  C   UNL     1      -1.062  -6.187  -1.167  0.00  0.00    +0.339 C 
ATOM     15  O   UNL     1      -1.886  -7.068  -1.009  0.00  0.00    -0.250 OA
ATOM     16  N   UNL     1       0.138  -6.300  -0.575  0.00  0.00    -0.192 N 
ATOM     17  C   UNL     1       1.080  -5.356  -0.720  0.00  0.00    +0.244 C 
ATOM     18  O   UNL     1       2.151  -5.496  -0.170  0.00  0.00    -0.274 OA
ENDROOT
BRANCH  16  19
ATOM     19  C   UNL     1       0.412  -7.428   0.210  0.00  0.00    +0.046 A 
ATOM     20  C   UNL     1       0.546  -7.302   1.586  0.00  0.00    +0.025 A 
ATOM     21  C   UNL     1       0.816  -8.415   2.358  0.00  0.00    +0.022 A 
ATOM     22  C   UNL     1       0.954  -9.655   1.761  0.00  0.00    +0.041 A 
ATOM     23  C   UNL     1       0.822  -9.784   0.389  0.00  0.00    +0.022 A 
ATOM     24  C   UNL     1       0.545  -8.675  -0.386  0.00  0.00    +0.025 A 
ATOM     25 CL   UNL     1       1.295 -11.052   2.734  0.00  0.00    -0.084 Cl
ENDBRANCH  16  19
BRANCH   9  26
ATOM     26  N   UNL     1       6.810  -4.290  -3.190  0.00  0.00    +0.056 N 
ATOM     27  O   UNL     1       7.925  -4.106  -2.758  0.00  0.00    -0.126 OA
ATOM     28  O   UNL     1       6.660  -4.764  -4.292  0.00  0.00    -0.126 OA
ENDBRANCH   9  26
BRANCH   1  29
ATOM     29  C   UNL     1       2.492  -2.629   1.375  0.00  0.00    +0.166 C 
BRANCH  29  30
ATOM     30  C   UNL     1       2.749  -1.131   1.549  0.00  0.00    +0.266 C 
BRANCH  30  32
ATOM     31  C   UNL     1       1.528   0.931   1.558  0.00  0.00    +0.197 C 
ATOM     32  O   UNL     1       1.638  -0.394   1.035  0.00  0.00    -0.353 OA
ENDBRANCH  30  32
BRANCH  30  33
ATOM     33  O   UNL     1       3.933  -0.765   0.837  0.00  0.00    -0.353 OA
ATOM     34  C   UNL     1       4.476   0.499   1.223  0.00  0.00    +0.197 C 
ENDBRANCH  30  33
ENDBRANCH  29  30
ENDBRANCH   1  29
TORSDOF 6
