REMARK  Name = ZINC16321188
REMARK  8 active torsions:
REMARK  status: ('A' for Active; 'I' for Inactive)
REMARK    1  A    between atoms: C_1  and  N_2
REMARK    2  A    between atoms: C_15  and  S_16
REMARK    3  A    between atoms: S_16  and  C_17
REMARK    4  A    between atoms: C_17  and  C_18
REMARK    5  A    between atoms: N_20  and  C_21
REMARK    6  A    between atoms: C_22  and  C_30
REMARK    7  A    between atoms: C_30  and  O_32
REMARK    8  A    between atoms: O_32  and  C_33
REMARK                            x       y       z     vdW  Elec       q    Type
REMARK                         _______ _______ _______ _____ _____    ______ ____
ROOT
ATOM      1  C   UNL     1       0.192   4.441   0.023  0.00  0.00    +0.173 C 
ENDROOT
BRANCH   1   2
ATOM      2  C   UNL     1       0.498   5.917   0.027  0.00  0.00    +0.228 C 
ATOM      3  O   UNL     1       1.649   6.298   0.018  0.00  0.00    -0.275 OA
ATOM      4  N   UNL     1      -0.508   6.814   0.042  0.00  0.00    -0.279 N 
ATOM      5  H   UNL     1      -1.429   6.509   0.049  0.00  0.00    +0.155 HD
BRANCH   4   6
ATOM      6  C   UNL     1      -0.227   8.171   0.046  0.00  0.00    +0.086 A 
ATOM      7  C   UNL     1      -1.117   9.236   0.054  0.00  0.00    +0.091 A 
ATOM      8  C   UNL     1      -0.558  10.578   0.061  0.00  0.00    -0.021 A 
ATOM      9  C   UNL     1       0.791  10.639   0.048  0.00  0.00    -0.004 A 
ATOM     10  S   UNL     1       1.321   8.950   0.034  0.00  0.00    -0.077 S 
ATOM     11  C   UNL     1       1.639  11.873   0.044  0.00  0.00    +0.043 C 
ATOM     12  C   UNL     1       0.750  13.071  -0.320  0.00  0.00    +0.005 C 
ATOM     13  C   UNL     1      -0.523  13.015   0.530  0.00  0.00    +0.005 C 
ATOM     14  C   UNL     1      -1.401  11.847   0.076  0.00  0.00    +0.037 C 
BRANCH   7  15
ATOM     15  C   UNL     1      -2.565   9.017   0.059  0.00  0.00    +0.342 C 
ATOM     16  O   UNL     1      -3.162   8.922   1.115  0.00  0.00    -0.245 OA
BRANCH  15  17
ATOM     17  O   UNL     1      -3.237   8.920  -1.106  0.00  0.00    -0.464 OA
ATOM     18  C   UNL     1      -4.670   8.703  -1.025  0.00  0.00    +0.280 C 
ENDBRANCH  15  17
ENDBRANCH   7  15
ENDBRANCH   4   6
ENDBRANCH   1   2
BRANCH   1  19
ATOM     19  S   UNL     1       1.744   3.502   0.003  0.00  0.00    -0.076 S 
BRANCH  19  34
ATOM     20  C   UNL     1       0.923  -2.837  -0.021  0.00  0.00    +0.155 C 
ATOM     21  N   UNL     1       1.807  -1.669  -0.024  0.00  0.00    -0.280 N 
ATOM     22  C   UNL     1       3.144  -1.848  -0.037  0.00  0.00    +0.263 A 
ATOM     23  O   UNL     1       3.618  -2.968  -0.047  0.00  0.00    -0.267 OA
ATOM     24  C   UNL     1       4.020  -0.662  -0.039  0.00  0.00    +0.064 A 
ATOM     25  C   UNL     1       5.408  -0.789  -0.053  0.00  0.00    +0.015 A 
ATOM     26  C   UNL     1       6.195   0.343  -0.055  0.00  0.00    +0.001 A 
ATOM     27  C   UNL     1       5.613   1.601  -0.043  0.00  0.00    +0.002 A 
ATOM     28  C   UNL     1       4.239   1.739  -0.029  0.00  0.00    +0.027 A 
ATOM     29  C   UNL     1       3.433   0.612  -0.027  0.00  0.00    +0.064 A 
ATOM     30  N   UNL     1       2.044   0.723  -0.014  0.00  0.00    -0.256 N 
ATOM     31  C   UNL     1       1.256  -0.396  -0.012  0.00  0.00    +0.240 A 
ATOM     32  N   UNL     1       0.002  -0.004   0.002  0.00  0.00    -0.109 NA
ATOM     33  N   UNL     1      -0.017   1.396   0.010  0.00  0.00    -0.120 NA
ATOM     34  C   UNL     1       1.224   1.819   0.000  0.00  0.00    +0.198 A 
ENDBRANCH  19  34
ENDBRANCH   1  19
TORSDOF 6
