REMARK  Name = ZINC35520348
REMARK  12 active torsions:
REMARK  status: ('A' for Active; 'I' for Inactive)
REMARK    1  A    between atoms: C_1  and  C_2
REMARK    2  A    between atoms: C_2  and  O_3
REMARK    3  A    between atoms: O_3  and  C_4
REMARK    4  A    between atoms: C_6  and  C_11
REMARK    5  A    between atoms: C_9  and  O_10
REMARK    6  A    between atoms: C_18  and  C_33
REMARK    7  A    between atoms: C_19  and  C_32
REMARK    8  A    between atoms: N_26  and  C_27
REMARK    9  A    between atoms: C_27  and  C_28
REMARK   10  A    between atoms: C_28  and  N_29
REMARK   11  A    between atoms: N_29  and  C_30
REMARK   12  A    between atoms: N_29  and  C_31
REMARK                            x       y       z     vdW  Elec       q    Type
REMARK                         _______ _______ _______ _____ _____    ______ ____
ROOT
ATOM      1  C   UNL     1       0.654  -4.954  -0.018  0.00  0.00    +0.145 C 
ATOM      2  C   UNL     1       0.892  -5.511   1.347  0.00  0.00    +0.072 A 
ATOM      3  C   UNL     1       1.194  -4.849   2.621  0.00  0.00    +0.199 A 
ATOM      4  O   UNL     1       1.126  -3.643   2.779  0.00  0.00    -0.287 OA
ATOM      5  C   UNL     1       1.589  -5.790   3.700  0.00  0.00    +0.065 A 
ATOM      6  C   UNL     1       2.096  -5.308   4.906  0.00  0.00    +0.019 A 
ATOM      7  C   UNL     1       2.461  -6.188   5.888  0.00  0.00    -0.047 A 
ATOM      8  C   UNL     1       2.328  -7.554   5.686  0.00  0.00    -0.044 A 
ATOM      9  C   UNL     1       1.829  -8.047   4.501  0.00  0.00    +0.050 A 
ATOM     10  C   UNL     1       1.446  -7.171   3.486  0.00  0.00    +0.140 A 
ATOM     11  O   UNL     1       0.948  -7.676   2.334  0.00  0.00    -0.450 OA
ATOM     12  C   UNL     1       0.791  -6.870   1.266  0.00  0.00    +0.199 A 
ATOM     13  C   UNL     1       0.496  -7.229  -0.132  0.00  0.00    +0.283 C 
ATOM     14  O   UNL     1       0.348  -8.363  -0.543  0.00  0.00    -0.267 OA
ATOM     15  N   UNL     1       0.413  -6.115  -0.891  0.00  0.00    -0.285 N 
ATOM     16  C   UNL     1       2.737  -8.511   6.776  0.00  0.00    +0.044 C 
ATOM     17  C   UNL     1       3.009  -5.671   7.193  0.00  0.00    +0.044 C 
ENDROOT
BRANCH   1  20
ATOM     18  C   UNL     1      -1.498  -1.849   0.006  0.00  0.00    +0.162 A 
ATOM     19  C   UNL     1      -0.389  -2.680  -0.003  0.00  0.00    +0.055 A 
ATOM     20  C   UNL     1      -0.553  -4.052  -0.008  0.00  0.00    -0.019 A 
ATOM     21  C   UNL     1      -1.823  -4.600  -0.005  0.00  0.00    +0.009 A 
ATOM     22  C   UNL     1      -2.934  -3.777   0.004  0.00  0.00    +0.049 A 
ATOM     23  C   UNL     1      -2.776  -2.400   0.016  0.00  0.00    +0.158 A 
BRANCH  23  24
ATOM     24  O   UNL     1      -3.868  -1.589   0.030  0.00  0.00    -0.503 OA
ATOM     25  H   UNL     1      -4.192  -1.350  -0.849  0.00  0.00    +0.292 HD
ENDBRANCH  23  24
BRANCH  18  26
ATOM     26  O   UNL     1      -1.339  -0.499   0.012  0.00  0.00    -0.489 OA
BRANCH  26  28
ATOM     27  C   UNL     1      -0.019   1.526   0.010  0.00  0.00    +0.048 C 
ATOM     28  C   UNL     1       0.002  -0.004   0.002  0.00  0.00    +0.226 C 
ENDBRANCH  26  28
ENDBRANCH  18  26
ENDBRANCH   1  20
BRANCH  15  29
ATOM     29  C   UNL     1       0.134  -6.068  -2.328  0.00  0.00    +0.090 C 
BRANCH  29  30
ATOM     30  C   UNL     1       1.449  -6.136  -3.106  0.00  0.00    -0.060 C 
BRANCH  30  31
ATOM     31  N   UNL     1       1.168  -6.089  -4.547  0.00  0.00    +0.377 N 
ATOM     32  C   UNL     1       0.581  -4.787  -4.890  0.00  0.00    -0.097 C 
ATOM     33  C   UNL     1       2.419  -6.274  -5.296  0.00  0.00    -0.097 C 
ATOM     34  H   UNL     1       0.520  -6.824  -4.788  0.00  0.00    -0.083 HD
ENDBRANCH  30  31
ENDBRANCH  29  30
ENDBRANCH  15  29
TORSDOF 7
