REMARK  Name = ZINC39914747
REMARK  12 active torsions:
REMARK  status: ('A' for Active; 'I' for Inactive)
REMARK    1  A    between atoms: C_1  and  C_2
REMARK    2  A    between atoms: C_2  and  C_3
REMARK    3  A    between atoms: C_3  and  C_4
REMARK    4  A    between atoms: C_4  and  O_5
REMARK    5  A    between atoms: O_5  and  C_6
REMARK    6  A    between atoms: C_9  and  C_12
REMARK    7  A    between atoms: C_15  and  C_31
REMARK    8  A    between atoms: N_22  and  C_23
REMARK    9  A    between atoms: C_23  and  C_24
REMARK   10  A    between atoms: C_27  and  C_30
REMARK   11  A    between atoms: C_34  and  C_38
REMARK   12  A    between atoms: C_36  and  O_37
REMARK                            x       y       z     vdW  Elec       q    Type
REMARK                         _______ _______ _______ _____ _____    ______ ____
ROOT
ATOM      1  C   UNL     1      -3.636  -7.723   0.167  0.00  0.00    +0.142 C 
ATOM      2  C   UNL     1      -3.709  -8.471   1.470  0.00  0.00    +0.035 A 
ATOM      3  C   UNL     1      -3.093  -8.785   2.686  0.00  0.00    +0.102 A 
ATOM      4  N   UNL     1      -3.901  -9.595   3.341  0.00  0.00    -0.173 NA
ATOM      5  N   UNL     1      -4.966  -9.825   2.658  0.00  0.00    -0.272 N 
ATOM      6  H   UNL     1      -5.699 -10.393   2.943  0.00  0.00    +0.189 HD
ATOM      7  C   UNL     1      -4.913  -9.150   1.472  0.00  0.00    +0.126 A 
ATOM      8  C   UNL     1      -5.613  -8.862   0.215  0.00  0.00    +0.266 C 
ATOM      9  O   UNL     1      -6.701  -9.309  -0.092  0.00  0.00    -0.268 OA
ATOM     10  N   UNL     1      -4.879  -8.033  -0.552  0.00  0.00    -0.281 N 
ENDROOT
BRANCH   3  11
ATOM     11  C   UNL     1      -1.772  -8.296   3.154  0.00  0.00    +0.045 A 
ATOM     12  C   UNL     1      -0.967  -7.540   2.306  0.00  0.00    +0.034 A 
ATOM     13  C   UNL     1       0.262  -7.087   2.746  0.00  0.00    +0.045 A 
ATOM     14  C   UNL     1       0.695  -7.382   4.027  0.00  0.00    -0.029 A 
ATOM     15  C   UNL     1      -0.098  -8.131   4.876  0.00  0.00    +0.050 A 
ATOM     16  C   UNL     1      -1.335  -8.586   4.449  0.00  0.00    +0.126 A 
ATOM     17  C   UNL     1       2.037  -6.883   4.499  0.00  0.00    +0.045 C 
ATOM     18 CL   UNL     1       1.266  -6.146   1.688  0.00  0.00    -0.083 Cl
BRANCH  16  19
ATOM     19  O   UNL     1      -2.117  -9.318   5.285  0.00  0.00    -0.506 OA
ATOM     20  H   UNL     1      -1.965 -10.271   5.232  0.00  0.00    +0.292 HD
ENDBRANCH  16  19
ENDBRANCH   3  11
BRANCH   1  24
ATOM     21  C   UNL     1      -3.371  -3.521   0.898  0.00  0.00    +0.121 A 
ATOM     22  C   UNL     1      -4.542  -4.204   1.191  0.00  0.00    +0.046 A 
ATOM     23  C   UNL     1      -4.625  -5.563   0.954  0.00  0.00    +0.009 A 
ATOM     24  C   UNL     1      -3.543  -6.241   0.425  0.00  0.00    -0.022 A 
ATOM     25  C   UNL     1      -2.374  -5.562   0.133  0.00  0.00    +0.009 A 
ATOM     26  C   UNL     1      -2.288  -4.203   0.363  0.00  0.00    +0.046 A 
BRANCH  21  27
ATOM     27  O   UNL     1      -3.286  -2.184   1.131  0.00  0.00    -0.492 OA
BRANCH  27  28
ATOM     28  C   UNL     1      -4.440  -1.548   1.684  0.00  0.00    +0.229 C 
BRANCH  28  29
ATOM     29  C   UNL     1      -4.158  -0.056   1.873  0.00  0.00    +0.041 C 
BRANCH  29  31
ATOM     30  C   UNL     1      -5.111   2.117   2.655  0.00  0.00    +0.004 C 
ATOM     31  C   UNL     1      -5.393   0.625   2.466  0.00  0.00    -0.000 C 
ENDBRANCH  29  31
ENDBRANCH  28  29
ENDBRANCH  27  28
ENDBRANCH  21  27
ENDBRANCH   1  24
BRANCH  10  32
ATOM     32  C   UNL     1      -5.254  -7.527  -1.874  0.00  0.00    +0.144 C 
BRANCH  32  33
ATOM     33  C   UNL     1      -4.752  -8.473  -2.935  0.00  0.00    -0.030 A 
ATOM     34  C   UNL     1      -3.491  -8.298  -3.475  0.00  0.00    +0.005 A 
ATOM     35  C   UNL     1      -3.030  -9.165  -4.448  0.00  0.00    +0.003 A 
ATOM     36  C   UNL     1      -3.829 -10.207  -4.881  0.00  0.00    -0.050 A 
ATOM     37  C   UNL     1      -5.090 -10.382  -4.340  0.00  0.00    +0.003 A 
ATOM     38  C   UNL     1      -5.549  -9.517  -3.364  0.00  0.00    +0.005 A 
ATOM     39  C   UNL     1      -3.327 -11.152  -5.942  0.00  0.00    +0.044 C 
ENDBRANCH  32  33
ENDBRANCH  10  32
TORSDOF 9
