REMARK  Name = ZINC39960859
REMARK  6 active torsions:
REMARK  status: ('A' for Active; 'I' for Inactive)
REMARK    1  A    between atoms: C_1  and  C_2
REMARK    2  A    between atoms: C_2  and  C_3
REMARK    3  A    between atoms: C_2  and  C_4
REMARK    4  A    between atoms: C_2  and  C_5
REMARK    5  A    between atoms: C_8  and  C_11
REMARK    6  A    between atoms: N_13  and  C_14
REMARK                            x       y       z     vdW  Elec       q    Type
REMARK                         _______ _______ _______ _____ _____    ______ ____
ROOT
ATOM      1  C   UNL     1       2.696  -1.861  -4.731  0.00  0.00    +0.248 C 
ATOM      2  O   UNL     1       2.103  -2.553  -5.536  0.00  0.00    -0.270 OA
ATOM      3  N   UNL     1       3.981  -1.521  -4.952  0.00  0.00    -0.281 N 
ATOM      4  H   UNL     1       4.430  -0.905  -4.353  0.00  0.00    +0.155 HD
ENDROOT
BRANCH   3   5
ATOM      5  C   UNL     1       4.662  -2.053  -6.038  0.00  0.00    +0.047 A 
ATOM      6  C   UNL     1       4.269  -3.277  -6.592  0.00  0.00    +0.024 A 
ATOM      7  C   UNL     1       4.944  -3.806  -7.670  0.00  0.00    +0.003 A 
ATOM      8  C   UNL     1       6.028  -3.138  -8.230  0.00  0.00    +0.014 A 
ATOM      9  C   UNL     1       6.433  -1.927  -7.697  0.00  0.00    +0.054 A 
ATOM     10  C   UNL     1       5.743  -1.372  -6.595  0.00  0.00    +0.073 A 
ATOM     11  C   UNL     1       6.227  -0.078  -6.086  0.00  0.00    +0.285 C 
ATOM     12  O   UNL     1       5.686   0.456  -5.138  0.00  0.00    -0.267 OA
ATOM     13  N   UNL     1       7.281   0.503  -6.692  0.00  0.00    -0.084 NA
ATOM     14  N   UNL     1       7.879   0.026  -7.652  0.00  0.00    -0.084 NA
ATOM     15  C   UNL     1       7.572  -1.153  -8.230  0.00  0.00    +0.284 C 
ATOM     16  O   UNL     1       8.210  -1.563  -9.179  0.00  0.00    -0.267 OA
ENDBRANCH   3   5
BRANCH   1  20
ATOM     17  C   UNL     1       0.717  -0.516  -1.222  0.00  0.00    -0.042 A 
ATOM     18  C   UNL     1       0.039  -1.303  -2.136  0.00  0.00    +0.005 A 
ATOM     19  C   UNL     1       0.676  -1.743  -3.278  0.00  0.00    +0.013 A 
ATOM     20  C   UNL     1       2.007  -1.393  -3.510  0.00  0.00    +0.037 A 
ATOM     21  C   UNL     1       2.685  -0.598  -2.584  0.00  0.00    +0.013 A 
ATOM     22  C   UNL     1       2.035  -0.161  -1.449  0.00  0.00    +0.005 A 
BRANCH  17  24
ATOM     23  C   UNL     1      -0.004   1.490   0.044  0.00  0.00    +0.015 C 
ATOM     24  C   UNL     1       0.015  -0.039   0.023  0.00  0.00    -0.013 C 
ATOM     25  C   UNL     1       0.757  -0.557   1.257  0.00  0.00    +0.015 C 
ATOM     26  C   UNL     1      -1.421  -0.567   0.033  0.00  0.00    +0.015 C 
ENDBRANCH  17  24
ENDBRANCH   1  20
TORSDOF 3
