REMARK  Name = ZINC39419585
REMARK  10 active torsions:
REMARK  status: ('A' for Active; 'I' for Inactive)
REMARK    1  A    between atoms: C_1  and  C_2
REMARK    2  A    between atoms: C_2  and  C_3
REMARK    3  A    between atoms: C_3  and  C_4
REMARK    4  A    between atoms: C_4  and  N_5
REMARK    5  A    between atoms: N_5  and  C_6
REMARK    6  A    between atoms: C_8  and  N_23
REMARK    7  A    between atoms: N_10  and  C_16
REMARK    8  A    between atoms: C_16  and  C_17
REMARK    9  A    between atoms: C_24  and  C_26
REMARK   10  A    between atoms: C_26  and  C_27
REMARK                            x       y       z     vdW  Elec       q    Type
REMARK                         _______ _______ _______ _____ _____    ______ ____
ROOT
ATOM      1  C   UNL     1      -3.471  -2.807  -1.259  0.00  0.00    +0.167 C 
ATOM      2  C   UNL     1      -2.622  -3.740  -2.134  0.00  0.00    +0.048 C 
ATOM      3  N   UNL     1      -1.456  -2.970  -2.602  0.00  0.00    -0.292 N 
ATOM      4  C   UNL     1      -1.683  -1.753  -3.173  0.00  0.00    +0.328 C 
ATOM      5  O   UNL     1      -0.801  -1.253  -4.058  0.00  0.00    -0.250 OA
ATOM      6  N   UNL     1      -2.765  -1.063  -2.862  0.00  0.00    -0.126 NA
ATOM      7  C   UNL     1      -3.661  -1.498  -1.981  0.00  0.00    +0.261 C 
ATOM      8  O   UNL     1      -4.651  -0.831  -1.754  0.00  0.00    -0.272 OA
ENDROOT
BRANCH   2   9
ATOM      9  N   UNL     1      -3.411  -4.201  -3.283  0.00  0.00    +0.392 N 
ATOM     10  H   UNL     1      -3.704  -3.406  -3.831  0.00  0.00    -0.087 HD
ATOM     11  H   UNL     1      -2.847  -4.813  -3.854  0.00  0.00    -0.087 HD
ATOM     12  H   UNL     1      -4.223  -4.701  -2.955  0.00  0.00    -0.087 HD
ENDBRANCH   2   9
BRANCH   1  13
ATOM     13  N   UNL     1      -2.787  -2.571   0.015  0.00  0.00    -0.290 N 
ATOM     14  C   UNL     1      -3.326  -3.024   1.164  0.00  0.00    +0.221 C 
ATOM     15  O   UNL     1      -4.328  -3.706   1.136  0.00  0.00    -0.275 OA
BRANCH  13  16
ATOM     16  C   UNL     1      -1.517  -1.841   0.040  0.00  0.00    +0.108 C 
BRANCH  16  17
ATOM     17  C   UNL     1      -1.792  -0.344   0.202  0.00  0.00    +0.019 C 
BRANCH  17  19
ATOM     18  C   UNL     1      -0.740   1.914   0.391  0.00  0.00    +0.004 C 
ATOM     19  C   UNL     1      -0.466   0.418   0.228  0.00  0.00    -0.002 C 
ENDBRANCH  17  19
ENDBRANCH  16  17
ENDBRANCH  13  16
BRANCH  14  20
ATOM     20  C   UNL     1      -2.683  -2.684   2.484  0.00  0.00    +0.133 C 
BRANCH  20  21
ATOM     21  C   UNL     1      -3.474  -3.308   3.604  0.00  0.00    -0.014 A 
ATOM     22  C   UNL     1      -3.338  -4.676   4.111  0.00  0.00    +0.003 A 
ATOM     23  C   UNL     1      -2.522  -5.758   3.776  0.00  0.00    +0.010 A 
ATOM     24  C   UNL     1      -2.642  -6.935   4.460  0.00  0.00    +0.001 A 
ATOM     25  C   UNL     1      -3.568  -7.063   5.485  0.00  0.00    +0.002 A 
ATOM     26  C   UNL     1      -4.384  -6.008   5.832  0.00  0.00    +0.026 A 
ATOM     27  C   UNL     1      -4.279  -4.801   5.150  0.00  0.00    +0.047 A 
ATOM     28  N   UNL     1      -4.931  -3.593   5.255  0.00  0.00    -0.360 N 
ATOM     29  C   UNL     1      -4.435  -2.714   4.330  0.00  0.00    +0.087 A 
ATOM     30  H   UNL     1      -5.634  -3.393   5.892  0.00  0.00    +0.165 HD
ENDBRANCH  20  21
ENDBRANCH  14  20
ENDBRANCH   1  13
BRANCH   3  31
ATOM     31  C   UNL     1      -0.097  -3.496  -2.458  0.00  0.00    +0.142 C 
BRANCH  31  32
ATOM     32  C   UNL     1       0.266  -4.295  -3.683  0.00  0.00    -0.030 A 
ATOM     33  C   UNL     1      -0.010  -5.648  -3.732  0.00  0.00    +0.005 A 
ATOM     34  C   UNL     1       0.323  -6.381  -4.856  0.00  0.00    +0.000 A 
ATOM     35  C   UNL     1       0.930  -5.760  -5.931  0.00  0.00    +0.000 A 
ATOM     36  C   UNL     1       1.205  -4.406  -5.883  0.00  0.00    +0.000 A 
ATOM     37  C   UNL     1       0.869  -3.672  -4.760  0.00  0.00    +0.005 A 
ENDBRANCH  31  32
ENDBRANCH   3  31
TORSDOF 9
