REMARK  Name = ZINC67304602
REMARK  11 active torsions:
REMARK  status: ('A' for Active; 'I' for Inactive)
REMARK    1  A    between atoms: C_1  and  N_2
REMARK    2  A    between atoms: N_2  and  C_3
REMARK    3  A    between atoms: N_2  and  C_4
REMARK    4  A    between atoms: C_4  and  C_5
REMARK    5  A    between atoms: C_5  and  N_6
REMARK    6  A    between atoms: N_6  and  C_7
REMARK    7  A    between atoms: C_7  and  C_8
REMARK    8  A    between atoms: C_14  and  C_16
REMARK    9  A    between atoms: C_16  and  C_17
REMARK   10  A    between atoms: C_20  and  S_23
REMARK   11  A    between atoms: S_23  and  N_26
REMARK                            x       y       z     vdW  Elec       q    Type
REMARK                         _______ _______ _______ _____ _____    ______ ____
ROOT
ATOM      1  N   UNL     1      -2.733  -2.544  -0.111  0.00  0.00    -0.301 N 
ATOM      2  C   UNL     1      -3.319  -2.879   1.055  0.00  0.00    +0.220 C 
ATOM      3  O   UNL     1      -4.457  -3.298   1.064  0.00  0.00    -0.275 OA
ENDROOT
BRANCH   1   4
ATOM      4  C   UNL     1      -1.358  -2.037  -0.122  0.00  0.00    +0.089 C 
BRANCH   4   5
ATOM      5  C   UNL     1      -1.376  -0.512   0.012  0.00  0.00    -0.060 C 
BRANCH   5   7
ATOM      6  C   UNL     1      -0.018   1.465   0.010  0.00  0.00    -0.097 C 
ATOM      7  N   UNL     1       0.002  -0.004   0.002  0.00  0.00    +0.377 N 
ATOM      8  C   UNL     1       0.713  -0.491   1.192  0.00  0.00    -0.097 C 
ATOM      9  H   UNL     1       0.474  -0.330  -0.828  0.00  0.00    -0.083 HD
ENDBRANCH   5   7
ENDBRANCH   4   5
ENDBRANCH   1   4
BRANCH   1  10
ATOM     10  C   UNL     1      -3.470  -2.687  -1.369  0.00  0.00    +0.139 C 
BRANCH  10  11
ATOM     11  C   UNL     1      -3.231  -4.084  -1.944  0.00  0.00    +0.136 C 
ATOM     12  C   UNL     1      -3.975  -4.244  -3.294  0.00  0.00    +0.035 C 
ATOM     13  C   UNL     1      -3.126  -5.357  -3.968  0.00  0.00    +0.031 C 
ATOM     14  C   UNL     1      -1.705  -5.042  -3.453  0.00  0.00    +0.160 C 
ATOM     15  O   UNL     1      -1.840  -4.263  -2.257  0.00  0.00    -0.375 OA
ENDBRANCH  10  11
ENDBRANCH   1  10
BRANCH   2  16
ATOM     16  C   UNL     1      -2.560  -2.731   2.349  0.00  0.00    +0.131 C 
BRANCH  16  17
ATOM     17  C   UNL     1      -3.433  -3.170   3.496  0.00  0.00    -0.039 A 
ATOM     18  C   UNL     1      -4.250  -2.254   4.133  0.00  0.00    +0.006 A 
ATOM     19  C   UNL     1      -5.051  -2.657   5.185  0.00  0.00    +0.029 A 
ATOM     20  C   UNL     1      -5.036  -3.975   5.601  0.00  0.00    +0.105 A 
ATOM     21  C   UNL     1      -4.220  -4.891   4.963  0.00  0.00    +0.029 A 
ATOM     22  C   UNL     1      -3.422  -4.490   3.908  0.00  0.00    +0.006 A 
BRANCH  20  23
ATOM     23  S   UNL     1      -6.056  -4.488   6.942  0.00  0.00    +0.056 S 
ATOM     24  O   UNL     1      -5.453  -5.652   7.489  0.00  0.00    -0.153 OA
ATOM     25  O   UNL     1      -6.317  -3.328   7.721  0.00  0.00    -0.153 OA
BRANCH  23  26
ATOM     26  N   UNL     1      -7.507  -4.963   6.301  0.00  0.00    -0.204 NA
ATOM     27  H   UNL     1      -7.650  -4.921   5.342  0.00  0.00    +0.144 HD
ATOM     28  H   UNL     1      -8.213  -5.284   6.883  0.00  0.00    +0.144 HD
ENDBRANCH  23  26
ENDBRANCH  20  23
ENDBRANCH  16  17
ENDBRANCH   2  16
TORSDOF 9
