REMARK  Name = ZINC63281381
REMARK  11 active torsions:
REMARK  status: ('A' for Active; 'I' for Inactive)
REMARK    1  A    between atoms: C_1  and  O_2
REMARK    2  A    between atoms: O_2  and  C_3
REMARK    3  A    between atoms: C_7  and  C_17
REMARK    4  A    between atoms: C_11  and  O_15
REMARK    5  A    between atoms: C_12  and  O_13
REMARK    6  A    between atoms: O_13  and  C_14
REMARK    7  A    between atoms: O_15  and  C_16
REMARK    8  A    between atoms: N_19  and  C_20
REMARK    9  A    between atoms: C_20  and  C_21
REMARK   10  A    between atoms: C_21  and  C_22
REMARK   11  A    between atoms: C_22  and  N_24
REMARK                            x       y       z     vdW  Elec       q    Type
REMARK                         _______ _______ _______ _____ _____    ______ ____
ROOT
ATOM      1  C   UNL     1      -6.639  -1.280  -1.208  0.00  0.00    +0.239 C 
ATOM      2  O   UNL     1      -6.552  -2.186  -2.010  0.00  0.00    -0.273 OA
ATOM      3  N   UNL     1      -7.520  -0.281  -1.414  0.00  0.00    -0.313 N 
ATOM      4  H   UNL     1      -7.590   0.443  -0.773  0.00  0.00    +0.149 HD
ENDROOT
BRANCH   1   9
ATOM      5  C   UNL     1      -1.165  -0.558  -0.026  0.00  0.00    +0.166 A 
ATOM      6  C   UNL     1      -2.303   0.175  -0.011  0.00  0.00    +0.059 A 
ATOM      7  C   UNL     1      -3.604  -0.505  -0.002  0.00  0.00    +0.004 A 
ATOM      8  C   UNL     1      -4.875  -0.047   0.014  0.00  0.00    +0.017 C 
ATOM      9  C   UNL     1      -5.763  -1.271   0.018  0.00  0.00    +0.190 C 
ATOM     10  N   UNL     1      -4.858  -2.426   0.002  0.00  0.00    -0.367 N 
ATOM     11  C   UNL     1      -3.623  -1.986  -0.009  0.00  0.00    +0.089 A 
ATOM     12  C   UNL     1      -2.334  -2.686  -0.025  0.00  0.00    +0.189 A 
ATOM     13  C   UNL     1      -1.179  -1.969  -0.038  0.00  0.00    +0.206 A 
ATOM     14  H   UNL     1      -5.128  -3.357   0.001  0.00  0.00    +0.161 HD
BRANCH   5  16
ATOM     15  C   UNL     1      -0.002   1.515  -0.022  0.00  0.00    +0.277 C 
ATOM     16  O   UNL     1       0.031   0.087  -0.035  0.00  0.00    -0.491 OA
ENDBRANCH   5  16
BRANCH  13  17
ATOM     17  O   UNL     1       0.004  -2.635  -0.059  0.00  0.00    -0.488 OA
ATOM     18  C   UNL     1       0.586  -2.964   1.205  0.00  0.00    +0.277 C 
ENDBRANCH  13  17
BRANCH  12  19
ATOM     19  O   UNL     1      -2.294  -4.046  -0.032  0.00  0.00    -0.489 OA
ATOM     20  C   UNL     1      -2.288  -4.689  -1.308  0.00  0.00    +0.277 C 
ENDBRANCH  12  19
ENDBRANCH   1   9
BRANCH   3  21
ATOM     21  C   UNL     1      -8.372  -0.290  -2.606  0.00  0.00    +0.113 C 
BRANCH  21  22
ATOM     22  C   UNL     1      -9.274   0.946  -2.598  0.00  0.00    +0.116 C 
BRANCH  22  23
ATOM     23  C   UNL     1     -10.150   0.937  -3.824  0.00  0.00    +0.240 C 
ATOM     24  O   UNL     1     -10.062   0.029  -4.627  0.00  0.00    -0.274 OA
BRANCH  23  25
ATOM     25  N   UNL     1     -11.019   1.922  -4.027  0.00  0.00    -0.157 NA
ATOM     26  C   UNL     1     -11.718   1.970  -5.159  0.00  0.00    +0.164 A 
ATOM     27  N   UNL     1     -11.754   1.048  -6.154  0.00  0.00    -0.335 N 
ATOM     28  H   UNL     1     -11.226   0.237  -6.086  0.00  0.00    +0.168 HD
ATOM     29  C   UNL     1     -12.545   1.268  -7.266  0.00  0.00    +0.055 A 
ATOM     30  C   UNL     1     -12.729   0.459  -8.396  0.00  0.00    +0.027 A 
ATOM     31  C   UNL     1     -13.568   0.855  -9.412  0.00  0.00    +0.002 A 
ATOM     32  C   UNL     1     -14.253   2.057  -9.349  0.00  0.00    +0.001 A 
ATOM     33  C   UNL     1     -14.089   2.873  -8.244  0.00  0.00    +0.017 A 
ATOM     34  C   UNL     1     -13.251   2.479  -7.228  0.00  0.00    +0.039 A 
ATOM     35  S   UNL     1     -12.762   3.182  -5.675  0.00  0.00    -0.052 S 
ENDBRANCH  23  25
ENDBRANCH  22  23
ENDBRANCH  21  22
ENDBRANCH   3  21
TORSDOF 8
