REMARK  Name = ZINC63710028
REMARK  6 active torsions:
REMARK  status: ('A' for Active; 'I' for Inactive)
REMARK    1  A    between atoms: C_5  and  C_7
REMARK    2  A    between atoms: C_7  and  N_8
REMARK    3  A    between atoms: C_9  and  C_11
REMARK    4  A    between atoms: C_11  and  S_12
REMARK    5  A    between atoms: S_12  and  C_13
REMARK    6  A    between atoms: N_23  and  C_24
REMARK                            x       y       z     vdW  Elec       q    Type
REMARK                         _______ _______ _______ _____ _____    ______ ____
ROOT
ATOM      1  C   UNL     1       2.129  -6.551   4.536  0.00  0.00    +0.261 C 
ATOM      2  N   UNL     1       3.475  -6.071   4.858  0.00  0.00    -0.230 NA
ATOM      3  C   UNL     1       3.703  -5.445   5.967  0.00  0.00    +0.186 C 
ATOM      4  C   UNL     1       2.598  -5.204   6.932  0.00  0.00    +0.103 C 
ATOM      5  C   UNL     1       3.176  -4.537   7.965  0.00  0.00    +0.151 C 
ATOM      6  N   UNL     1       4.483  -4.378   7.684  0.00  0.00    -0.155 NA
ATOM      7  N   UNL     1       4.809  -4.888   6.550  0.00  0.00    -0.129 NA
ATOM      8  C   UNL     1       1.243  -5.675   6.629  0.00  0.00    +0.258 C 
ATOM      9  O   UNL     1       0.333  -5.482   7.413  0.00  0.00    -0.269 OA
ATOM     10  N   UNL     1       1.020  -6.327   5.467  0.00  0.00    -0.235 N 
ENDROOT
BRANCH  10  11
ATOM     11  C   UNL     1      -0.264  -6.787   5.155  0.00  0.00    +0.041 A 
ATOM     12  C   UNL     1      -0.519  -8.151   5.096  0.00  0.00    +0.025 A 
ATOM     13  C   UNL     1      -1.788  -8.602   4.788  0.00  0.00    +0.023 A 
ATOM     14  C   UNL     1      -2.804  -7.697   4.538  0.00  0.00    +0.059 A 
ATOM     15  C   UNL     1      -2.553  -6.336   4.596  0.00  0.00    +0.061 A 
ATOM     16  C   UNL     1      -1.286  -5.880   4.909  0.00  0.00    +0.045 A 
ATOM     17 CL   UNL     1      -3.830  -5.204   4.281  0.00  0.00    -0.082 Cl
ATOM     18 CL   UNL     1      -4.397  -8.268   4.150  0.00  0.00    -0.082 Cl
ENDBRANCH  10  11
BRANCH   1  19
ATOM     19  S   UNL     1       1.658  -5.806   2.951  0.00  0.00    -0.105 S 
BRANCH  19  20
ATOM     20  C   UNL     1       1.562  -4.030   3.312  0.00  0.00    +0.168 C 
BRANCH  20  22
ATOM     21  N   UNL     1       1.041  -1.943   2.091  0.00  0.00    -0.310 N 
ATOM     22  C   UNL     1       1.174  -3.284   2.061  0.00  0.00    +0.223 C 
ATOM     23  O   UNL     1       0.981  -3.890   1.028  0.00  0.00    -0.275 OA
ATOM     24  H   UNL     1       1.196  -1.458   2.917  0.00  0.00    +0.149 HD
BRANCH  21  25
ATOM     25  C   UNL     1       0.664  -1.218   0.875  0.00  0.00    +0.141 C 
BRANCH  25  30
ATOM     26  C   UNL     1      -0.717   2.205   1.671  0.00  0.00    +0.000 A 
ATOM     27  C   UNL     1       0.438   2.964   1.724  0.00  0.00    +0.001 A 
ATOM     28  C   UNL     1       1.666   2.370   1.502  0.00  0.00    +0.020 A 
ATOM     29  C   UNL     1       1.740   1.016   1.227  0.00  0.00    +0.046 A 
ATOM     30  C   UNL     1       0.584   0.257   1.175  0.00  0.00    -0.012 A 
ATOM     31  C   UNL     1      -0.644   0.852   1.396  0.00  0.00    +0.006 A 
ATOM     32 CL   UNL     1       3.282   0.269   0.948  0.00  0.00    -0.083 Cl
ENDBRANCH  25  30
ENDBRANCH  21  25
ENDBRANCH  20  22
ENDBRANCH  19  20
ENDBRANCH   1  19
TORSDOF 6
