REMARK  Name = ZINC39689273
REMARK  5 active torsions:
REMARK  status: ('A' for Active; 'I' for Inactive)
REMARK    1  A    between atoms: C_4  and  N_6
REMARK    2  A    between atoms: C_9  and  C_12
REMARK    3  A    between atoms: C_12  and  N_13
REMARK    4  A    between atoms: C_14  and  C_16
REMARK    5  A    between atoms: C_27  and  C_29
REMARK                            x       y       z     vdW  Elec       q    Type
REMARK                         _______ _______ _______ _____ _____    ______ ____
ROOT
ATOM      1  C   UNL     1       3.667  -5.854  -7.191  0.00  0.00    +0.100 C 
ATOM      2  C   UNL     1       4.431  -6.787  -6.224  0.00  0.00    +0.121 C 
ATOM      3  N   UNL     1       4.038  -8.155  -6.636  0.00  0.00    -0.300 N 
ATOM      4  C   UNL     1       3.996  -8.097  -8.117  0.00  0.00    +0.115 C 
ATOM      5  C   UNL     1       3.387  -6.717  -8.433  0.00  0.00    -0.004 C 
ATOM      6  C   UNL     1       4.061  -6.111  -9.660  0.00  0.00    -0.010 C 
ATOM      7  C   UNL     1       3.719  -6.953 -10.893  0.00  0.00    -0.082 C 
ATOM      8  N   UNL     1       2.263  -6.988 -11.076  0.00  0.00    +0.379 N 
ATOM      9  C   UNL     1       1.631  -7.656  -9.933  0.00  0.00    -0.082 C 
ATOM     10  C   UNL     1       1.883  -6.844  -8.660  0.00  0.00    -0.010 C 
ATOM     11  C   UNL     1       3.778  -9.214  -5.843  0.00  0.00    +0.219 C 
ATOM     12  O   UNL     1       3.467 -10.278  -6.335  0.00  0.00    -0.275 OA
ATOM     13  H   UNL     1       1.912  -6.044 -11.149  0.00  0.00    -0.086 HD
ATOM     14  H   UNL     1       2.044  -7.492 -11.922  0.00  0.00    -0.086 HD
ENDROOT
BRANCH  11  15
ATOM     15  C   UNL     1       3.875  -9.076  -4.346  0.00  0.00    +0.079 C 
ATOM     16  C   UNL     1       5.303  -8.678  -3.959  0.00  0.00    +0.041 C 
ATOM     17  C   UNL     1       5.412  -8.616  -2.433  0.00  0.00    +0.160 C 
ATOM     18  O   UNL     1       5.051  -9.883  -1.880  0.00  0.00    -0.380 OA
ATOM     19  C   UNL     1       3.711 -10.286  -2.169  0.00  0.00    +0.160 C 
ATOM     20  C   UNL     1       3.533 -10.414  -3.684  0.00  0.00    +0.041 C 
ENDBRANCH  11  15
BRANCH   1  22
ATOM     21  N   UNL     1       1.840  -4.210  -6.915  0.00  0.00    -0.315 N 
ATOM     22  C   UNL     1       2.374  -5.397  -6.567  0.00  0.00    +0.218 C 
ATOM     23  O   UNL     1       1.813  -6.098  -5.751  0.00  0.00    -0.275 OA
ATOM     24  H   UNL     1       2.289  -3.649  -7.567  0.00  0.00    +0.149 HD
BRANCH  21  25
ATOM     25  C   UNL     1       0.583  -3.766  -6.308  0.00  0.00    +0.107 C 
BRANCH  25  29
ATOM     26  N   UNL     1      -1.772  -0.737  -8.194  0.00  0.00    +0.382 N 
ATOM     27  C   UNL     1      -1.468  -0.542  -6.772  0.00  0.00    -0.078 C 
ATOM     28  C   UNL     1      -1.045  -1.874  -6.149  0.00  0.00    -0.014 C 
ATOM     29  C   UNL     1       0.201  -2.396  -6.872  0.00  0.00    +0.003 C 
ATOM     30  C   UNL     1      -0.105  -2.525  -8.367  0.00  0.00    -0.014 C 
ATOM     31  C   UNL     1      -0.564  -1.169  -8.907  0.00  0.00    -0.078 C 
ATOM     32  H   UNL     1      -2.488  -1.442  -8.290  0.00  0.00    -0.081 HD
BRANCH  26  36
ATOM     33  C   UNL     1      -4.640   1.011  -9.178  0.00  0.00    -0.002 C 
ATOM     34  C   UNL     1      -3.840   1.215 -10.488  0.00  0.00    -0.002 C 
ATOM     35  C   UNL     1      -2.585   0.336 -10.263  0.00  0.00    -0.015 C 
ATOM     36  C   UNL     1      -2.252   0.527  -8.769  0.00  0.00    -0.069 C 
ATOM     37  C   UNL     1      -3.559   0.957  -8.079  0.00  0.00    -0.015 C 
ENDBRANCH  26  36
ENDBRANCH  25  29
ENDBRANCH  21  25
ENDBRANCH   1  22
TORSDOF 5
