REMARK  Name = ZINC20082394
REMARK  13 active torsions:
REMARK  status: ('A' for Active; 'I' for Inactive)
REMARK    1  A    between atoms: C_1  and  C_2
REMARK    2  A    between atoms: C_2  and  C_3
REMARK    3  A    between atoms: C_10  and  C_15
REMARK    4  A    between atoms: C_15  and  C_17
REMARK    5  A    between atoms: C_15  and  N_26
REMARK    6  A    between atoms: N_21  and  C_22
REMARK    7  A    between atoms: C_22  and  C_23
REMARK    8  A    between atoms: C_23  and  O_24
REMARK    9  A    between atoms: O_24  and  C_25
REMARK   10  A    between atoms: N_29  and  C_32
REMARK   11  A    between atoms: C_32  and  C_33
REMARK   12  A    between atoms: C_37  and  O_39
REMARK   13  A    between atoms: O_39  and  C_40
REMARK                            x       y       z     vdW  Elec       q    Type
REMARK                         _______ _______ _______ _____ _____    ______ ____
ROOT
ATOM      1  C   UNL     1       0.806   7.922  -4.924  0.00  0.00    +0.162 C 
ENDROOT
BRANCH   1   9
ATOM      2  C   UNL     1       4.915   6.043  -9.151  0.00  0.00    -0.047 A 
ATOM      3  C   UNL     1       6.048   6.444  -8.456  0.00  0.00    +0.005 A 
ATOM      4  C   UNL     1       5.939   7.050  -7.223  0.00  0.00    +0.026 A 
ATOM      5  C   UNL     1       4.681   7.261  -6.667  0.00  0.00    +0.049 A 
ATOM      6  C   UNL     1       3.535   6.852  -7.374  0.00  0.00    -0.001 A 
ATOM      7  C   UNL     1       3.670   6.240  -8.625  0.00  0.00    +0.013 A 
ATOM      8  C   UNL     1       2.217   7.074  -6.777  0.00  0.00    +0.021 A 
ATOM      9  C   UNL     1       2.148   7.676  -5.564  0.00  0.00    +0.042 A 
ATOM     10  C   UNL     1       3.328   8.066  -4.896  0.00  0.00    +0.254 A 
ATOM     11  O   UNL     1       3.243   8.602  -3.804  0.00  0.00    -0.268 OA
ATOM     12  N   UNL     1       4.543   7.863  -5.434  0.00  0.00    -0.322 N 
ATOM     13  H   UNL     1       5.435   8.184  -4.876  0.00  0.00    +0.169 HD
BRANCH   2  15
ATOM     14  C   UNL     1       5.043   6.452 -11.594  0.00  0.00    +0.009 C 
ATOM     15  C   UNL     1       5.060   5.383 -10.499  0.00  0.00    +0.032 C 
ENDBRANCH   2  15
ENDBRANCH   1   9
BRANCH   1  16
ATOM     16  N   UNL     1       0.743   7.224  -3.633  0.00  0.00    -0.286 NA
ATOM     17  C   UNL     1      -0.587   7.363  -3.023  0.00  0.00    +0.101 C 
ATOM     18  C   UNL     1      -0.587   6.691  -1.648  0.00  0.00    +0.100 C 
ATOM     19  N   UNL     1      -0.224   5.275  -1.797  0.00  0.00    -0.296 NA
ATOM     20  C   UNL     1       1.106   5.137  -2.407  0.00  0.00    +0.100 C 
ATOM     21  C   UNL     1       1.106   5.808  -3.782  0.00  0.00    +0.101 C 
BRANCH  19  22
ATOM     22  C   UNL     1      -0.286   4.577  -0.506  0.00  0.00    +0.119 C 
BRANCH  22  23
ATOM     23  C   UNL     1      -0.151   3.093  -0.731  0.00  0.00    -0.030 A 
ATOM     24  C   UNL     1       1.101   2.505  -0.726  0.00  0.00    +0.005 A 
ATOM     25  C   UNL     1       1.228   1.143  -0.932  0.00  0.00    +0.004 A 
ATOM     26  C   UNL     1       0.104   0.367  -1.143  0.00  0.00    +0.045 A 
ATOM     27  C   UNL     1      -1.152   0.956  -1.153  0.00  0.00    +0.120 A 
ATOM     28  C   UNL     1      -1.277   2.321  -0.940  0.00  0.00    +0.050 A 
BRANCH  27  29
ATOM     29  O   UNL     1      -2.258   0.196  -1.366  0.00  0.00    -0.495 OA
ATOM     30  C   UNL     1      -2.054  -1.204  -1.572  0.00  0.00    +0.277 C 
ENDBRANCH  27  29
ENDBRANCH  22  23
ENDBRANCH  19  22
ENDBRANCH   1  16
BRANCH   1  31
ATOM     31  C   UNL     1      -0.284   7.407  -5.827  0.00  0.00    +0.173 A 
ATOM     32  N   UNL     1      -0.613   6.152  -6.020  0.00  0.00    -0.111 NA
ATOM     33  N   UNL     1      -1.589   6.121  -6.860  0.00  0.00    -0.023 NA
ATOM     34  N   UNL     1      -1.893   7.323  -7.208  0.00  0.00    -0.044 NA
ATOM     35  N   UNL     1      -1.114   8.145  -6.588  0.00  0.00    -0.225 N 
BRANCH  35  36
ATOM     36  C   UNL     1      -1.128   9.605  -6.695  0.00  0.00    +0.175 C 
BRANCH  36  37
ATOM     37  C   UNL     1      -0.194  10.043  -7.826  0.00  0.00    +0.183 C 
BRANCH  37  38
ATOM     38  O   UNL     1      -0.207  11.468  -7.930  0.00  0.00    -0.381 OA
ATOM     39  C   UNL     1       0.637  11.983  -8.962  0.00  0.00    +0.194 C 
ENDBRANCH  37  38
ENDBRANCH  36  37
ENDBRANCH  35  36
ENDBRANCH   1  31
TORSDOF 10
