REMARK  Name = ZINC63934687
REMARK  7 active torsions:
REMARK  status: ('A' for Active; 'I' for Inactive)
REMARK    1  A    between atoms: C_6  and  C_10
REMARK    2  A    between atoms: C_10  and  C_11
REMARK    3  A    between atoms: C_11  and  N_12
REMARK    4  A    between atoms: C_13  and  C_15
REMARK    5  A    between atoms: C_15  and  C_16
REMARK    6  A    between atoms: C_16  and  N_17
REMARK    7  A    between atoms: C_24  and  N_28
REMARK                            x       y       z     vdW  Elec       q    Type
REMARK                         _______ _______ _______ _____ _____    ______ ____
ROOT
ATOM      1  N   UNL     1       3.466  -4.918  -2.499  0.00  0.00    -0.315 N 
ATOM      2  C   UNL     1       3.122  -6.204  -2.705  0.00  0.00    +0.215 C 
ATOM      3  O   UNL     1       2.439  -6.787  -1.890  0.00  0.00    -0.276 OA
ATOM      4  H   UNL     1       4.012  -4.451  -3.151  0.00  0.00    +0.149 HD
ENDROOT
BRANCH   1   5
ATOM      5  C   UNL     1       3.016  -4.223  -1.290  0.00  0.00    +0.108 C 
BRANCH   5   6
ATOM      6  C   UNL     1       3.542  -2.787  -1.302  0.00  0.00    +0.065 C 
BRANCH   6  12
ATOM      7  C   UNL     1      -0.016   1.344   0.009  0.00  0.00    +0.002 A 
ATOM      8  C   UNL     1       1.158   2.118   0.002  0.00  0.00    +0.002 A 
ATOM      9  C   UNL     1       2.389   1.570  -0.013  0.00  0.00    +0.027 A 
ATOM     10  C   UNL     1       2.533   0.108  -0.022  0.00  0.00    +0.060 A 
ATOM     11  N   UNL     1       3.569  -0.680  -0.036  0.00  0.00    -0.363 N 
ATOM     12  C   UNL     1       3.071  -2.062  -0.039  0.00  0.00    +0.175 C 
ATOM     13  N   UNL     1       1.606  -1.974  -0.024  0.00  0.00    -0.363 N 
ATOM     14  C   UNL     1       1.290  -0.712  -0.014  0.00  0.00    +0.060 A 
ATOM     15  C   UNL     1       0.002  -0.004   0.002  0.00  0.00    +0.027 A 
ATOM     16  H   UNL     1       4.499  -0.405  -0.045  0.00  0.00    +0.162 HD
ATOM     17  H   UNL     1       0.987  -2.721  -0.022  0.00  0.00    +0.162 HD
ENDBRANCH   6  12
ENDBRANCH   5   6
ENDBRANCH   1   5
BRANCH   2  18
ATOM     18  C   UNL     1       3.584  -6.918  -3.949  0.00  0.00    +0.115 C 
BRANCH  18  19
ATOM     19  C   UNL     1       3.059  -8.355  -3.938  0.00  0.00    +0.126 C 
BRANCH  19  20
ATOM     20  N   UNL     1       3.509  -9.049  -5.147  0.00  0.00    -0.234 N 
ATOM     21  C   UNL     1       2.830  -9.075  -6.307  0.00  0.00    +0.254 C 
ATOM     22  O   UNL     1       1.763  -8.534  -6.516  0.00  0.00    -0.270 OA
ATOM     23  C   UNL     1       3.600  -9.870  -7.287  0.00  0.00    +0.052 A 
ATOM     24  C   UNL     1       3.401 -10.232  -8.610  0.00  0.00    +0.014 A 
ATOM     25  C   UNL     1       4.347 -11.011  -9.258  0.00  0.00    +0.003 A 
ATOM     26  C   UNL     1       5.485 -11.429  -8.595  0.00  0.00    +0.033 A 
ATOM     27  C   UNL     1       5.697 -11.075  -7.271  0.00  0.00    +0.139 A 
ATOM     28  C   UNL     1       4.761 -10.296  -6.610  0.00  0.00    +0.080 A 
ATOM     29  C   UNL     1       4.659  -9.741  -5.244  0.00  0.00    +0.256 C 
ATOM     30  O   UNL     1       5.476  -9.886  -4.357  0.00  0.00    -0.269 OA
BRANCH  27  31
ATOM     31  N   UNL     1       6.918 -11.526  -6.568  0.00  0.00    +0.057 N 
ATOM     32  O   UNL     1       7.734 -12.205  -7.147  0.00  0.00    -0.126 OA
ATOM     33  O   UNL     1       7.101 -11.216  -5.413  0.00  0.00    -0.126 OA
ENDBRANCH  27  31
ENDBRANCH  19  20
ENDBRANCH  18  19
ENDBRANCH   2  18
TORSDOF 7
