REMARK  Name = ZINC48676071
REMARK  8 active torsions:
REMARK  status: ('A' for Active; 'I' for Inactive)
REMARK    1  A    between atoms: C_1  and  C_2
REMARK    2  A    between atoms: N_4  and  C_5
REMARK    3  A    between atoms: C_5  and  C_7
REMARK    4  A    between atoms: C_5  and  C_20
REMARK    5  A    between atoms: C_7  and  C_8
REMARK    6  A    between atoms: N_10  and  S_11
REMARK    7  A    between atoms: S_11  and  C_14
REMARK    8  A    between atoms: N_17  and  C_19
REMARK                            x       y       z     vdW  Elec       q    Type
REMARK                         _______ _______ _______ _____ _____    ______ ____
ROOT
ATOM      1  C   UNL     1      -0.073  -2.133  -1.237  0.00  0.00    +0.112 C 
ENDROOT
BRANCH   1   2
ATOM      2  C   UNL     1       1.106  -2.729  -0.512  0.00  0.00    -0.027 A 
ATOM      3  C   UNL     1       1.473  -2.240   0.728  0.00  0.00    +0.007 A 
ATOM      4  C   UNL     1       2.554  -2.787   1.394  0.00  0.00    +0.020 A 
ATOM      5  C   UNL     1       3.268  -3.823   0.820  0.00  0.00    +0.041 A 
ATOM      6  C   UNL     1       2.900  -4.312  -0.421  0.00  0.00    +0.020 A 
ATOM      7  C   UNL     1       1.816  -3.769  -1.084  0.00  0.00    +0.007 A 
ATOM      8 CL   UNL     1       4.626  -4.510   1.655  0.00  0.00    -0.084 Cl
ENDBRANCH   1   2
BRANCH   1  12
ATOM      9  C   UNL     1       0.713   1.509  -2.108  0.00  0.00    +0.109 C 
ATOM     10  C   UNL     1       0.723   0.002  -2.100  0.00  0.00    +0.210 C 
ATOM     11  O   UNL     1       1.376  -0.604  -2.922  0.00  0.00    -0.276 OA
ATOM     12  N   UNL     1       0.006  -0.671  -1.179  0.00  0.00    -0.308 N 
ATOM     13  H   UNL     1      -0.458  -0.189  -0.477  0.00  0.00    +0.149 HD
ENDBRANCH   1  12
BRANCH   1  14
ATOM     14  C   UNL     1      -1.370  -2.601  -0.574  0.00  0.00    +0.129 C 
BRANCH  14  15
ATOM     15  C   UNL     1      -2.549  -2.106  -1.372  0.00  0.00    +0.267 C 
ATOM     16  O   UNL     1      -3.804  -2.399  -0.973  0.00  0.00    -0.269 OA
ATOM     17  N   UNL     1      -2.358  -1.401  -2.436  0.00  0.00    -0.091 NA
BRANCH  17  18
ATOM     18  S   UNL     1      -3.653  -0.857  -3.312  0.00  0.00    +0.105 S 
ATOM     19  O   UNL     1      -4.288  -2.007  -3.855  0.00  0.00    -0.146 OA
ATOM     20  O   UNL     1      -4.339   0.074  -2.487  0.00  0.00    -0.146 OA
BRANCH  18  21
ATOM     21  C   UNL     1      -3.013   0.055  -4.677  0.00  0.00    +0.150 A 
ATOM     22  C   UNL     1      -2.731   1.425  -4.691  0.00  0.00    +0.163 A 
ATOM     23  N   UNL     1      -2.272   1.736  -5.876  0.00  0.00    -0.178 NA
ATOM     24  N   UNL     1      -2.246   0.572  -6.655  0.00  0.00    -0.273 N 
ATOM     25  C   UNL     1      -2.701  -0.446  -5.894  0.00  0.00    +0.137 A 
ATOM     26  C   UNL     1      -1.800   0.475  -8.047  0.00  0.00    +0.172 C 
ENDBRANCH  18  21
ENDBRANCH  17  18
ENDBRANCH  14  15
ENDBRANCH   1  14
TORSDOF 6
