REMARK  Name = ZINC12464334
REMARK  11 active torsions:
REMARK  status: ('A' for Active; 'I' for Inactive)
REMARK    1  A    between atoms: C_1  and  C_2
REMARK    2  A    between atoms: C_2  and  C_3
REMARK    3  A    between atoms: C_8  and  N_9
REMARK    4  A    between atoms: N_11  and  C_37
REMARK    5  A    between atoms: C_15  and  C_16
REMARK    6  A    between atoms: C_19  and  O_25
REMARK    7  A    between atoms: C_20  and  O_22
REMARK    8  A    between atoms: O_22  and  C_23
REMARK    9  A    between atoms: C_23  and  C_24
REMARK   10  A    between atoms: O_25  and  C_26
REMARK   11  A    between atoms: C_26  and  C_27
REMARK                            x       y       z     vdW  Elec       q    Type
REMARK                         _______ _______ _______ _____ _____    ______ ____
ROOT
ATOM      1  C   UNL     1       0.861   5.899   1.117  0.00  0.00    -0.020 A 
ATOM      2  C   UNL     1       2.064   6.547   1.422  0.00  0.00    +0.012 A 
ATOM      3  C   UNL     1       3.208   5.810   1.636  0.00  0.00    +0.050 A 
ATOM      4  C   UNL     1       3.172   4.425   1.550  0.00  0.00    +0.162 A 
ATOM      5  C   UNL     1       1.978   3.771   1.246  0.00  0.00    +0.162 A 
ATOM      6  C   UNL     1       0.827   4.502   1.025  0.00  0.00    +0.057 A 
ENDROOT
BRANCH   1  13
ATOM      7  N   UNL     1      -0.965  11.455  -1.397  0.00  0.00    -0.225 NA
ATOM      8  C   UNL     1      -0.592  10.292  -0.912  0.00  0.00    +0.168 C 
ATOM      9  N   UNL     1       0.643   9.686  -0.994  0.00  0.00    -0.249 N 
ATOM     10  C   UNL     1       0.851   8.501  -0.445  0.00  0.00    +0.259 C 
ATOM     11  O   UNL     1       1.935   7.952  -0.509  0.00  0.00    -0.269 OA
ATOM     12  C   UNL     1      -0.292   7.875   0.247  0.00  0.00    +0.078 C 
ATOM     13  C   UNL     1      -0.361   6.681   0.889  0.00  0.00    +0.028 C 
ATOM     14  S   UNL     1      -1.563   9.108   0.006  0.00  0.00    -0.049 S 
ATOM     15  C   UNL     1       1.737  10.362  -1.696  0.00  0.00    +0.140 C 
BRANCH   7  21
ATOM     16  C   UNL     1      -0.011  12.517  -3.321  0.00  0.00    -0.022 A 
ATOM     17  C   UNL     1       0.927  13.369  -3.865  0.00  0.00    +0.006 A 
ATOM     18  C   UNL     1       1.843  14.007  -3.046  0.00  0.00    +0.000 A 
ATOM     19  C   UNL     1       1.824  13.796  -1.679  0.00  0.00    +0.002 A 
ATOM     20  C   UNL     1       0.887  12.951  -1.122  0.00  0.00    +0.028 A 
ATOM     21  C   UNL     1      -0.036  12.299  -1.942  0.00  0.00    +0.070 A 
BRANCH  16  23
ATOM     22  C   UNL     1      -2.304  12.633  -4.258  0.00  0.00    +0.009 C 
ATOM     23  C   UNL     1      -1.008  11.823  -4.214  0.00  0.00    +0.034 C 
ENDBRANCH  16  23
ENDBRANCH   7  21
ENDBRANCH   1  13
BRANCH   5  24
ATOM     24  O   UNL     1       1.949   2.414   1.162  0.00  0.00    -0.489 OA
BRANCH  24  25
ATOM     25  C   UNL     1       0.692   1.811   0.848  0.00  0.00    +0.226 C 
ATOM     26  C   UNL     1       0.854   0.290   0.797  0.00  0.00    +0.048 C 
ENDBRANCH  24  25
ENDBRANCH   5  24
BRANCH   4  27
ATOM     27  O   UNL     1       4.304   3.703   1.762  0.00  0.00    -0.484 OA
BRANCH  27  28
ATOM     28  C   UNL     1       5.492   4.436   2.069  0.00  0.00    +0.264 C 
BRANCH  28  29
ATOM     29  C   UNL     1       6.636   3.476   2.270  0.00  0.00    -0.007 A 
ATOM     30  C   UNL     1       6.902   2.975   3.531  0.00  0.00    +0.011 A 
ATOM     31  C   UNL     1       7.947   2.090   3.720  0.00  0.00    +0.050 A 
ATOM     32  C   UNL     1       8.738   1.712   2.647  0.00  0.00    +0.166 A 
ATOM     33  C   UNL     1       8.473   2.220   1.378  0.00  0.00    +0.167 A 
ATOM     34  C   UNL     1       7.420   3.102   1.195  0.00  0.00    +0.056 A 
ATOM     35  O   UNL     1       9.382   1.701   0.502  0.00  0.00    -0.453 OA
ATOM     36  C   UNL     1      10.454   1.192   1.317  0.00  0.00    +0.466 C 
ATOM     37  O   UNL     1       9.812   0.874   2.566  0.00  0.00    -0.453 OA
ENDBRANCH  28  29
ENDBRANCH  27  28
ENDBRANCH   4  27
TORSDOF 8
