REMARK  Name = ZINC02197534
REMARK  11 active torsions:
REMARK  status: ('A' for Active; 'I' for Inactive)
REMARK    1  A    between atoms: C_1  and  C_2
REMARK    2  A    between atoms: C_3  and  C_31
REMARK    3  A    between atoms: C_4  and  N_10
REMARK    4  A    between atoms: C_6  and  C_7
REMARK    5  A    between atoms: C_7  and  C_9
REMARK    6  A    between atoms: N_10  and  C_11
REMARK    7  A    between atoms: C_12  and  C_13
REMARK    8  A    between atoms: C_12  and  C_15
REMARK    9  A    between atoms: C_17  and  C_20
REMARK   10  A    between atoms: C_31  and  O_33
REMARK   11  A    between atoms: O_33  and  C_34
REMARK                            x       y       z     vdW  Elec       q    Type
REMARK                         _______ _______ _______ _____ _____    ______ ____
ROOT
ATOM      1  C   UNL     1      -1.108   2.086  -0.201  0.00  0.00    +0.094 C 
ATOM      2  C   UNL     1       0.021   1.358   0.025  0.00  0.00    +0.098 C 
ENDROOT
BRANCH   2   3
ATOM      3  C   UNL     1       1.338   2.024   0.033  0.00  0.00    +0.120 A 
ATOM      4  N   UNL     1       1.895   2.792  -0.892  0.00  0.00    -0.238 NA
ATOM      5  C   UNL     1       3.096   3.316  -0.716  0.00  0.00    +0.086 A 
ATOM      6  C   UNL     1       3.783   3.049   0.440  0.00  0.00    +0.075 A 
ATOM      7  S   UNL     1       2.609   2.001   1.289  0.00  0.00    -0.074 S 
BRANCH   5   8
ATOM      8  C   UNL     1       3.697   4.176  -1.761  0.00  0.00    +0.086 A 
ATOM      9  C   UNL     1       3.017   4.441  -2.920  0.00  0.00    +0.028 A 
ATOM     10  C   UNL     1       3.655   5.302  -3.917  0.00  0.00    +0.018 A 
ATOM     11  C   UNL     1       3.000   5.606  -5.117  0.00  0.00    +0.011 A 
ATOM     12  C   UNL     1       3.611   6.407  -6.040  0.00  0.00    +0.001 A 
ATOM     13  C   UNL     1       4.877   6.921  -5.796  0.00  0.00    +0.004 A 
ATOM     14  C   UNL     1       5.538   6.634  -4.621  0.00  0.00    +0.047 A 
ATOM     15  C   UNL     1       4.937   5.821  -3.667  0.00  0.00    +0.139 A 
ATOM     16  O   UNL     1       5.581   5.535  -2.515  0.00  0.00    -0.422 OA
ATOM     17  C   UNL     1       5.031   4.754  -1.573  0.00  0.00    +0.347 A 
ATOM     18  O   UNL     1       5.647   4.522  -0.550  0.00  0.00    -0.244 OA
ENDBRANCH   5   8
ENDBRANCH   2   3
BRANCH   1  19
ATOM     19  N   UNL     1      -1.015   3.416  -0.511  0.00  0.00    -0.313 N 
ATOM     20  H   UNL     1      -0.145   3.823  -0.645  0.00  0.00    +0.152 HD
BRANCH  19  24
ATOM     21  C   UNL     1      -3.746   7.541  -1.331  0.00  0.00    +0.046 C 
ATOM     22  C   UNL     1      -3.536   6.085  -1.006  0.00  0.00    -0.017 A 
ATOM     23  C   UNL     1      -2.267   5.540  -0.934  0.00  0.00    +0.091 A 
ATOM     24  C   UNL     1      -2.156   4.176  -0.632  0.00  0.00    +0.084 A 
ATOM     25  S   UNL     1      -3.806   3.680  -0.441  0.00  0.00    -0.070 S 
ATOM     26  C   UNL     1      -4.606   5.241  -0.762  0.00  0.00    +0.060 A 
BRANCH  26  27
ATOM     27  C   UNL     1      -5.983   5.540  -0.766  0.00  0.00    +0.167 C 
ATOM     28  O   UNL     1      -6.358   6.670  -1.008  0.00  0.00    -0.292 OA
ATOM     29  C   UNL     1      -6.990   4.459  -0.471  0.00  0.00    +0.092 C 
ENDBRANCH  26  27
BRANCH  23  30
ATOM     30  C   UNL     1      -1.075   6.362  -1.171  0.00  0.00    +0.342 C 
ATOM     31  O   UNL     1      -0.626   6.472  -2.296  0.00  0.00    -0.245 OA
BRANCH  30  32
ATOM     32  O   UNL     1      -0.477   6.995  -0.142  0.00  0.00    -0.464 OA
ATOM     33  C   UNL     1       0.698   7.791  -0.451  0.00  0.00    +0.280 C 
ENDBRANCH  30  32
ENDBRANCH  23  30
ENDBRANCH  19  24
ENDBRANCH   1  19
BRANCH   2  34
ATOM     34  C   UNL     1      -0.069  -0.053   0.248  0.00  0.00    +0.103 C 
ATOM     35  N   UNL     1      -0.140  -1.173   0.426  0.00  0.00    -0.191 NA
ENDBRANCH   2  34
TORSDOF 8
