REMARK  Name = ZINC22419769
REMARK  9 active torsions:
REMARK  status: ('A' for Active; 'I' for Inactive)
REMARK    1  A    between atoms: C_1  and  C_2
REMARK    2  A    between atoms: C_2  and  C_3
REMARK    3  A    between atoms: N_10  and  C_13
REMARK    4  A    between atoms: C_13  and  N_14
REMARK    5  A    between atoms: N_17  and  C_20
REMARK    6  A    between atoms: C_20  and  C_21
REMARK    7  A    between atoms: C_24  and  C_26
REMARK    8  A    between atoms: C_29  and  O_32
REMARK    9  A    between atoms: O_32  and  C_33
REMARK                            x       y       z     vdW  Elec       q    Type
REMARK                         _______ _______ _______ _____ _____    ______ ____
ROOT
ATOM      1  N   UNL     1       3.061   5.862  -1.381  0.00  0.00    +0.393 N 
ATOM      2  C   UNL     1       4.388   5.613  -1.962  0.00  0.00    -0.061 C 
ATOM      3  C   UNL     1       4.395   6.065  -3.424  0.00  0.00    +0.066 C 
ATOM      4  N   UNL     1       4.051   7.492  -3.495  0.00  0.00    -0.300 NA
ATOM      5  C   UNL     1       2.724   7.741  -2.915  0.00  0.00    +0.066 C 
ATOM      6  C   UNL     1       2.717   7.289  -1.453  0.00  0.00    -0.061 C 
ATOM      7  H   UNL     1       2.321   5.304  -1.974  0.00  0.00    -0.079 HD
ENDROOT
BRANCH   1   8
ATOM      8  C   UNL     1       2.991   5.372   0.002  0.00  0.00    +0.051 C 
BRANCH   8  16
ATOM      9  C   UNL     1       0.002  -0.004   0.002  0.00  0.00    -0.008 A 
ATOM     10  C   UNL     1      -0.016   1.338   0.009  0.00  0.00    +0.026 A 
ATOM     11  C   UNL     1       1.240   2.064   0.001  0.00  0.00    +0.072 A 
ATOM     12  C   UNL     1       2.393   1.257  -0.014  0.00  0.00    +0.115 A 
ATOM     13  S   UNL     1       1.742  -0.393  -0.017  0.00  0.00    -0.073 S 
ATOM     14  N   UNL     1       3.616   1.779  -0.023  0.00  0.00    -0.230 NA
ATOM     15  C   UNL     1       3.796   3.072  -0.018  0.00  0.00    +0.201 A 
ATOM     16  N   UNL     1       2.742   3.929  -0.004  0.00  0.00    -0.316 N 
ATOM     17  C   UNL     1       1.474   3.478   0.006  0.00  0.00    +0.260 A 
ATOM     18  O   UNL     1       0.539   4.260   0.019  0.00  0.00    -0.267 OA
BRANCH   9  20
ATOM     19  C   UNL     1      -1.578  -1.268  -1.431  0.00  0.00    +0.009 C 
ATOM     20  C   UNL     1      -1.168  -0.954   0.009  0.00  0.00    +0.039 C 
ENDBRANCH   9  20
ENDBRANCH   8  16
ENDBRANCH   1   8
BRANCH   4  21
ATOM     21  C   UNL     1       4.121   7.982  -4.879  0.00  0.00    +0.140 C 
BRANCH  21  22
ATOM     22  C   UNL     1       5.396   7.497  -5.520  0.00  0.00    +0.063 A 
ATOM     23  C   UNL     1       5.394   6.358  -6.262  0.00  0.00    +0.071 A 
ATOM     24  S   UNL     1       7.112   6.281  -6.753  0.00  0.00    -0.075 S 
ATOM     25  C   UNL     1       7.646   7.766  -5.911  0.00  0.00    +0.109 A 
ATOM     26  N   UNL     1       6.511   8.171  -5.358  0.00  0.00    -0.243 NA
BRANCH  25  27
ATOM     27  C   UNL     1       8.990   8.377  -5.848  0.00  0.00    +0.007 A 
ATOM     28  C   UNL     1       9.190   9.557  -5.130  0.00  0.00    +0.014 A 
ATOM     29  C   UNL     1      10.446  10.122  -5.071  0.00  0.00    +0.046 A 
ATOM     30  C   UNL     1      11.510   9.523  -5.733  0.00  0.00    +0.120 A 
ATOM     31  C   UNL     1      11.314   8.352  -6.453  0.00  0.00    +0.046 A 
ATOM     32  C   UNL     1      10.062   7.779  -6.513  0.00  0.00    +0.014 A 
BRANCH  30  33
ATOM     33  O   UNL     1      12.745  10.085  -5.676  0.00  0.00    -0.495 OA
ATOM     34  C   UNL     1      12.876  11.290  -4.918  0.00  0.00    +0.277 C 
ENDBRANCH  30  33
ENDBRANCH  25  27
ENDBRANCH  21  22
ENDBRANCH   4  21
TORSDOF 7
