REMARK  Name = ZINC20385236
REMARK  6 active torsions:
REMARK  status: ('A' for Active; 'I' for Inactive)
REMARK    1  A    between atoms: C_1  and  S_2
REMARK    2  A    between atoms: S_2  and  C_3
REMARK    3  A    between atoms: C_6  and  C_9
REMARK    4  A    between atoms: C_9  and  C_10
REMARK    5  A    between atoms: C_10  and  N_11
REMARK    6  A    between atoms: C_12  and  C_14
REMARK                            x       y       z     vdW  Elec       q    Type
REMARK                         _______ _______ _______ _____ _____    ______ ____
ROOT
ATOM      1  C   UNL     1      -2.431   1.324   0.041  0.00  0.00    +0.039 A 
ATOM      2  C   UNL     1      -2.399  -0.073   0.035  0.00  0.00    +0.014 A 
ATOM      3  C   UNL     1      -1.187  -0.727   0.016  0.00  0.00    +0.017 A 
ATOM      4  C   UNL     1       0.002  -0.004   0.002  0.00  0.00    +0.034 A 
ATOM      5  C   UNL     1      -0.017   1.389   0.010  0.00  0.00    +0.048 A 
ATOM      6  C   UNL     1      -1.238   2.049   0.031  0.00  0.00    +0.037 A 
ATOM      7  N   UNL     1       1.145   2.149   0.003  0.00  0.00    -0.280 N 
ATOM      8  C   UNL     1       2.233   2.031  -0.711  0.00  0.00    +0.249 C 
ATOM      9  O   UNL     1       3.087   2.873  -0.509  0.00  0.00    -0.270 OA
ATOM     10  C   UNL     1       2.566   1.026  -1.720  0.00  0.00    +0.051 A 
ATOM     11  C   UNL     1       3.171   1.430  -2.918  0.00  0.00    +0.014 A 
ATOM     12  C   UNL     1       3.486   0.500  -3.882  0.00  0.00    +0.001 A 
ATOM     13  C   UNL     1       3.209  -0.843  -3.681  0.00  0.00    +0.001 A 
ATOM     14  C   UNL     1       2.614  -1.260  -2.507  0.00  0.00    +0.016 A 
ATOM     15  C   UNL     1       2.291  -0.334  -1.524  0.00  0.00    +0.025 A 
ATOM     16  S   UNL     1       1.536  -0.871  -0.026  0.00  0.00    -0.087 S 
ATOM     17  H   UNL     1       1.244   3.009   0.681  0.00  0.00    +0.155 HD
ENDROOT
BRANCH   1  19
ATOM     18  N   UNL     1      -4.877   1.332   0.073  0.00  0.00    -0.311 N 
ATOM     19  C   UNL     1      -3.725   2.032   0.061  0.00  0.00    +0.244 C 
ATOM     20  O   UNL     1      -3.753   3.248   0.066  0.00  0.00    -0.270 OA
ATOM     21  H   UNL     1      -4.851   0.232   0.069  0.00  0.00    +0.149 HD
BRANCH  18  22
ATOM     22  C   UNL     1      -6.162   2.035   0.093  0.00  0.00    +0.109 C 
BRANCH  22  23
ATOM     23  C   UNL     1      -7.301   1.014   0.105  0.00  0.00    +0.054 C 
BRANCH  23  27
ATOM     24  C   UNL     1     -11.051   3.066   0.163  0.00  0.00    +0.008 A 
ATOM     25  C   UNL     1     -10.456   2.736  -1.049  0.00  0.00    +0.015 A 
ATOM     26  C   UNL     1      -9.244   2.073  -1.064  0.00  0.00    +0.005 A 
ATOM     27  C   UNL     1      -8.623   1.738   0.125  0.00  0.00    -0.046 A 
ATOM     28  C   UNL     1      -9.215   2.059   1.333  0.00  0.00    +0.005 A 
ATOM     29  C   UNL     1     -10.424   2.726   1.356  0.00  0.00    +0.015 A 
BRANCH  24  31
ATOM     30  C   UNL     1     -12.958   4.115   1.952  0.00  0.00    +0.090 C 
ATOM     31  S   UNL     1     -12.596   3.912   0.186  0.00  0.00    -0.129 S 
ENDBRANCH  24  31
ENDBRANCH  23  27
ENDBRANCH  22  23
ENDBRANCH  18  22
ENDBRANCH   1  19
TORSDOF 5
