REMARK  Name = ZINC12310535
REMARK  13 active torsions:
REMARK  status: ('A' for Active; 'I' for Inactive)
REMARK    1  A    between atoms: C_1  and  C_2
REMARK    2  A    between atoms: C_2  and  O_3
REMARK    3  A    between atoms: O_3  and  C_4
REMARK    4  A    between atoms: C_4  and  C_5
REMARK    5  A    between atoms: C_5  and  N_6
REMARK    6  A    between atoms: C_9  and  C_36
REMARK    7  A    between atoms: C_10  and  C_35
REMARK    8  A    between atoms: N_15  and  C_16
REMARK    9  A    between atoms: C_16  and  C_18
REMARK   10  A    between atoms: N_21  and  S_24
REMARK   11  A    between atoms: S_24  and  C_27
REMARK   12  A    between atoms: C_30  and  O_33
REMARK   13  A    between atoms: O_33  and  C_34
REMARK                            x       y       z     vdW  Elec       q    Type
REMARK                         _______ _______ _______ _____ _____    ______ ____
ROOT
ATOM      1  C   UNL     1       1.401   1.607  -0.003  0.00  0.00    +0.242 C 
ATOM      2  O   UNL     1       1.781   2.316  -0.915  0.00  0.00    -0.273 OA
ENDROOT
BRANCH   1  12
ATOM      3  N   UNL     1       4.466   1.539   1.888  0.00  0.00    -0.319 N 
ATOM      4  C   UNL     1       5.714   2.106   1.708  0.00  0.00    +0.058 A 
ATOM      5  C   UNL     1       6.845   2.001   2.532  0.00  0.00    +0.030 A 
ATOM      6  C   UNL     1       8.018   2.636   2.200  0.00  0.00    -0.046 A 
ATOM      7  C   UNL     1       8.122   3.396   1.046  0.00  0.00    -0.046 A 
ATOM      8  C   UNL     1       7.022   3.515   0.215  0.00  0.00    +0.020 A 
ATOM      9  C   UNL     1       5.848   2.881   0.547  0.00  0.00    +0.039 A 
ATOM     10  S   UNL     1       4.247   2.763  -0.209  0.00  0.00    -0.052 S 
ATOM     11  C   UNL     1       3.482   1.752   0.975  0.00  0.00    +0.166 A 
ATOM     12  N   UNL     1       2.233   1.292   0.984  0.00  0.00    -0.156 NA
ATOM     13  C   UNL     1       9.417   4.083   0.701  0.00  0.00    +0.044 C 
ATOM     14  C   UNL     1       9.214   2.503   3.107  0.00  0.00    +0.044 C 
BRANCH   3  15
ATOM     15  C   UNL     1       4.204   0.707   3.065  0.00  0.00    +0.152 C 
BRANCH  15  16
ATOM     16  C   UNL     1       4.538  -0.751   2.743  0.00  0.00    +0.181 C 
BRANCH  16  17
ATOM     17  O   UNL     1       4.282  -1.563   3.891  0.00  0.00    -0.378 OA
BRANCH  17  19
ATOM     18  C   UNL     1       4.254  -3.719   4.983  0.00  0.00    +0.034 C 
ATOM     19  C   UNL     1       4.563  -2.950   3.696  0.00  0.00    +0.156 C 
ENDBRANCH  17  19
ENDBRANCH  16  17
ENDBRANCH  15  16
ENDBRANCH   3  15
ENDBRANCH   1  12
BRANCH   1  20
ATOM     20  C   UNL     1      -0.013   1.086   0.008  0.00  0.00    +0.080 C 
ATOM     21  C   UNL     1      -0.729   1.579   1.268  0.00  0.00    +0.030 C 
ATOM     22  C   UNL     1      -2.154   1.019   1.293  0.00  0.00    +0.110 C 
ATOM     23  N   UNL     1      -2.826   1.380   0.037  0.00  0.00    -0.177 NA
ATOM     24  C   UNL     1      -2.178   1.033  -1.236  0.00  0.00    +0.110 C 
ATOM     25  C   UNL     1      -0.752   1.593  -1.232  0.00  0.00    +0.030 C 
BRANCH  23  26
ATOM     26  S   UNL     1      -4.284   2.164   0.055  0.00  0.00    +0.061 S 
ATOM     27  O   UNL     1      -4.370   2.834   1.305  0.00  0.00    -0.153 OA
ATOM     28  O   UNL     1      -4.393   2.848  -1.185  0.00  0.00    -0.153 OA
BRANCH  26  29
ATOM     29  C   UNL     1      -5.540   0.927   0.060  0.00  0.00    +0.106 A 
ATOM     30  C   UNL     1      -6.047   0.454  -1.136  0.00  0.00    +0.032 A 
ATOM     31  C   UNL     1      -7.027  -0.519  -1.134  0.00  0.00    +0.047 A 
ATOM     32  C   UNL     1      -7.511  -1.014   0.068  0.00  0.00    +0.120 A 
ATOM     33  C   UNL     1      -7.005  -0.533   1.267  0.00  0.00    +0.047 A 
ATOM     34  C   UNL     1      -6.020   0.436   1.260  0.00  0.00    +0.032 A 
BRANCH  32  35
ATOM     35  O   UNL     1      -8.479  -1.968   0.072  0.00  0.00    -0.495 OA
ATOM     36  C   UNL     1      -8.954  -2.416  -1.199  0.00  0.00    +0.277 C 
ENDBRANCH  32  35
ENDBRANCH  26  29
ENDBRANCH  23  26
ENDBRANCH   1  20
TORSDOF 9
