REMARK  Name = ZINC65562915
REMARK  6 active torsions:
REMARK  status: ('A' for Active; 'I' for Inactive)
REMARK    1  A    between atoms: C_1  and  N_2
REMARK    2  A    between atoms: C_3  and  N_13
REMARK    3  A    between atoms: C_4  and  C_11
REMARK    4  A    between atoms: N_7  and  C_10
REMARK    5  A    between atoms: N_13  and  C_14
REMARK    6  A    between atoms: C_14  and  C_15
REMARK                            x       y       z     vdW  Elec       q    Type
REMARK                         _______ _______ _______ _____ _____    ______ ____
ROOT
ATOM      1  N   UNL     1      -2.366  -0.042  -0.193  0.00  0.00    -0.327 N 
ATOM      2  H   UNL     1      -3.188  -0.512   0.019  0.00  0.00    +0.148 HD
ENDROOT
BRANCH   1   5
ATOM      3  C   UNL     1      -2.440  -2.824  -0.040  0.00  0.00    +0.155 C 
ATOM      4  N   UNL     1      -1.182  -2.096  -0.225  0.00  0.00    -0.284 N 
ATOM      5  C   UNL     1      -1.193  -0.730  -0.294  0.00  0.00    +0.126 A 
ATOM      6  C   UNL     1       0.016  -0.049  -0.471  0.00  0.00    +0.154 A 
ATOM      7  C   UNL     1       1.213  -0.807  -0.571  0.00  0.00    +0.276 A 
ATOM      8  O   UNL     1       2.284  -0.250  -0.725  0.00  0.00    -0.266 OA
ATOM      9  N   UNL     1       1.149  -2.151  -0.494  0.00  0.00    -0.263 N 
ATOM     10  C   UNL     1      -0.027  -2.778  -0.319  0.00  0.00    +0.333 A 
ATOM     11  O   UNL     1      -0.047  -3.991  -0.249  0.00  0.00    -0.246 OA
ATOM     12  C   UNL     1       2.380  -2.940  -0.597  0.00  0.00    +0.157 C 
BRANCH   6  13
ATOM     13  C   UNL     1       0.047   1.381  -0.549  0.00  0.00    +0.108 C 
ATOM     14  N   UNL     1       0.071   2.515  -0.610  0.00  0.00    -0.191 NA
ENDBRANCH   6  13
ENDBRANCH   1   5
BRANCH   1  15
ATOM     15  C   UNL     1      -2.386   1.408  -0.405  0.00  0.00    +0.125 C 
BRANCH  15  16
ATOM     16  C   UNL     1      -3.829   1.912  -0.348  0.00  0.00    +0.088 C 
ATOM     17  C   UNL     1      -3.848   3.444  -0.424  0.00  0.00    +0.028 C 
ATOM     18  C   UNL     1      -5.300   3.921  -0.435  0.00  0.00    +0.039 C 
ATOM     19  C   UNL     1      -6.066   3.303   0.705  0.00  0.00    -0.026 A 
ATOM     20  C   UNL     1      -7.236   3.909   1.132  0.00  0.00    +0.005 A 
ATOM     21  C   UNL     1      -7.962   3.366   2.174  0.00  0.00    +0.000 A 
ATOM     22  C   UNL     1      -7.526   2.211   2.797  0.00  0.00    +0.002 A 
ATOM     23  C   UNL     1      -6.361   1.601   2.378  0.00  0.00    +0.023 A 
ATOM     24  C   UNL     1      -5.627   2.147   1.331  0.00  0.00    +0.031 A 
ATOM     25  N   UNL     1      -4.444   1.517   0.927  0.00  0.00    -0.339 N 
ATOM     26  H   UNL     1      -4.037   0.831   1.479  0.00  0.00    +0.146 HD
ENDBRANCH  15  16
ENDBRANCH   1  15
TORSDOF 4
