REMARK  Name = ZINC25718692
REMARK  6 active torsions:
REMARK  status: ('A' for Active; 'I' for Inactive)
REMARK    1  A    between atoms: C_1  and  C_2
REMARK    2  A    between atoms: C_2  and  C_4
REMARK    3  A    between atoms: C_7  and  N_10
REMARK    4  A    between atoms: C_14  and  N_18
REMARK    5  A    between atoms: N_21  and  C_24
REMARK    6  A    between atoms: C_27  and  N_30
REMARK                            x       y       z     vdW  Elec       q    Type
REMARK                         _______ _______ _______ _____ _____    ______ ____
ROOT
ATOM      1  N   UNL     1      -4.814  -2.941  -0.019  0.00  0.00    -0.209 N 
ATOM      2  C   UNL     1      -6.000  -2.330   0.088  0.00  0.00    +0.228 C 
ATOM      3  O   UNL     1      -6.168  -1.132   0.172  0.00  0.00    -0.275 OA
ATOM      4  C   UNL     1      -7.098  -3.371   0.086  0.00  0.00    +0.125 C 
ATOM      5  C   UNL     1      -6.332  -4.704  -0.041  0.00  0.00    +0.153 C 
ATOM      6  C   UNL     1      -4.882  -4.275  -0.104  0.00  0.00    +0.244 C 
ATOM      7  O   UNL     1      -3.933  -5.021  -0.212  0.00  0.00    -0.273 OA
ENDROOT
BRANCH   1  11
ATOM      8  C   UNL     1      -1.204  -0.857  -0.099  0.00  0.00    +0.017 A 
ATOM      9  C   UNL     1      -1.540  -1.719  -1.149  0.00  0.00    +0.013 A 
ATOM     10  C   UNL     1      -2.733  -2.405  -1.119  0.00  0.00    +0.024 A 
ATOM     11  C   UNL     1      -3.604  -2.243  -0.046  0.00  0.00    +0.044 A 
ATOM     12  C   UNL     1      -3.273  -1.387   1.001  0.00  0.00    +0.024 A 
ATOM     13  C   UNL     1      -2.080  -0.701   0.982  0.00  0.00    +0.013 A 
BRANCH   8  15
ATOM     14  C   UNL     1       1.010  -0.291  -1.291  0.00  0.00    +0.091 C 
ATOM     15  C   UNL     1       0.068  -0.122  -0.127  0.00  0.00    +0.160 C 
ATOM     16  O   UNL     1       0.360   0.621   0.786  0.00  0.00    -0.292 OA
ENDBRANCH   8  15
ENDBRANCH   1  11
BRANCH   5  17
ATOM     17  N   UNL     1      -6.577  -5.555   1.131  0.00  0.00    -0.288 NA
ATOM     18  C   UNL     1      -6.121  -4.898   2.363  0.00  0.00    +0.104 C 
ATOM     19  C   UNL     1      -6.556  -5.732   3.573  0.00  0.00    +0.120 C 
ATOM     20  N   UNL     1      -6.075  -7.110   3.388  0.00  0.00    -0.327 N 
ATOM     21  C   UNL     1      -6.376  -7.787   2.118  0.00  0.00    +0.120 C 
ATOM     22  C   UNL     1      -5.948  -6.872   0.965  0.00  0.00    +0.104 C 
BRANCH  20  23
ATOM     23  C   UNL     1      -5.351  -7.757   4.392  0.00  0.00    +0.030 A 
ATOM     24  C   UNL     1      -5.189  -7.154   5.633  0.00  0.00    +0.025 A 
ATOM     25  C   UNL     1      -4.473  -7.797   6.623  0.00  0.00    +0.034 A 
ATOM     26  C   UNL     1      -3.918  -9.040   6.381  0.00  0.00    +0.126 A 
ATOM     27  C   UNL     1      -4.077  -9.643   5.147  0.00  0.00    +0.034 A 
ATOM     28  C   UNL     1      -4.796  -9.008   4.154  0.00  0.00    +0.025 A 
BRANCH  26  29
ATOM     29  N   UNL     1      -3.151  -9.727   7.445  0.00  0.00    +0.056 N 
ATOM     30  O   UNL     1      -3.010  -9.200   8.524  0.00  0.00    -0.126 OA
ATOM     31  O   UNL     1      -2.665 -10.813   7.234  0.00  0.00    -0.126 OA
ENDBRANCH  26  29
ENDBRANCH  20  23
ENDBRANCH   5  17
TORSDOF 5
