REMARK  Name = ZINC40058309
REMARK  8 active torsions:
REMARK  status: ('A' for Active; 'I' for Inactive)
REMARK    1  A    between atoms: C_1  and  C_2
REMARK    2  A    between atoms: C_2  and  C_3
REMARK    3  A    between atoms: C_5  and  C_8
REMARK    4  A    between atoms: C_8  and  C_10
REMARK    5  A    between atoms: C_8  and  N_11
REMARK    6  A    between atoms: N_14  and  S_17
REMARK    7  A    between atoms: S_17  and  C_20
REMARK    8  A    between atoms: C_25  and  N_26
REMARK                            x       y       z     vdW  Elec       q    Type
REMARK                         _______ _______ _______ _____ _____    ______ ____
ROOT
ATOM      1  N   UNL     1       1.991  -2.782   3.945  0.00  0.00    -0.289 NA
ATOM      2  C   UNL     1       1.176  -2.941   5.157  0.00  0.00    +0.102 C 
ATOM      3  C   UNL     1       1.303  -4.380   5.668  0.00  0.00    +0.125 C 
ATOM      4  N   UNL     1       2.730  -4.694   5.833  0.00  0.00    -0.174 NA
ATOM      5  C   UNL     1       3.635  -4.430   4.704  0.00  0.00    +0.125 C 
ATOM      6  C   UNL     1       3.417  -2.989   4.231  0.00  0.00    +0.102 C 
ENDROOT
BRANCH   4   7
ATOM      7  S   UNL     1       3.303  -5.327   7.252  0.00  0.00    +0.063 S 
ATOM      8  O   UNL     1       4.675  -4.965   7.333  0.00  0.00    -0.153 OA
ATOM      9  O   UNL     1       2.363  -4.981   8.260  0.00  0.00    -0.153 OA
BRANCH   7  10
ATOM     10  C   UNL     1       3.253  -7.081   7.098  0.00  0.00    +0.136 A 
ATOM     11  C   UNL     1       3.066  -7.661   5.856  0.00  0.00    +0.031 A 
ATOM     12  C   UNL     1       3.026  -9.037   5.735  0.00  0.00    +0.002 A 
ATOM     13  C   UNL     1       3.174  -9.834   6.855  0.00  0.00    +0.002 A 
ATOM     14  C   UNL     1       3.362  -9.255   8.096  0.00  0.00    +0.035 A 
ATOM     15  C   UNL     1       3.406  -7.878   8.216  0.00  0.00    +0.152 A 
BRANCH  15  16
ATOM     16  N   UNL     1       3.612  -7.258   9.544  0.00  0.00    +0.058 N 
ATOM     17  O   UNL     1       3.629  -7.947  10.537  0.00  0.00    -0.126 OA
ATOM     18  O   UNL     1       3.764  -6.062   9.636  0.00  0.00    -0.126 OA
ENDBRANCH  15  16
ENDBRANCH   7  10
ENDBRANCH   4   7
BRANCH   1  19
ATOM     19  C   UNL     1       1.763  -1.469   3.327  0.00  0.00    +0.143 C 
ATOM     20  C   UNL     1       0.298  -1.354   2.899  0.00  0.00    +0.034 C 
BRANCH  19  23
ATOM     21  C   UNL     1       4.035  -0.482   0.680  0.00  0.00    +0.172 A 
ATOM     22  N   UNL     1       3.365  -0.271   1.819  0.00  0.00    -0.195 NA
ATOM     23  C   UNL     1       2.652  -1.321   2.119  0.00  0.00    +0.244 A 
ATOM     24  O   UNL     1       2.847  -2.246   1.171  0.00  0.00    -0.336 OA
ATOM     25  N   UNL     1       3.750  -1.672   0.237  0.00  0.00    -0.061 NA
BRANCH  21  27
ATOM     26  C   UNL     1       4.167   1.377  -0.956  0.00  0.00    +0.012 C 
ATOM     27  C   UNL     1       4.962   0.502   0.015  0.00  0.00    +0.076 C 
ENDBRANCH  21  27
ENDBRANCH  19  23
ENDBRANCH   1  19
TORSDOF 6
