REMARK  Name = ZINC25257088
REMARK  5 active torsions:
REMARK  status: ('A' for Active; 'I' for Inactive)
REMARK    1  A    between atoms: C_4  and  C_8
REMARK    2  A    between atoms: N_10  and  N_11
REMARK    3  A    between atoms: C_12  and  C_14
REMARK    4  A    between atoms: C_14  and  N_15
REMARK    5  A    between atoms: C_16  and  C_18
REMARK                            x       y       z     vdW  Elec       q    Type
REMARK                         _______ _______ _______ _____ _____    ______ ____
ROOT
ATOM      1  N   UNL     1      -8.506   0.978   2.543  0.00  0.00    -0.233 N 
ATOM      2  C   UNL     1      -7.222   1.323   2.320  0.00  0.00    +0.246 C 
ATOM      3  O   UNL     1      -6.635   2.023   3.116  0.00  0.00    -0.273 OA
ATOM      4  H   UNL     1      -9.039   0.343   1.821  0.00  0.00    +0.173 HD
ENDROOT
BRANCH   1   7
ATOM      5  C   UNL     1     -10.445   1.086   3.920  0.00  0.00    +0.262 C 
ATOM      6  O   UNL     1     -11.034   0.383   3.121  0.00  0.00    -0.269 OA
ATOM      7  N   UNL     1      -9.162   1.430   3.696  0.00  0.00    -0.230 N 
ATOM      8  H   UNL     1      -8.629   2.066   4.418  0.00  0.00    +0.173 HD
BRANCH   5  12
ATOM      9  C   UNL     1     -12.435   2.456   7.415  0.00  0.00    +0.021 A 
ATOM     10  C   UNL     1     -13.108   1.656   6.509  0.00  0.00    +0.022 A 
ATOM     11  C   UNL     1     -12.468   1.207   5.370  0.00  0.00    +0.053 A 
ATOM     12  C   UNL     1     -11.137   1.562   5.135  0.00  0.00    +0.058 A 
ATOM     13  C   UNL     1     -10.462   2.365   6.057  0.00  0.00    +0.034 A 
ATOM     14  C   UNL     1     -11.116   2.811   7.188  0.00  0.00    +0.042 A 
ATOM     15 CL   UNL     1     -10.281   3.814   8.332  0.00  0.00    -0.084 Cl
ATOM     16 CL   UNL     1     -13.315   0.205   4.234  0.00  0.00    -0.083 Cl
ENDBRANCH   5  12
ENDBRANCH   1   7
BRANCH   2  17
ATOM     17  C   UNL     1      -6.517   0.837   1.080  0.00  0.00    +0.201 C 
BRANCH  17  18
ATOM     18  N   UNL     1      -5.143   1.344   1.069  0.00  0.00    -0.306 N 
ATOM     19  C   UNL     1      -4.318   1.035   0.049  0.00  0.00    +0.220 C 
ATOM     20  O   UNL     1      -4.714   0.337  -0.861  0.00  0.00    -0.275 OA
ATOM     21  H   UNL     1      -4.784   1.976   1.894  0.00  0.00    +0.149 HD
BRANCH  19  22
ATOM     22  C   UNL     1      -2.904   1.556   0.038  0.00  0.00    +0.048 C 
ATOM     23  C   UNL     1      -2.188   1.063  -1.221  0.00  0.00    +0.019 C 
ATOM     24  C   UNL     1      -0.753   1.593  -1.232  0.00  0.00    -0.009 C 
ATOM     25  C   UNL     1      -0.013   1.086   0.008  0.00  0.00    +0.007 C 
ATOM     26  C   UNL     1      -0.729   1.579   1.267  0.00  0.00    -0.009 C 
ATOM     27  C   UNL     1      -2.164   1.050   1.278  0.00  0.00    +0.019 C 
ATOM     28  C   UNL     1      -0.750   3.109   1.275  0.00  0.00    +0.007 C 
ATOM     29  C   UNL     1      -1.490   3.616   0.036  0.00  0.00    -0.009 C 
ATOM     30  C   UNL     1      -0.773   3.123  -1.223  0.00  0.00    +0.007 C 
ATOM     31  C   UNL     1      -2.925   3.086   0.047  0.00  0.00    +0.019 C 
ENDBRANCH  19  22
ENDBRANCH  17  18
ENDBRANCH   2  17
TORSDOF 5
