REMARK  Name = ZINC19946004
REMARK  12 active torsions:
REMARK  status: ('A' for Active; 'I' for Inactive)
REMARK    1  A    between atoms: C_1  and  C_2
REMARK    2  A    between atoms: C_5  and  S_8
REMARK    3  A    between atoms: S_8  and  N_11
REMARK    4  A    between atoms: N_11  and  C_12
REMARK    5  A    between atoms: N_11  and  C_19
REMARK    6  A    between atoms: C_12  and  C_13
REMARK    7  A    between atoms: C_24  and  C_25
REMARK    8  A    between atoms: N_27  and  N_28
REMARK    9  A    between atoms: C_32  and  C_35
REMARK   10  A    between atoms: C_35  and  C_36
REMARK   11  A    between atoms: C_35  and  C_37
REMARK   12  A    between atoms: C_35  and  C_38
REMARK                            x       y       z     vdW  Elec       q    Type
REMARK                         _______ _______ _______ _____ _____    ______ ____
ROOT
ATOM      1  C   UNL     1       2.310  -5.083  -1.254  0.00  0.00    +0.064 A 
ATOM      2  C   UNL     1       2.388  -6.297  -1.925  0.00  0.00    +0.025 A 
ATOM      3  C   UNL     1       3.065  -6.383  -3.124  0.00  0.00    +0.002 A 
ATOM      4  C   UNL     1       3.671  -5.262  -3.669  0.00  0.00    +0.001 A 
ATOM      5  C   UNL     1       3.605  -4.049  -3.020  0.00  0.00    +0.015 A 
ATOM      6  C   UNL     1       2.918  -3.945  -1.807  0.00  0.00    +0.061 A 
ENDROOT
BRANCH   6   7
ATOM      7  C   UNL     1       2.838  -2.649  -1.109  0.00  0.00    +0.265 C 
ATOM      8  O   UNL     1       2.338  -2.583  -0.003  0.00  0.00    -0.268 OA
ATOM      9  N   UNL     1       3.321  -1.536  -1.697  0.00  0.00    -0.203 N 
ATOM     10  H   UNL     1       3.720  -1.588  -2.579  0.00  0.00    +0.178 HD
BRANCH   9  11
ATOM     11  N   UNL     1       3.245  -0.304  -1.034  0.00  0.00    -0.189 NA
ATOM     12  C   UNL     1       3.790   0.734  -1.547  0.00  0.00    +0.037 C 
ATOM     13  C   UNL     1       4.419   0.680  -2.922  0.00  0.00    +0.053 C 
ATOM     14  C   UNL     1       5.839   1.248  -2.831  0.00  0.00    +0.010 C 
ATOM     15  C   UNL     1       5.788   2.648  -2.216  0.00  0.00    -0.005 C 
ATOM     16  C   UNL     1       5.264   2.565  -0.781  0.00  0.00    +0.010 C 
ATOM     17  C   UNL     1       3.817   2.047  -0.797  0.00  0.00    +0.053 C 
BRANCH  15  18
ATOM     18  C   UNL     1       7.193   3.252  -2.210  0.00  0.00    -0.035 C 
ATOM     19  C   UNL     1       7.715   3.344  -3.645  0.00  0.00    +0.011 C 
ATOM     20  C   UNL     1       7.144   4.652  -1.595  0.00  0.00    +0.011 C 
ATOM     21  C   UNL     1       8.126   2.365  -1.384  0.00  0.00    +0.011 C 
ENDBRANCH  15  18
ENDBRANCH   9  11
ENDBRANCH   6   7
BRANCH   1  22
ATOM     22  N   UNL     1       1.629  -4.994  -0.047  0.00  0.00    -0.198 N 
BRANCH  22  23
ATOM     23  S   UNL     1       2.462  -5.081   1.382  0.00  0.00    +0.075 S 
ATOM     24  O   UNL     1       1.723  -4.324   2.330  0.00  0.00    -0.150 OA
ATOM     25  O   UNL     1       3.822  -4.802   1.077  0.00  0.00    -0.150 OA
BRANCH  23  30
ATOM     26  C   UNL     1       2.255 -10.823   3.224  0.00  0.00    +0.044 C 
ATOM     27  C   UNL     1       2.307  -9.389   2.764  0.00  0.00    -0.050 A 
ATOM     28  C   UNL     1       3.339  -8.961   1.950  0.00  0.00    +0.005 A 
ATOM     29  C   UNL     1       3.386  -7.646   1.528  0.00  0.00    +0.029 A 
ATOM     30  C   UNL     1       2.401  -6.758   1.919  0.00  0.00    +0.109 A 
ATOM     31  C   UNL     1       1.369  -7.186   2.732  0.00  0.00    +0.029 A 
ATOM     32  C   UNL     1       1.319  -8.502   3.151  0.00  0.00    +0.005 A 
ENDBRANCH  23  30
ENDBRANCH  22  23
BRANCH  22  33
ATOM     33  C   UNL     1       0.174  -4.823  -0.037  0.00  0.00    +0.166 C 
BRANCH  33  34
ATOM     34  C   UNL     1      -0.161  -3.360  -0.168  0.00  0.00    -0.028 A 
ATOM     35  C   UNL     1      -0.288  -2.576   0.963  0.00  0.00    +0.005 A 
ATOM     36  C   UNL     1      -0.595  -1.234   0.843  0.00  0.00    +0.000 A 
ATOM     37  C   UNL     1      -0.775  -0.675  -0.408  0.00  0.00    +0.000 A 
ATOM     38  C   UNL     1      -0.647  -1.459  -1.540  0.00  0.00    +0.000 A 
ATOM     39  C   UNL     1      -0.335  -2.800  -1.420  0.00  0.00    +0.005 A 
ENDBRANCH  33  34
ENDBRANCH  22  33
ENDBRANCH   1  22
TORSDOF 8
