REMARK  Name = ZINC19832544
REMARK  4 active torsions:
REMARK  status: ('A' for Active; 'I' for Inactive)
REMARK    1  A    between atoms: C_1  and  C_2
REMARK    2  A    between atoms: C_5  and  N_8
REMARK    3  A    between atoms: C_12  and  C_13
REMARK    4  A    between atoms: C_23  and  C_25
REMARK                            x       y       z     vdW  Elec       q    Type
REMARK                         _______ _______ _______ _____ _____    ______ ____
ROOT
ATOM      1  N   UNL     1       5.246   7.205  -0.247  0.00  0.00    -0.156 N 
ATOM      2  C   UNL     1       4.087   6.528  -0.123  0.00  0.00    +0.272 C 
ATOM      3  O   UNL     1       2.966   7.001  -0.035  0.00  0.00    -0.268 OA
ATOM      4  C   UNL     1       4.448   5.104  -0.118  0.00  0.00    +0.062 C 
ATOM      5  C   UNL     1       3.591   4.014  -0.011  0.00  0.00    +0.025 C 
ATOM      6  C   UNL     1       5.911   5.083  -0.244  0.00  0.00    +0.069 C 
ATOM      7  N   UNL     1       6.316   6.314  -0.321  0.00  0.00    -0.177 NA
ATOM      8  C   UNL     1       6.784   3.855  -0.283  0.00  0.00    +0.068 C 
ENDROOT
BRANCH   5   9
ATOM      9  C   UNL     1       2.196   4.207  -0.053  0.00  0.00    +0.001 A 
ATOM     10  C   UNL     1       1.507   5.141  -0.809  0.00  0.00    +0.091 A 
ATOM     11  N   UNL     1       0.186   5.019  -0.581  0.00  0.00    -0.360 N 
ATOM     12  H   UNL     1      -0.524   5.681  -1.097  0.00  0.00    +0.165 HD
ATOM     13  C   UNL     1      -0.063   4.009   0.328  0.00  0.00    +0.047 A 
ATOM     14  C   UNL     1       1.172   3.455   0.701  0.00  0.00    +0.007 A 
ATOM     15  C   UNL     1       1.221   2.408   1.615  0.00  0.00    +0.010 A 
ATOM     16  C   UNL     1       0.051   1.917   2.154  0.00  0.00    +0.001 A 
ATOM     17  C   UNL     1      -1.171   2.458   1.783  0.00  0.00    +0.002 A 
ATOM     18  C   UNL     1      -1.233   3.500   0.883  0.00  0.00    +0.026 A 
ENDBRANCH   5   9
BRANCH   1  23
ATOM     19  C   UNL     1       5.702  12.858  -0.439  0.00  0.00    +0.044 C 
ATOM     20  C   UNL     1       5.581  11.357  -0.388  0.00  0.00    -0.050 A 
ATOM     21  C   UNL     1       6.715  10.570  -0.471  0.00  0.00    +0.005 A 
ATOM     22  C   UNL     1       6.608   9.194  -0.424  0.00  0.00    +0.026 A 
ATOM     23  C   UNL     1       5.359   8.601  -0.294  0.00  0.00    +0.060 A 
ATOM     24  C   UNL     1       4.221   9.394  -0.217  0.00  0.00    +0.026 A 
ATOM     25  C   UNL     1       4.336  10.769  -0.259  0.00  0.00    +0.005 A 
ENDBRANCH   1  23
TORSDOF 2
