REMARK  Name = ZINC15840383
REMARK  5 active torsions:
REMARK  status: ('A' for Active; 'I' for Inactive)
REMARK    1  A    between atoms: C_10  and  C_11
REMARK    2  A    between atoms: C_11  and  N_13
REMARK    3  A    between atoms: C_11  and  S_14
REMARK    4  A    between atoms: S_14  and  C_15
REMARK    5  A    between atoms: N_18  and  C_22
REMARK                            x       y       z     vdW  Elec       q    Type
REMARK                         _______ _______ _______ _____ _____    ______ ____
ROOT
ATOM      1  S   UNL     1      -0.888   1.685  -1.458  0.00  0.00    -0.082 S 
ENDROOT
BRANCH   1   2
ATOM      2  C   UNL     1      -1.685   0.199  -1.968  0.00  0.00    +0.109 A 
ATOM      3  C   UNL     1      -2.513   0.194  -3.112  0.00  0.00    +0.004 A 
ATOM      4  C   UNL     1      -3.110  -0.960  -3.484  0.00  0.00    +0.029 A 
ATOM      5  N   UNL     1      -2.904  -2.086  -2.738  0.00  0.00    -0.293 N 
ATOM      6  C   UNL     1      -2.113  -2.048  -1.651  0.00  0.00    +0.350 A 
ATOM      7  O   UNL     1      -1.942  -3.065  -0.999  0.00  0.00    -0.244 OA
ATOM      8  N   UNL     1      -1.515  -0.920  -1.275  0.00  0.00    -0.186 NA
ATOM      9  C   UNL     1      -3.939  -0.743  -4.730  0.00  0.00    +0.054 C 
ATOM     10  C   UNL     1      -4.127   0.791  -4.822  0.00  0.00    +0.011 C 
ATOM     11  C   UNL     1      -2.882   1.307  -4.067  0.00  0.00    +0.040 C 
BRANCH   5  12
ATOM     12  C   UNL     1      -3.549  -3.343  -3.126  0.00  0.00    +0.092 C 
ATOM     13  C   UNL     1      -4.425  -3.866  -1.969  0.00  0.00    +0.025 C 
ATOM     14  C   UNL     1      -4.245  -5.404  -2.023  0.00  0.00    +0.002 C 
ATOM     15  C   UNL     1      -2.749  -5.562  -2.391  0.00  0.00    +0.002 C 
ATOM     16  C   UNL     1      -2.484  -4.420  -3.395  0.00  0.00    +0.025 C 
ENDBRANCH   5  12
ENDBRANCH   1   2
BRANCH   1  17
ATOM     17  C   UNL     1      -0.013   1.086   0.008  0.00  0.00    +0.147 C 
BRANCH  17  27
ATOM     18  C   UNL     1       4.525  -0.691  -1.559  0.00  0.00    +0.001 A 
ATOM     19  C   UNL     1       3.224  -1.191  -1.557  0.00  0.00    +0.001 A 
ATOM     20  C   UNL     1       2.192  -0.458  -1.056  0.00  0.00    +0.009 A 
ATOM     21  C   UNL     1       2.440   0.822  -0.530  0.00  0.00    -0.012 A 
ATOM     22  C   UNL     1       3.763   1.330  -0.531  0.00  0.00    -0.018 A 
ATOM     23  C   UNL     1       4.802   0.543  -1.058  0.00  0.00    +0.008 A 
ATOM     24  C   UNL     1       4.011   2.609  -0.006  0.00  0.00    +0.008 A 
ATOM     25  C   UNL     1       2.979   3.342   0.496  0.00  0.00    +0.001 A 
ATOM     26  C   UNL     1       1.678   2.845   0.494  0.00  0.00    +0.006 A 
ATOM     27  C   UNL     1       1.401   1.607  -0.003  0.00  0.00    -0.013 A 
ENDBRANCH  17  27
BRANCH  17  28
ATOM     28  N   UNL     1      -0.700   1.560   1.217  0.00  0.00    -0.315 NA
ATOM     29  H   UNL     1      -1.732   1.179   1.224  0.00  0.00    +0.120 HD
ATOM     30  H   UNL     1      -0.168   1.195   2.108  0.00  0.00    +0.120 HD
ENDBRANCH  17  28
ENDBRANCH   1  17
TORSDOF 5
