REMARK  Name = ZINC20558578
REMARK  6 active torsions:
REMARK  status: ('A' for Active; 'I' for Inactive)
REMARK    1  A    between atoms: C_1  and  C_2
REMARK    2  A    between atoms: C_5  and  C_8
REMARK    3  A    between atoms: C_8  and  N_9
REMARK    4  A    between atoms: C_21  and  C_29
REMARK    5  A    between atoms: C_23  and  C_27
REMARK    6  A    between atoms: C_24  and  N_26
REMARK                            x       y       z     vdW  Elec       q    Type
REMARK                         _______ _______ _______ _____ _____    ______ ____
ROOT
ATOM      1  N   UNL     1       1.157   4.074   1.394  0.00  0.00    -0.198 N 
ATOM      2  C   UNL     1      -0.028   4.205   2.128  0.00  0.00    +0.062 A 
ATOM      3  C   UNL     1      -1.203   4.503   1.455  0.00  0.00    +0.025 A 
ATOM      4  C   UNL     1      -2.387   4.643   2.152  0.00  0.00    +0.002 A 
ATOM      5  C   UNL     1      -2.404   4.482   3.527  0.00  0.00    +0.001 A 
ATOM      6  C   UNL     1      -1.246   4.178   4.208  0.00  0.00    +0.013 A 
ATOM      7  C   UNL     1      -0.037   4.030   3.515  0.00  0.00    +0.042 A 
ATOM      8  C   UNL     1       1.174   3.695   4.300  0.00  0.00    +0.162 C 
ATOM      9  C   UNL     1       2.397   3.862   3.804  0.00  0.00    +0.141 C 
ATOM     10  S   UNL     1       2.573   4.496   2.162  0.00  0.00    +0.076 S 
ATOM     11  O   UNL     1       3.617   3.759   1.542  0.00  0.00    -0.150 OA
ATOM     12  O   UNL     1       2.584   5.913   2.263  0.00  0.00    -0.150 OA
ATOM     13  C   UNL     1       3.627   3.526   4.601  0.00  0.00    +0.121 C 
ATOM     14  C   UNL     1       3.270   2.625   5.751  0.00  0.00    +0.099 C 
ATOM     15  C   UNL     1       1.981   2.518   6.161  0.00  0.00    +0.199 C 
ATOM     16  O   UNL     1       1.000   3.209   5.558  0.00  0.00    -0.439 OA
ENDROOT
BRANCH  13  17
ATOM     17  C   UNL     1       4.240   4.795   5.132  0.00  0.00    +0.002 A 
ATOM     18  C   UNL     1       3.509   5.619   5.967  0.00  0.00    +0.007 A 
ATOM     19  C   UNL     1       4.073   6.781   6.459  0.00  0.00    +0.000 A 
ATOM     20  C   UNL     1       5.365   7.126   6.108  0.00  0.00    +0.003 A 
ATOM     21  C   UNL     1       6.096   6.307   5.269  0.00  0.00    +0.038 A 
ATOM     22  C   UNL     1       5.534   5.140   4.780  0.00  0.00    +0.128 A 
ATOM     23  F   UNL     1       6.247   4.338   3.960  0.00  0.00    -0.205 F 
ENDBRANCH  13  17
BRANCH  15  24
ATOM     24  N   UNL     1       1.674   1.689   7.210  0.00  0.00    -0.328 N 
ATOM     25  H   UNL     1       0.632   1.595   7.551  0.00  0.00    +0.145 HD
ATOM     26  H   UNL     1       2.470   1.118   7.711  0.00  0.00    +0.145 HD
ENDBRANCH  15  24
BRANCH  14  27
ATOM     27  C   UNL     1       4.295   1.877   6.416  0.00  0.00    +0.101 C 
ATOM     28  N   UNL     1       5.107   1.284   6.944  0.00  0.00    -0.191 NA
ENDBRANCH  14  27
BRANCH   1  29
ATOM     29  C   UNL     1       1.151   3.592   0.010  0.00  0.00    +0.166 C 
BRANCH  29  34
ATOM     30  C   UNL     1       1.229  -2.186  -0.022  0.00  0.00    +0.044 C 
ATOM     31  C   UNL     1       1.208  -0.679  -0.014  0.00  0.00    -0.050 A 
ATOM     32  C   UNL     1       0.002  -0.004   0.002  0.00  0.00    +0.003 A 
ATOM     33  C   UNL     1      -0.017   1.378   0.010  0.00  0.00    +0.005 A 
ATOM     34  C   UNL     1       1.171   2.086   0.002  0.00  0.00    -0.028 A 
ATOM     35  C   UNL     1       2.377   1.411  -0.014  0.00  0.00    +0.005 A 
ATOM     36  C   UNL     1       2.396   0.029  -0.022  0.00  0.00    +0.003 A 
ENDBRANCH  29  34
ENDBRANCH   1  29
TORSDOF 5
