REMARK  Name = ZINC65286363
REMARK  6 active torsions:
REMARK  status: ('A' for Active; 'I' for Inactive)
REMARK    1  A    between atoms: C_1  and  C_2
REMARK    2  A    between atoms: C_2  and  C_3
REMARK    3  A    between atoms: C_6  and  C_10
REMARK    4  A    between atoms: C_17  and  C_19
REMARK    5  A    between atoms: C_19  and  C_20
REMARK    6  A    between atoms: C_20  and  C_21
REMARK                            x       y       z     vdW  Elec       q    Type
REMARK                         _______ _______ _______ _____ _____    ______ ____
ROOT
ATOM      1  C   UNL     1       2.349  -3.792  -1.467  0.00  0.00    +0.121 C 
ATOM      2  C   UNL     1       2.392  -3.922   0.059  0.00  0.00    +0.026 C 
ATOM      3  C   UNL     1       2.869  -5.327   0.434  0.00  0.00    +0.003 C 
ATOM      4  C   UNL     1       4.282  -5.550  -0.110  0.00  0.00    +0.019 C 
ATOM      5  C   UNL     1       4.261  -5.438  -1.638  0.00  0.00    +0.108 C 
ATOM      6  N   UNL     1       3.666  -4.147  -2.012  0.00  0.00    -0.295 N 
ATOM      7  C   UNL     1       4.318  -3.304  -2.837  0.00  0.00    +0.216 C 
ATOM      8  O   UNL     1       3.857  -2.207  -3.070  0.00  0.00    -0.276 OA
ENDROOT
BRANCH   1  11
ATOM      9  C   UNL     1       0.770  -0.473  -1.206  0.00  0.00    +0.149 C 
ATOM     10  N   UNL     1       0.696  -1.952  -1.273  0.00  0.00    -0.271 NA
ATOM     11  C   UNL     1       2.007  -2.351  -1.850  0.00  0.00    +0.231 C 
ATOM     12  O   UNL     1       2.935  -1.425  -1.240  0.00  0.00    -0.278 OA
ATOM     13  N   UNL     1       2.210  -0.140  -1.191  0.00  0.00    -0.182 NA
ATOM     14  H   UNL     1       0.569  -2.350  -0.355  0.00  0.00    +0.126 HD
ATOM     15  H   UNL     1       2.452   0.381  -0.361  0.00  0.00    +0.156 HD
BRANCH   9  17
ATOM     16  C   UNL     1       0.095   1.561   0.079  0.00  0.00    +0.007 C 
ATOM     17  C   UNL     1       0.098   0.031   0.073  0.00  0.00    +0.033 C 
ENDBRANCH   9  17
ENDBRANCH   1  11
BRANCH   7  18
ATOM     18  C   UNL     1       5.621  -3.724  -3.468  0.00  0.00    +0.100 C 
BRANCH  18  19
ATOM     19  C   UNL     1       6.148  -2.591  -4.351  0.00  0.00    +0.042 C 
BRANCH  19  20
ATOM     20  C   UNL     1       7.450  -3.011  -4.983  0.00  0.00    -0.041 C 
ATOM     21  C   UNL     1       7.621  -3.555  -6.210  0.00  0.00    -0.001 A 
ATOM     22  C   UNL     1       6.682  -3.905  -7.282  0.00  0.00    +0.010 A 
ATOM     23  C   UNL     1       7.162  -4.449  -8.423  0.00  0.00    +0.001 A 
ATOM     24  C   UNL     1       8.531  -4.685  -8.607  0.00  0.00    +0.002 A 
ATOM     25  C   UNL     1       9.455  -4.390  -7.668  0.00  0.00    +0.026 A 
ATOM     26  C   UNL     1       9.062  -3.814  -6.429  0.00  0.00    +0.043 A 
ATOM     27  N   UNL     1       9.755  -3.446  -5.379  0.00  0.00    -0.380 N 
ATOM     28  C   UNL     1       8.831  -2.904  -4.376  0.00  0.00    +0.144 C 
ATOM     29  H   UNL     1      10.717  -3.515  -5.283  0.00  0.00    +0.160 HD
ENDBRANCH  19  20
ENDBRANCH  18  19
ENDBRANCH   7  18
TORSDOF 5
