REMARK  Name = ZINC38704654
REMARK  9 active torsions:
REMARK  status: ('A' for Active; 'I' for Inactive)
REMARK    1  A    between atoms: C_1  and  C_2
REMARK    2  A    between atoms: C_4  and  C_31
REMARK    3  A    between atoms: C_5  and  C_9
REMARK    4  A    between atoms: C_6  and  O_8
REMARK    5  A    between atoms: N_17  and  C_27
REMARK    6  A    between atoms: C_18  and  C_20
REMARK    7  A    between atoms: C_27  and  C_28
REMARK    8  A    between atoms: C_28  and  O_29
REMARK    9  A    between atoms: O_29  and  C_30
REMARK                            x       y       z     vdW  Elec       q    Type
REMARK                         _______ _______ _______ _____ _____    ______ ____
ROOT
ATOM      1  C   UNL     1      -0.774  -3.573   0.396  0.00  0.00    +0.102 A 
ATOM      2  C   UNL     1      -0.634  -4.477   1.454  0.00  0.00    +0.035 A 
ATOM      3  C   UNL     1      -0.477  -5.720   0.870  0.00  0.00    +0.126 A 
ATOM      4  N   UNL     1      -0.529  -5.513  -0.479  0.00  0.00    -0.272 N 
ATOM      5  H   UNL     1      -0.449  -6.207  -1.153  0.00  0.00    +0.189 HD
ATOM      6  N   UNL     1      -0.708  -4.264  -0.725  0.00  0.00    -0.173 NA
ATOM      7  C   UNL     1      -0.324  -6.719   1.933  0.00  0.00    +0.266 C 
ATOM      8  O   UNL     1      -0.167  -7.911   1.747  0.00  0.00    -0.268 OA
ATOM      9  N   UNL     1      -0.382  -6.131   3.141  0.00  0.00    -0.283 N 
ATOM     10  C   UNL     1      -0.578  -4.689   2.942  0.00  0.00    +0.141 C 
ENDROOT
BRANCH   1  15
ATOM     11  C   UNL     1      -1.530   2.122   0.848  0.00  0.00    +0.044 C 
ATOM     12  C   UNL     1      -1.334   0.632   0.732  0.00  0.00    -0.047 A 
ATOM     13  C   UNL     1      -0.356   0.130  -0.107  0.00  0.00    +0.007 A 
ATOM     14  C   UNL     1      -0.170  -1.234  -0.220  0.00  0.00    -0.037 A 
ATOM     15  C   UNL     1      -0.970  -2.107   0.514  0.00  0.00    +0.047 A 
ATOM     16  C   UNL     1      -1.957  -1.596   1.361  0.00  0.00    +0.127 A 
ATOM     17  C   UNL     1      -2.129  -0.225   1.468  0.00  0.00    +0.049 A 
ATOM     18  C   UNL     1       0.896  -1.777  -1.135  0.00  0.00    +0.044 C 
BRANCH  16  19
ATOM     19  O   UNL     1      -2.742  -2.440   2.080  0.00  0.00    -0.506 OA
ATOM     20  H   UNL     1      -2.436  -2.585   2.986  0.00  0.00    +0.292 HD
ENDBRANCH  16  19
ENDBRANCH   1  15
BRANCH  10  21
ATOM     21  C   UNL     1       0.576  -3.921   3.533  0.00  0.00    -0.022 A 
ATOM     22  C   UNL     1       1.860  -4.139   3.070  0.00  0.00    +0.007 A 
ATOM     23  C   UNL     1       2.919  -3.435   3.611  0.00  0.00    +0.020 A 
ATOM     24  C   UNL     1       2.694  -2.512   4.617  0.00  0.00    +0.041 A 
ATOM     25  C   UNL     1       1.409  -2.294   5.080  0.00  0.00    +0.020 A 
ATOM     26  C   UNL     1       0.350  -2.995   4.534  0.00  0.00    +0.007 A 
ATOM     27 CL   UNL     1       4.024  -1.628   5.298  0.00  0.00    -0.084 Cl
ENDBRANCH  10  21
BRANCH   9  28
ATOM     28  C   UNL     1      -0.269  -6.812   4.433  0.00  0.00    +0.137 C 
BRANCH  28  29
ATOM     29  C   UNL     1       1.209  -7.018   4.773  0.00  0.00    +0.178 C 
BRANCH  29  30
ATOM     30  O   UNL     1       1.815  -5.754   5.048  0.00  0.00    -0.381 OA
ATOM     31  C   UNL     1       3.159  -5.846   5.527  0.00  0.00    +0.194 C 
ENDBRANCH  29  30
ENDBRANCH  28  29
ENDBRANCH   9  28
TORSDOF 6
