REMARK  Name = ZINC15960401
REMARK  7 active torsions:
REMARK  status: ('A' for Active; 'I' for Inactive)
REMARK    1  A    between atoms: C_1  and  C_2
REMARK    2  A    between atoms: C_5  and  C_20
REMARK    3  A    between atoms: C_6  and  O_9
REMARK    4  A    between atoms: C_7  and  C_8
REMARK    5  A    between atoms: O_9  and  C_10
REMARK    6  A    between atoms: C_10  and  C_12
REMARK    7  A    between atoms: N_17  and  C_19
REMARK                            x       y       z     vdW  Elec       q    Type
REMARK                         _______ _______ _______ _____ _____    ______ ____
ROOT
ATOM      1  O   UNL     1      -1.498   5.955   0.046  0.00  0.00    -0.421 OA
ENDROOT
BRANCH   1   7
ATOM      2  C   UNL     1      -1.647  10.155  -2.436  0.00  0.00    +0.044 C 
ATOM      3  C   UNL     1      -1.612   9.394  -1.135  0.00  0.00    -0.044 A 
ATOM      4  C   UNL     1      -1.621  10.078   0.066  0.00  0.00    +0.004 A 
ATOM      5  C   UNL     1      -1.590   9.383   1.261  0.00  0.00    +0.007 A 
ATOM      6  C   UNL     1      -1.554   8.002   1.257  0.00  0.00    -0.008 A 
ATOM      7  C   UNL     1      -1.538   7.313   0.053  0.00  0.00    +0.138 A 
ATOM      8  C   UNL     1      -1.571   8.013  -1.145  0.00  0.00    -0.005 A 
ATOM      9  C   UNL     1      -1.561   7.268  -2.455  0.00  0.00    +0.048 C 
ATOM     10  C   UNL     1      -1.525   7.244   2.559  0.00  0.00    +0.047 C 
ENDBRANCH   1   7
BRANCH   1  11
ATOM     11  C   UNL     1      -0.279   5.379   0.032  0.00  0.00    +0.365 C 
ATOM     12  O   UNL     1       0.719   6.071   0.025  0.00  0.00    -0.243 OA
BRANCH  11  13
ATOM     13  C   UNL     1      -0.158   3.907   0.024  0.00  0.00    +0.168 A 
ATOM     14  C   UNL     1       1.124   3.304   0.009  0.00  0.00    +0.042 A 
ATOM     15  C   UNL     1       1.196   1.943   0.001  0.00  0.00    +0.074 A 
ATOM     16  C   UNL     1      -0.015   1.216   0.009  0.00  0.00    +0.267 A 
ATOM     17  O   UNL     1       0.002  -0.004   0.002  0.00  0.00    -0.266 OA
ATOM     18  N   UNL     1      -1.187   1.877   0.018  0.00  0.00    -0.232 N 
ATOM     19  N   UNL     1      -1.240   3.160   0.030  0.00  0.00    -0.162 NA
ATOM     20  C   UNL     1      -2.436   1.113   0.020  0.00  0.00    +0.176 C 
ENDBRANCH  11  13
ENDBRANCH   1  11
TORSDOF 3
