REMARK  Name = ZINC06071032
REMARK  6 active torsions:
REMARK  status: ('A' for Active; 'I' for Inactive)
REMARK    1  A    between atoms: C_1  and  C_2
REMARK    2  A    between atoms: C_5  and  S_8
REMARK    3  A    between atoms: S_8  and  O_11
REMARK    4  A    between atoms: O_11  and  C_12
REMARK    5  A    between atoms: C_14  and  S_23
REMARK    6  A    between atoms: C_20  and  N_22
REMARK                            x       y       z     vdW  Elec       q    Type
REMARK                         _______ _______ _______ _____ _____    ______ ____
ROOT
ATOM      1  C   UNL     1      -0.018   3.874   0.022  0.00  0.00    +0.166 A 
ATOM      2  C   UNL     1       1.162   3.165   0.007  0.00  0.00    +0.078 A 
ATOM      3  C   UNL     1       1.157   1.773   0.001  0.00  0.00    +0.124 A 
ATOM      4  C   UNL     1      -0.013   1.076   0.008  0.00  0.00    +0.038 A 
ATOM      5  C   UNL     1      -1.239   1.763   0.018  0.00  0.00    -0.011 A 
ATOM      6  C   UNL     1      -1.244   3.180   0.030  0.00  0.00    +0.027 A 
ATOM      7  C   UNL     1      -2.469   3.869   0.046  0.00  0.00    +0.014 A 
ATOM      8  C   UNL     1      -3.637   3.175   0.053  0.00  0.00    +0.023 A 
ATOM      9  C   UNL     1      -3.642   1.775   0.047  0.00  0.00    +0.025 A 
ATOM     10  C   UNL     1      -2.460   1.068   0.031  0.00  0.00    +0.031 A 
ENDROOT
BRANCH   3  11
ATOM     11  S   UNL     1       2.687   0.900  -0.019  0.00  0.00    +0.140 S 
ATOM     12  O   UNL     1       3.662   1.778   0.527  0.00  0.00    -0.140 OA
ATOM     13  O   UNL     1       2.428  -0.386   0.528  0.00  0.00    -0.140 OA
ATOM     14  O   UNL     1       3.064   0.685  -1.478  0.00  0.00    -0.043 OA
ENDBRANCH   3  11
BRANCH   9  15
ATOM     15  N   UNL     1      -4.857   1.088   0.056  0.00  0.00    -0.358 N 
ATOM     16  H   UNL     1      -5.693   1.580   0.066  0.00  0.00    +0.142 HD
ATOM     17  H   UNL     1      -4.866   0.118   0.051  0.00  0.00    +0.142 HD
ENDBRANCH   9  15
BRANCH   1  18
ATOM     18  O   UNL     1      -0.000   5.232   0.029  0.00  0.00    -0.342 OA
BRANCH  18  19
ATOM     19  S   UNL     1      -0.005   5.859  -1.358  0.00  0.00    +0.151 S 
ATOM     20  O   UNL     1       0.225   7.249  -1.176  0.00  0.00    -0.131 OA
ATOM     21  O   UNL     1       0.832   5.049  -2.172  0.00  0.00    -0.131 OA
BRANCH  19  26
ATOM     22  C   UNL     1      -5.600   5.306  -3.547  0.00  0.00    +0.044 C 
ATOM     23  C   UNL     1      -4.203   5.444  -3.000  0.00  0.00    -0.050 A 
ATOM     24  C   UNL     1      -3.854   6.565  -2.270  0.00  0.00    +0.005 A 
ATOM     25  C   UNL     1      -2.572   6.692  -1.769  0.00  0.00    +0.031 A 
ATOM     26  C   UNL     1      -1.639   5.697  -1.997  0.00  0.00    +0.128 A 
ATOM     27  C   UNL     1      -1.987   4.579  -2.731  0.00  0.00    +0.031 A 
ATOM     28  C   UNL     1      -3.270   4.450  -3.229  0.00  0.00    +0.005 A 
ENDBRANCH  19  26
ENDBRANCH  18  19
ENDBRANCH   1  18
TORSDOF 5
