REMARK  Name = ZINC35701778
REMARK  10 active torsions:
REMARK  status: ('A' for Active; 'I' for Inactive)
REMARK    1  A    between atoms: C_1  and  C_2
REMARK    2  A    between atoms: C_2  and  C_3
REMARK    3  A    between atoms: C_2  and  C_4
REMARK    4  A    between atoms: C_2  and  C_5
REMARK    5  A    between atoms: C_8  and  C_11
REMARK    6  A    between atoms: C_11  and  N_12
REMARK    7  A    between atoms: C_22  and  S_25
REMARK    8  A    between atoms: S_25  and  C_26
REMARK    9  A    between atoms: C_26  and  C_27
REMARK   10  A    between atoms: N_29  and  C_30
REMARK                            x       y       z     vdW  Elec       q    Type
REMARK                         _______ _______ _______ _____ _____    ______ ____
ROOT
ATOM      1  N   UNL     1       2.520  -0.898  -5.833  0.00  0.00    -0.319 N 
ATOM      2  C   UNL     1       1.471  -0.914  -6.738  0.00  0.00    +0.053 A 
ATOM      3  C   UNL     1       0.381  -1.764  -6.892  0.00  0.00    +0.026 A 
ATOM      4  C   UNL     1      -0.531  -1.542  -7.901  0.00  0.00    +0.002 A 
ATOM      5  C   UNL     1      -0.374  -0.475  -8.772  0.00  0.00    +0.001 A 
ATOM      6  C   UNL     1       0.701   0.378  -8.636  0.00  0.00    +0.012 A 
ATOM      7  C   UNL     1       1.629   0.166  -7.620  0.00  0.00    +0.029 A 
ATOM      8  C   UNL     1       2.857   0.865  -7.205  0.00  0.00    +0.138 A 
ATOM      9  C   UNL     1       3.357   0.161  -6.090  0.00  0.00    +0.165 A 
ATOM     10  N   UNL     1       4.472   0.599  -5.514  0.00  0.00    -0.201 NA
ATOM     11  C   UNL     1       5.071   1.679  -6.000  0.00  0.00    +0.212 A 
ATOM     12  N   UNL     1       4.579   2.328  -7.049  0.00  0.00    -0.122 NA
ATOM     13  N   UNL     1       3.506   1.933  -7.644  0.00  0.00    -0.143 NA
ENDROOT
BRANCH   1  14
ATOM     14  C   UNL     1       2.707  -1.868  -4.752  0.00  0.00    +0.159 C 
BRANCH  14  18
ATOM     15  C   UNL     1       0.707  -0.490  -1.238  0.00  0.00    -0.042 A 
ATOM     16  C   UNL     1       0.036  -1.284  -2.148  0.00  0.00    +0.004 A 
ATOM     17  C   UNL     1       0.683  -1.730  -3.286  0.00  0.00    +0.005 A 
ATOM     18  C   UNL     1       2.001  -1.381  -3.513  0.00  0.00    -0.028 A 
ATOM     19  C   UNL     1       2.672  -0.586  -2.603  0.00  0.00    +0.005 A 
ATOM     20  C   UNL     1       2.024  -0.137  -1.467  0.00  0.00    +0.004 A 
BRANCH  15  22
ATOM     21  C   UNL     1      -0.019   1.526   0.010  0.00  0.00    +0.015 C 
ATOM     22  C   UNL     1       0.002  -0.004   0.002  0.00  0.00    -0.013 C 
ATOM     23  C   UNL     1       0.742  -0.511   1.242  0.00  0.00    +0.015 C 
ATOM     24  C   UNL     1      -1.433  -0.534   0.013  0.00  0.00    +0.015 C 
ENDBRANCH  15  22
ENDBRANCH  14  18
ENDBRANCH   1  14
BRANCH  11  25
ATOM     25  S   UNL     1       6.549   2.262  -5.238  0.00  0.00    -0.075 S 
BRANCH  25  26
ATOM     26  C   UNL     1       7.000   3.722  -6.216  0.00  0.00    +0.173 C 
BRANCH  26  27
ATOM     27  C   UNL     1       8.265   4.326  -5.663  0.00  0.00    +0.224 C 
ATOM     28  O   UNL     1       8.809   3.821  -4.704  0.00  0.00    -0.275 OA
ATOM     29  N   UNL     1       8.791   5.427  -6.234  0.00  0.00    -0.303 N 
ATOM     30  H   UNL     1       8.356   5.831  -7.001  0.00  0.00    +0.149 HD
BRANCH  29  31
ATOM     31  C   UNL     1      10.021   6.015  -5.696  0.00  0.00    +0.159 C 
ATOM     32  C   UNL     1      10.735   6.808  -6.794  0.00  0.00    +0.032 C 
ATOM     33  C   UNL     1      12.221   6.912  -6.502  0.00  0.00    +0.004 C 
ATOM     34  C   UNL     1      12.548   7.745  -5.276  0.00  0.00    +0.019 C 
ATOM     35  C   UNL     1      12.049   7.061  -4.003  0.00  0.00    +0.104 C 
ATOM     36  N   UNL     1      10.645   7.444  -3.780  0.00  0.00    -0.314 N 
ATOM     37  C   UNL     1       9.681   6.957  -4.561  0.00  0.00    +0.233 C 
ATOM     38  O   UNL     1       8.527   7.273  -4.363  0.00  0.00    -0.274 OA
ATOM     39  H   UNL     1      10.421   8.053  -3.059  0.00  0.00    +0.149 HD
ENDBRANCH  29  31
ENDBRANCH  26  27
ENDBRANCH  25  26
ENDBRANCH  11  25
TORSDOF 7
