REMARK  Name = ZINC01026298
REMARK  12 active torsions:
REMARK  status: ('A' for Active; 'I' for Inactive)
REMARK    1  A    between atoms: C_1  and  C_2
REMARK    2  A    between atoms: C_4  and  C_32
REMARK    3  A    between atoms: C_6  and  S_10
REMARK    4  A    between atoms: C_7  and  C_8
REMARK    5  A    between atoms: S_10  and  C_11
REMARK    6  A    between atoms: C_11  and  C_12
REMARK    7  A    between atoms: C_13  and  C_28
REMARK    8  A    between atoms: C_14  and  C_22
REMARK    9  A    between atoms: C_16  and  C_20
REMARK   10  A    between atoms: C_17  and  N_19
REMARK   11  A    between atoms: C_28  and  O_30
REMARK   12  A    between atoms: O_30  and  C_31
REMARK                            x       y       z     vdW  Elec       q    Type
REMARK                         _______ _______ _______ _____ _____    ______ ____
ROOT
ATOM      1  C   UNL     1       4.047   4.358  -1.018  0.00  0.00    +0.128 C 
ATOM      2  C   UNL     1       3.839   3.051  -1.222  0.00  0.00    +0.088 C 
ATOM      3  C   UNL     1       3.184   2.195  -0.173  0.00  0.00    +0.105 C 
ATOM      4  C   UNL     1       3.210   2.906   1.153  0.00  0.00    +0.098 C 
ATOM      5  C   UNL     1       3.458   4.237   1.220  0.00  0.00    +0.198 C 
ATOM      6  O   UNL     1       3.687   4.971   0.118  0.00  0.00    -0.444 OA
ENDROOT
BRANCH   3   7
ATOM      7  C   UNL     1       1.755   1.924  -0.568  0.00  0.00    -0.034 A 
ATOM      8  C   UNL     1       0.872   2.975  -0.733  0.00  0.00    +0.004 A 
ATOM      9  C   UNL     1      -0.439   2.726  -1.095  0.00  0.00    +0.000 A 
ATOM     10  C   UNL     1      -0.867   1.426  -1.291  0.00  0.00    +0.000 A 
ATOM     11  C   UNL     1       0.016   0.375  -1.125  0.00  0.00    +0.000 A 
ATOM     12  C   UNL     1       1.327   0.624  -0.764  0.00  0.00    +0.004 A 
ENDBRANCH   3   7
BRANCH   5  13
ATOM     13  N   UNL     1       3.476   4.851   2.448  0.00  0.00    -0.328 N 
ATOM     14  H   UNL     1       3.676   5.930   2.520  0.00  0.00    +0.145 HD
ATOM     15  H   UNL     1       3.291   4.264   3.360  0.00  0.00    +0.145 HD
ENDBRANCH   5  13
BRANCH   4  16
ATOM     16  C   UNL     1       2.970   2.169   2.357  0.00  0.00    +0.101 C 
ATOM     17  N   UNL     1       2.779   1.584   3.312  0.00  0.00    -0.191 NA
ENDBRANCH   4  16
BRANCH   2  18
ATOM     18  C   UNL     1       4.243   2.464  -2.447  0.00  0.00    +0.339 C 
ATOM     19  O   UNL     1       4.385   3.158  -3.436  0.00  0.00    -0.245 OA
BRANCH  18  20
ATOM     20  O   UNL     1       4.472   1.136  -2.515  0.00  0.00    -0.465 OA
ATOM     21  C   UNL     1       4.877   0.612  -3.782  0.00  0.00    +0.280 C 
ENDBRANCH  18  20
ENDBRANCH   2  18
BRANCH   1  22
ATOM     22  C   UNL     1       4.709   5.167  -2.103  0.00  0.00    +0.150 C 
BRANCH  22  23
ATOM     23  S   UNL     1       3.465   6.169  -2.954  0.00  0.00    -0.097 S 
BRANCH  23  29
ATOM     24  C   UNL     1       4.182   9.520  -6.962  0.00  0.00    +0.045 C 
ATOM     25  C   UNL     1       4.745   8.535  -5.969  0.00  0.00    -0.029 A 
ATOM     26  C   UNL     1       6.098   8.239  -5.954  0.00  0.00    +0.027 A 
ATOM     27  C   UNL     1       6.586   7.332  -5.031  0.00  0.00    +0.040 A 
ATOM     28  N   UNL     1       5.787   6.745  -4.160  0.00  0.00    -0.244 NA
ATOM     29  C   UNL     1       4.486   6.987  -4.135  0.00  0.00    +0.115 A 
ATOM     30  C   UNL     1       3.914   7.898  -5.041  0.00  0.00    +0.086 A 
ATOM     31  C   UNL     1       8.058   7.012  -5.016  0.00  0.00    +0.065 C 
BRANCH  30  32
ATOM     32  C   UNL     1       2.509   8.169  -5.015  0.00  0.00    +0.102 C 
ATOM     33  N   UNL     1       1.393   8.384  -4.994  0.00  0.00    -0.191 NA
ENDBRANCH  30  32
ENDBRANCH  23  29
ENDBRANCH  22  23
ENDBRANCH   1  22
TORSDOF 9
