REMARK  Name = ZINC28052939
REMARK  10 active torsions:
REMARK  status: ('A' for Active; 'I' for Inactive)
REMARK    1  A    between atoms: C_1  and  C_2
REMARK    2  A    between atoms: C_10  and  C_12
REMARK    3  A    between atoms: C_15  and  O_20
REMARK    4  A    between atoms: C_16  and  O_18
REMARK    5  A    between atoms: O_18  and  C_19
REMARK    6  A    between atoms: C_24  and  C_27
REMARK    7  A    between atoms: C_29  and  O_35
REMARK    8  A    between atoms: C_32  and  O_33
REMARK    9  A    between atoms: O_33  and  C_34
REMARK   10  A    between atoms: O_35  and  C_36
REMARK                            x       y       z     vdW  Elec       q    Type
REMARK                         _______ _______ _______ _____ _____    ______ ____
ROOT
ATOM      1  C   UNL     1       3.024   0.241   6.832  0.00  0.00    +0.069 C 
ATOM      2  C   UNL     1       1.663   0.456   6.222  0.00  0.00    +0.087 A 
ATOM      3  C   UNL     1       1.357   0.542   4.866  0.00  0.00    +0.049 A 
ATOM      4  C   UNL     1       0.001   0.740   4.832  0.00  0.00    +0.226 A 
ATOM      5  O   UNL     1      -0.406   0.757   6.097  0.00  0.00    -0.339 OA
ATOM      6  N   UNL     1       0.528   0.600   6.860  0.00  0.00    -0.081 NA
ATOM      7  N   UNL     1      -0.670   0.878   3.634  0.00  0.00    -0.286 N 
ATOM      8  C   UNL     1       0.062   1.109   2.494  0.00  0.00    +0.019 C 
ATOM      9  C   UNL     1       1.399   0.931   2.441  0.00  0.00    +0.024 C 
ATOM     10  C   UNL     1       2.200   0.454   3.635  0.00  0.00    +0.091 C 
ATOM     11  C   UNL     1       2.116   1.181   1.256  0.00  0.00    +0.162 C 
ATOM     12  O   UNL     1       3.323   1.038   1.251  0.00  0.00    -0.292 OA
ATOM     13  C   UNL     1       1.423   1.622  -0.003  0.00  0.00    +0.088 C 
ATOM     14  C   UNL     1      -0.013   1.086   0.008  0.00  0.00    +0.036 C 
ATOM     15  C   UNL     1      -0.702   1.585   1.279  0.00  0.00    +0.060 C 
ATOM     16  H   UNL     1      -1.767   0.802   3.606  0.00  0.00    +0.155 HD
ENDROOT
BRANCH  10  17
ATOM     17  C   UNL     1       2.625  -0.975   3.417  0.00  0.00    -0.032 A 
ATOM     18  C   UNL     1       1.669  -1.960   3.246  0.00  0.00    +0.008 A 
ATOM     19  C   UNL     1       2.054  -3.272   3.040  0.00  0.00    +0.049 A 
ATOM     20  C   UNL     1       3.398  -3.604   3.016  0.00  0.00    +0.158 A 
ATOM     21  C   UNL     1       4.360  -2.614   3.194  0.00  0.00    +0.162 A 
ATOM     22  C   UNL     1       3.968  -1.300   3.394  0.00  0.00    +0.054 A 
BRANCH  21  23
ATOM     23  O   UNL     1       5.681  -2.935   3.171  0.00  0.00    -0.491 OA
ATOM     24  C   UNL     1       6.612  -1.868   3.361  0.00  0.00    +0.277 C 
ENDBRANCH  21  23
BRANCH  20  25
ATOM     25  O   UNL     1       3.778  -4.895   2.820  0.00  0.00    -0.503 OA
ATOM     26  H   UNL     1       4.846  -5.158   2.801  0.00  0.00    +0.292 HD
ENDBRANCH  20  25
ENDBRANCH  10  17
BRANCH  14  27
ATOM     27  C   UNL     1      -0.753   1.590  -1.204  0.00  0.00    +0.002 A 
ATOM     28  C   UNL     1      -0.904   2.949  -1.405  0.00  0.00    +0.053 A 
ATOM     29  C   UNL     1      -1.579   3.413  -2.523  0.00  0.00    +0.121 A 
ATOM     30  C   UNL     1      -2.114   2.514  -3.434  0.00  0.00    +0.049 A 
ATOM     31  C   UNL     1      -1.968   1.155  -3.230  0.00  0.00    +0.049 A 
ATOM     32  C   UNL     1      -1.287   0.691  -2.115  0.00  0.00    +0.124 A 
BRANCH  32  33
ATOM     33  O   UNL     1      -1.143  -0.646  -1.914  0.00  0.00    -0.495 OA
ATOM     34  C   UNL     1      -1.718  -1.515  -2.892  0.00  0.00    +0.277 C 
ENDBRANCH  32  33
BRANCH  29  35
ATOM     35  O   UNL     1      -1.723   4.750  -2.724  0.00  0.00    -0.495 OA
ATOM     36  C   UNL     1      -2.436   5.158  -3.894  0.00  0.00    +0.277 C 
ENDBRANCH  29  35
ENDBRANCH  14  27
TORSDOF 6
