REMARK  Name = ZINC36493857
REMARK  12 active torsions:
REMARK  status: ('A' for Active; 'I' for Inactive)
REMARK    1  A    between atoms: C_1  and  C_2
REMARK    2  A    between atoms: C_2  and  C_3
REMARK    3  A    between atoms: C_3  and  C_4
REMARK    4  A    between atoms: C_5  and  C_6
REMARK    5  A    between atoms: C_6  and  C_8
REMARK    6  A    between atoms: C_6  and  N_17
REMARK    7  A    between atoms: N_10  and  C_11
REMARK    8  A    between atoms: N_17  and  C_18
REMARK    9  A    between atoms: C_18  and  C_19
REMARK   10  A    between atoms: C_24  and  C_26
REMARK   11  A    between atoms: C_26  and  C_34
REMARK   12  A    between atoms: C_27  and  C_28
REMARK                            x       y       z     vdW  Elec       q    Type
REMARK                         _______ _______ _______ _____ _____    ______ ____
ROOT
ATOM      1  N   UNL     1       1.059  -6.083  -1.491  0.00  0.00    -0.275 N 
ATOM      2  C   UNL     1       0.502  -6.028  -0.265  0.00  0.00    +0.248 C 
ATOM      3  O   UNL     1       1.084  -5.466   0.643  0.00  0.00    -0.270 OA
ENDROOT
BRANCH   2   4
ATOM      4  C   UNL     1      -0.812  -6.647  -0.025  0.00  0.00    +0.045 C 
ATOM      5  C   UNL     1      -0.911  -7.996   0.119  0.00  0.00    +0.021 C 
BRANCH   5   6
ATOM      6  C   UNL     1       0.302  -8.824   0.136  0.00  0.00    -0.024 A 
ATOM      7  C   UNL     1       1.442  -8.389   0.821  0.00  0.00    +0.008 A 
ATOM      8  C   UNL     1       2.576  -9.172   0.833  0.00  0.00    +0.001 A 
ATOM      9  C   UNL     1       2.590 -10.387   0.169  0.00  0.00    +0.000 A 
ATOM     10  C   UNL     1       1.467 -10.825  -0.511  0.00  0.00    +0.001 A 
ATOM     11  C   UNL     1       0.323 -10.056  -0.528  0.00  0.00    +0.008 A 
ENDBRANCH   5   6
BRANCH   4  12
ATOM     12  C   UNL     1      -2.025  -5.802   0.059  0.00  0.00    -0.013 A 
ATOM     13  C   UNL     1      -2.456  -5.082  -1.056  0.00  0.00    +0.008 A 
ATOM     14  C   UNL     1      -3.587  -4.297  -0.971  0.00  0.00    +0.001 A 
ATOM     15  C   UNL     1      -4.293  -4.222   0.216  0.00  0.00    +0.000 A 
ATOM     16  C   UNL     1      -3.871  -4.933   1.325  0.00  0.00    +0.001 A 
ATOM     17  C   UNL     1      -2.745  -5.727   1.251  0.00  0.00    +0.008 A 
ENDBRANCH   4  12
ENDBRANCH   2   4
BRANCH   1  18
ATOM     18  C   UNL     1       0.360  -6.763  -2.583  0.00  0.00    +0.186 C 
BRANCH  18  19
ATOM     19  C   UNL     1       1.147  -7.978  -3.004  0.00  0.00    +0.238 C 
ATOM     20  O   UNL     1       2.189  -8.248  -2.445  0.00  0.00    -0.273 OA
ATOM     21  N   UNL     1       0.693  -8.764  -4.000  0.00  0.00    -0.311 N 
ATOM     22  H   UNL     1      -0.141  -8.547  -4.447  0.00  0.00    +0.149 HD
BRANCH  21  23
ATOM     23  C   UNL     1       1.458  -9.944  -4.409  0.00  0.00    +0.073 C 
ATOM     24  C   UNL     1       2.530  -9.533  -5.420  0.00  0.00    +0.022 C 
ATOM     25  C   UNL     1       3.329 -10.766  -5.846  0.00  0.00    +0.002 C 
ATOM     26  C   UNL     1       2.387 -11.787  -6.489  0.00  0.00    +0.000 C 
ATOM     27  C   UNL     1       1.315 -12.198  -5.478  0.00  0.00    +0.002 C 
ATOM     28  C   UNL     1       0.516 -10.965  -5.051  0.00  0.00    +0.022 C 
ENDBRANCH  21  23
ENDBRANCH  18  19
BRANCH  18  30
ATOM     29  C   UNL     1       0.555  -4.564  -3.625  0.00  0.00    -0.029 C 
ATOM     30  C   UNL     1       0.223  -5.824  -3.754  0.00  0.00    +0.000 C 
BRANCH  29  31
ATOM     31  C   UNL     1       0.440  -3.630  -4.802  0.00  0.00    +0.027 C 
BRANCH  31  33
ATOM     32  C   UNL     1      -0.450  -1.426  -5.572  0.00  0.00    +0.004 C 
ATOM     33  C   UNL     1      -0.432  -2.432  -4.420  0.00  0.00    +0.001 C 
ENDBRANCH  31  33
ENDBRANCH  29  31
ENDBRANCH  18  30
ENDBRANCH   1  18
BRANCH   1  34
ATOM     34  C   UNL     1       2.364  -5.462  -1.730  0.00  0.00    +0.183 C 
BRANCH  34  35
ATOM     35  C   UNL     1       3.456  -6.395  -1.272  0.00  0.00    +0.122 A 
ATOM     36  C   UNL     1       4.167  -7.221  -2.060  0.00  0.00    +0.046 A 
ATOM     37  C   UNL     1       5.076  -7.906  -1.221  0.00  0.00    +0.041 A 
ATOM     38  C   UNL     1       4.866  -7.457   0.030  0.00  0.00    +0.195 A 
ATOM     39  O   UNL     1       3.888  -6.537  -0.008  0.00  0.00    -0.466 OA
ENDBRANCH  34  35
ENDBRANCH   1  34
TORSDOF 11
