REMARK  Name = ZINC20135872
REMARK  6 active torsions:
REMARK  status: ('A' for Active; 'I' for Inactive)
REMARK    1  A    between atoms: C_1  and  O_2
REMARK    2  A    between atoms: O_2  and  C_3
REMARK    3  A    between atoms: C_6  and  C_10
REMARK    4  A    between atoms: C_15  and  C_23
REMARK    5  A    between atoms: C_18  and  C_20
REMARK    6  A    between atoms: C_27  and  N_29
REMARK                            x       y       z     vdW  Elec       q    Type
REMARK                         _______ _______ _______ _____ _____    ______ ____
ROOT
ATOM      1  C   UNL     1       2.603  -2.505  -4.340  0.00  0.00    +0.074 C 
ATOM      2  N   UNL     1       3.150  -1.741  -5.278  0.00  0.00    -0.229 NA
ATOM      3  C   UNL     1       3.610  -2.326  -6.371  0.00  0.00    +0.165 C 
ATOM      4  N   UNL     1       4.520  -1.983  -7.241  0.00  0.00    -0.133 NA
ATOM      5  N   UNL     1       4.970  -2.970  -7.924  0.00  0.00    -0.151 NA
ATOM      6  C   UNL     1       4.314  -4.098  -7.736  0.00  0.00    +0.086 C 
ATOM      7  C   UNL     1       3.189  -3.720  -6.815  0.00  0.00    +0.147 C 
ATOM      8  C   UNL     1       3.030  -4.576  -5.600  0.00  0.00    +0.059 C 
ATOM      9  C   UNL     1       2.693  -3.966  -4.429  0.00  0.00    +0.040 C 
ENDROOT
BRANCH   1  13
ATOM     10  C   UNL     1       0.599  -0.707  -1.055  0.00  0.00    +0.134 A 
ATOM     11  C   UNL     1       1.168   0.091  -2.041  0.00  0.00    +0.047 A 
ATOM     12  C   UNL     1       1.819  -0.488  -3.108  0.00  0.00    +0.013 A 
ATOM     13  C   UNL     1       1.907  -1.881  -3.199  0.00  0.00    +0.002 A 
ATOM     14  C   UNL     1       1.334  -2.680  -2.205  0.00  0.00    +0.029 A 
ATOM     15  C   UNL     1       0.690  -2.092  -1.138  0.00  0.00    +0.060 A 
ATOM     16 BR   UNL     1      -0.079  -3.171   0.212  0.00  0.00    -0.046 Br
BRANCH  10  18
ATOM     17  C   UNL     1      -0.097   1.296   0.017  0.00  0.00    +0.277 C 
ATOM     18  O   UNL     1      -0.041  -0.132  -0.005  0.00  0.00    -0.494 OA
ENDBRANCH  10  18
ENDBRANCH   1  13
BRANCH   6  19
ATOM     19  C   UNL     1       4.614  -5.421  -8.299  0.00  0.00    +0.001 A 
ATOM     20  C   UNL     1       3.580  -6.337  -8.535  0.00  0.00    +0.010 A 
ATOM     21  C   UNL     1       3.870  -7.576  -9.063  0.00  0.00    +0.003 A 
ATOM     22  C   UNL     1       5.179  -7.917  -9.360  0.00  0.00    +0.033 A 
ATOM     23  C   UNL     1       6.207  -7.019  -9.130  0.00  0.00    +0.127 A 
ATOM     24  C   UNL     1       5.933  -5.772  -8.608  0.00  0.00    +0.042 A 
BRANCH  23  25
ATOM     25  N   UNL     1       7.602  -7.394  -9.452  0.00  0.00    +0.056 N 
ATOM     26  O   UNL     1       7.843  -8.485  -9.914  0.00  0.00    -0.126 OA
ATOM     27  O   UNL     1       8.500  -6.611  -9.251  0.00  0.00    -0.126 OA
ENDBRANCH  23  25
ENDBRANCH   6  19
BRANCH   8  28
ATOM     28  C   UNL     1       3.236  -6.024  -5.664  0.00  0.00    +0.384 C 
ATOM     29  O   UNL     1       2.293  -6.766  -5.911  0.00  0.00    -0.241 OA
ATOM     30  O   UNL     1       4.350  -6.493  -5.471  0.00  0.00    -0.241 OA
ENDBRANCH   8  28
TORSDOF 5
