REMARK  Name = ZINC00824763
REMARK  7 active torsions:
REMARK  status: ('A' for Active; 'I' for Inactive)
REMARK    1  A    between atoms: C_1  and  N_2
REMARK    2  A    between atoms: N_11  and  C_20
REMARK    3  A    between atoms: C_20  and  C_21
REMARK    4  A    between atoms: C_21  and  C_23
REMARK    5  A    between atoms: C_21  and  O_32
REMARK    6  A    between atoms: C_23  and  O_24
REMARK    7  A    between atoms: O_24  and  C_25
REMARK                            x       y       z     vdW  Elec       q    Type
REMARK                         _______ _______ _______ _____ _____    ______ ____
ROOT
ATOM      1  C   UNL     1       2.103 -10.427   1.914  0.00  0.00    +0.155 C 
ATOM      2  N   UNL     1       2.551  -9.067   2.220  0.00  0.00    -0.280 N 
ATOM      3  C   UNL     1       2.986  -8.235   1.200  0.00  0.00    +0.170 A 
ATOM      4  C   UNL     1       3.412  -6.950   1.519  0.00  0.00    +0.153 A 
ATOM      5  C   UNL     1       3.379  -6.529   2.860  0.00  0.00    +0.280 A 
ATOM      6  O   UNL     1       3.744  -5.406   3.162  0.00  0.00    -0.265 OA
ATOM      7  N   UNL     1       2.945  -7.383   3.810  0.00  0.00    -0.273 N 
ATOM      8  H   UNL     1       2.924  -7.088   4.765  0.00  0.00    +0.173 HD
ATOM      9  C   UNL     1       2.541  -8.625   3.492  0.00  0.00    +0.331 A 
ATOM     10  O   UNL     1       2.156  -9.368   4.375  0.00  0.00    -0.246 OA
ATOM     11  N   UNL     1       3.780  -6.352   0.321  0.00  0.00    -0.304 N 
ATOM     12  C   UNL     1       3.578  -7.276  -0.655  0.00  0.00    +0.201 A 
ATOM     13  N   UNL     1       3.108  -8.384  -0.120  0.00  0.00    -0.196 NA
ATOM     14  N   UNL     1       3.826  -7.083  -1.995  0.00  0.00    -0.301 N 
ATOM     15  C   UNL     1       2.798  -6.229  -2.603  0.00  0.00    +0.108 C 
ATOM     16  C   UNL     1       3.183  -5.918  -4.052  0.00  0.00    +0.019 C 
ATOM     17  C   UNL     1       3.312  -7.229  -4.833  0.00  0.00    +0.003 C 
ATOM     18  C   UNL     1       4.354  -8.120  -4.151  0.00  0.00    +0.019 C 
ATOM     19  C   UNL     1       3.935  -8.367  -2.700  0.00  0.00    +0.108 C 
ENDROOT
BRANCH  11  20
ATOM     20  C   UNL     1       4.293  -4.991   0.145  0.00  0.00    +0.160 C 
BRANCH  20  21
ATOM     21  C   UNL     1       5.823  -5.019   0.143  0.00  0.00    +0.172 C 
BRANCH  21  22
ATOM     22  O   UNL     1       6.293  -5.475   1.414  0.00  0.00    -0.387 OA
ATOM     23  H   UNL     1       6.084  -4.880   2.147  0.00  0.00    +0.210 HD
ENDBRANCH  21  22
BRANCH  21  24
ATOM     24  C   UNL     1       6.359  -3.611  -0.123  0.00  0.00    +0.262 C 
BRANCH  24  25
ATOM     25  O   UNL     1       7.782  -3.657  -0.240  0.00  0.00    -0.489 OA
BRANCH  25  26
ATOM     26  C   UNL     1       8.420  -2.481  -0.480  0.00  0.00    +0.121 A 
ATOM     27  C   UNL     1       9.801  -2.453  -0.605  0.00  0.00    +0.046 A 
ATOM     28  C   UNL     1      10.447  -1.256  -0.848  0.00  0.00    +0.018 A 
ATOM     29  C   UNL     1       9.718  -0.087  -0.965  0.00  0.00    +0.014 A 
ATOM     30  C   UNL     1       8.341  -0.113  -0.841  0.00  0.00    +0.018 A 
ATOM     31  C   UNL     1       7.690  -1.307  -0.598  0.00  0.00    +0.046 A 
ATOM     32  I   UNL     1      10.701   1.726  -1.333  0.00  0.00    -0.044 I 
ENDBRANCH  25  26
ENDBRANCH  24  25
ENDBRANCH  21  24
ENDBRANCH  20  21
ENDBRANCH  11  20
TORSDOF 6
