REMARK  Name = ZINC60556185
REMARK  4 active torsions:
REMARK  status: ('A' for Active; 'I' for Inactive)
REMARK    1  A    between atoms: C_1  and  C_2
REMARK    2  A    between atoms: C_7  and  N_8
REMARK    3  A    between atoms: N_8  and  C_9
REMARK    4  A    between atoms: C_9  and  C_10
REMARK                            x       y       z     vdW  Elec       q    Type
REMARK                         _______ _______ _______ _____ _____    ______ ____
ROOT
ATOM      1  C   UNL     1       0.047  -0.757   3.679  0.00  0.00    +0.155 C 
ENDROOT
BRANCH   1   2
ATOM      2  C   UNL     1       0.045   0.214   4.831  0.00  0.00    +0.040 A 
ATOM      3  C   UNL     1      -1.021   0.264   5.704  0.00  0.00    +0.093 A 
ATOM      4  C   UNL     1      -1.005   1.169   6.766  0.00  0.00    +0.259 A 
ATOM      5  O   UNL     1      -1.946   1.217   7.542  0.00  0.00    -0.267 OA
ATOM      6  N   UNL     1       0.066   2.001   6.936  0.00  0.00    -0.263 N 
ATOM      7  C   UNL     1       0.228   2.940   7.926  0.00  0.00    +0.104 A 
ATOM      8  C   UNL     1       1.324   3.696   7.985  0.00  0.00    +0.067 A 
ATOM      9  S   UNL     1       2.251   3.106   6.577  0.00  0.00    -0.059 S 
ATOM     10  C   UNL     1       1.080   1.885   6.023  0.00  0.00    +0.158 A 
ATOM     11  N   UNL     1       1.074   1.034   5.027  0.00  0.00    -0.337 N 
ATOM     12  H   UNL     1       1.830   1.004   4.421  0.00  0.00    +0.168 HD
ENDBRANCH   1   2
BRANCH   1  13
ATOM     13  N   UNL     1       0.025  -0.016   2.415  0.00  0.00    -0.338 N 
ATOM     14  H   UNL     1       0.012   0.954   2.422  0.00  0.00    +0.146 HD
BRANCH  13  21
ATOM     15  C   UNL     1      -0.018   1.503   0.010  0.00  0.00    +0.045 C 
ATOM     16  C   UNL     1       0.002  -0.004   0.002  0.00  0.00    -0.029 A 
ATOM     17  C   UNL     1       0.006  -0.689  -1.198  0.00  0.00    +0.019 A 
ATOM     18  C   UNL     1       0.024  -2.072  -1.206  0.00  0.00    +0.014 A 
ATOM     19  C   UNL     1       0.039  -2.774  -0.014  0.00  0.00    +0.016 A 
ATOM     20  C   UNL     1       0.035  -2.095   1.189  0.00  0.00    +0.024 A 
ATOM     21  C   UNL     1       0.023  -0.706   1.200  0.00  0.00    +0.030 A 
ATOM     22  I   UNL     1       0.030  -3.106  -3.028  0.00  0.00    -0.044 I 
ENDBRANCH  13  21
ENDBRANCH   1  13
TORSDOF 3
