REMARK  Name = ZINC13132626
REMARK  6 active torsions:
REMARK  status: ('A' for Active; 'I' for Inactive)
REMARK    1  A    between atoms: C_1  and  C_2
REMARK    2  A    between atoms: N_5  and  C_7
REMARK    3  A    between atoms: C_10  and  N_13
REMARK    4  A    between atoms: C_28  and  C_30
REMARK    5  A    between atoms: C_33  and  O_36
REMARK    6  A    between atoms: O_36  and  C_37
REMARK                            x       y       z     vdW  Elec       q    Type
REMARK                         _______ _______ _______ _____ _____    ______ ____
ROOT
ATOM      1  C   UNL     1      -0.018   1.503   0.010  0.00  0.00    +0.068 C 
ATOM      2  C   UNL     1       0.002  -0.004   0.002  0.00  0.00    +0.068 A 
ATOM      3  C   UNL     1       0.008  -0.807  -1.128  0.00  0.00    +0.044 A 
ATOM      4  C   UNL     1       0.028  -2.131  -0.719  0.00  0.00    +0.164 A 
ATOM      5  N   UNL     1       0.034  -2.114   0.650  0.00  0.00    -0.214 N 
ATOM      6  N   UNL     1       0.023  -0.775   1.063  0.00  0.00    -0.169 NA
ATOM      7  N   UNL     1       0.036  -3.132  -1.623  0.00  0.00    -0.207 NA
ATOM      8  C   UNL     1       0.028  -2.964  -2.917  0.00  0.00    +0.191 C 
ATOM      9  C   UNL     1       0.039  -4.148  -3.809  0.00  0.00    +0.282 C 
ATOM     10  O   UNL     1       0.056  -5.269  -3.338  0.00  0.00    -0.267 OA
ATOM     11  N   UNL     1       0.029  -3.975  -5.144  0.00  0.00    -0.278 N 
ATOM     12  C   UNL     1       0.009  -2.695  -5.698  0.00  0.00    +0.055 A 
ATOM     13  C   UNL     1      -0.001  -2.541  -7.078  0.00  0.00    +0.025 A 
ATOM     14  C   UNL     1      -0.021  -1.276  -7.633  0.00  0.00    +0.002 A 
ATOM     15  C   UNL     1      -0.032  -0.158  -6.818  0.00  0.00    +0.002 A 
ATOM     16  C   UNL     1      -0.023  -0.299  -5.445  0.00  0.00    +0.025 A 
ATOM     17  C   UNL     1      -0.003  -1.566  -4.875  0.00  0.00    +0.057 A 
ATOM     18  N   UNL     1       0.007  -1.709  -3.492  0.00  0.00    -0.268 N 
ATOM     19  C   UNL     1      -0.004  -0.528  -2.614  0.00  0.00    +0.146 C 
ATOM     20  H   UNL     1       0.037  -4.749  -5.728  0.00  0.00    +0.155 HD
ENDROOT
BRANCH   5  21
ATOM     21  C   UNL     1       0.052  -3.236   1.489  0.00  0.00    +0.068 A 
ATOM     22  C   UNL     1      -0.619  -4.393   1.117  0.00  0.00    +0.030 A 
ATOM     23  C   UNL     1      -0.599  -5.497   1.947  0.00  0.00    +0.035 A 
ATOM     24  C   UNL     1       0.088  -5.451   3.146  0.00  0.00    +0.126 A 
ATOM     25  C   UNL     1       0.758  -4.300   3.518  0.00  0.00    +0.035 A 
ATOM     26  C   UNL     1       0.746  -3.194   2.691  0.00  0.00    +0.030 A 
BRANCH  24  27
ATOM     27  N   UNL     1       0.107  -6.637   4.032  0.00  0.00    +0.056 N 
ATOM     28  O   UNL     1      -0.478  -7.644   3.708  0.00  0.00    -0.126 OA
ATOM     29  O   UNL     1       0.708  -6.598   5.081  0.00  0.00    -0.126 OA
ENDBRANCH  24  27
ENDBRANCH   5  21
BRANCH  19  30
ATOM     30  C   UNL     1       1.202   0.315  -2.944  0.00  0.00    -0.022 A 
ATOM     31  C   UNL     1       2.441  -0.281  -3.088  0.00  0.00    +0.009 A 
ATOM     32  C   UNL     1       3.548   0.489  -3.390  0.00  0.00    +0.046 A 
ATOM     33  C   UNL     1       3.415   1.860  -3.548  0.00  0.00    +0.127 A 
ATOM     34  C   UNL     1       2.170   2.456  -3.403  0.00  0.00    +0.046 A 
ATOM     35  C   UNL     1       1.066   1.681  -3.107  0.00  0.00    +0.009 A 
BRANCH  33  36
ATOM     36  O   UNL     1       4.502   2.620  -3.845  0.00  0.00    -0.434 OA
BRANCH  36  37
ATOM     37  C   UNL     1       4.291   4.025  -3.993  0.00  0.00    +0.541 C 
ATOM     38  F   UNL     1       3.380   4.253  -5.030  0.00  0.00    -0.166 F 
ATOM     39  F   UNL     1       3.780   4.549  -2.801  0.00  0.00    -0.166 F 
ENDBRANCH  36  37
ENDBRANCH  33  36
ENDBRANCH  19  30
TORSDOF 5
