REMARK  Name = ZINC39534226
REMARK  11 active torsions:
REMARK  status: ('A' for Active; 'I' for Inactive)
REMARK    1  A    between atoms: C_1  and  S_2
REMARK    2  A    between atoms: S_2  and  N_3
REMARK    3  A    between atoms: N_3  and  C_4
REMARK    4  A    between atoms: C_4  and  C_5
REMARK    5  A    between atoms: C_5  and  C_7
REMARK    6  A    between atoms: C_5  and  N_23
REMARK    7  A    between atoms: C_10  and  S_13
REMARK    8  A    between atoms: S_13  and  O_16
REMARK    9  A    between atoms: O_16  and  C_17
REMARK   10  A    between atoms: C_27  and  C_30
REMARK   11  A    between atoms: C_30  and  C_31
REMARK                            x       y       z     vdW  Elec       q    Type
REMARK                         _______ _______ _______ _____ _____    ______ ____
ROOT
ATOM      1  C   UNL     1       1.225  -2.197  -3.125  0.00  0.00    +0.101 C 
ENDROOT
BRANCH   1   2
ATOM      2  N   UNL     1       2.448  -1.620  -3.699  0.00  0.00    -0.297 NA
ATOM      3  C   UNL     1       2.186  -0.295  -4.278  0.00  0.00    +0.066 C 
ATOM      4  C   UNL     1       3.494   0.295  -4.809  0.00  0.00    -0.067 C 
ATOM      5  N   UNL     1       4.056  -0.601  -5.828  0.00  0.00    +0.383 N 
ATOM      6  C   UNL     1       4.337  -1.913  -5.229  0.00  0.00    -0.053 C 
ATOM      7  C   UNL     1       3.035  -2.521  -4.701  0.00  0.00    +0.069 C 
ATOM      8  H   UNL     1       3.395  -0.710  -6.582  0.00  0.00    -0.085 HD
ATOM      9  H   UNL     1       4.912  -0.206  -6.187  0.00  0.00    -0.085 HD
BRANCH   6  10
ATOM     10  C   UNL     1       4.939  -2.838  -6.287  0.00  0.00    +0.020 C 
BRANCH  10  11
ATOM     11  C   UNL     1       6.280  -2.303  -6.718  0.00  0.00    -0.049 A 
ATOM     12  C   UNL     1       6.362  -1.414  -7.774  0.00  0.00    +0.003 A 
ATOM     13  C   UNL     1       7.592  -0.922  -8.170  0.00  0.00    +0.000 A 
ATOM     14  C   UNL     1       8.740  -1.319  -7.509  0.00  0.00    +0.000 A 
ATOM     15  C   UNL     1       8.658  -2.207  -6.453  0.00  0.00    +0.000 A 
ATOM     16  C   UNL     1       7.428  -2.695  -6.055  0.00  0.00    +0.003 A 
ENDBRANCH  10  11
ENDBRANCH   6  10
ENDBRANCH   1   2
BRANCH   1  17
ATOM     17  C   UNL     1       1.394  -3.686  -2.975  0.00  0.00    -0.029 A 
ATOM     18  C   UNL     1       2.509  -4.194  -2.334  0.00  0.00    +0.007 A 
ATOM     19  C   UNL     1       2.664  -5.561  -2.196  0.00  0.00    +0.031 A 
ATOM     20  C   UNL     1       1.704  -6.420  -2.698  0.00  0.00    +0.128 A 
ATOM     21  C   UNL     1       0.589  -5.912  -3.338  0.00  0.00    +0.031 A 
ATOM     22  C   UNL     1       0.432  -4.545  -3.472  0.00  0.00    +0.007 A 
BRANCH  20  23
ATOM     23  S   UNL     1       1.903  -8.162  -2.523  0.00  0.00    +0.151 S 
ATOM     24  O   UNL     1       1.137  -8.764  -3.558  0.00  0.00    -0.131 OA
ATOM     25  O   UNL     1       3.295  -8.399  -2.370  0.00  0.00    -0.131 OA
BRANCH  23  26
ATOM     26  O   UNL     1       1.246  -8.559  -1.208  0.00  0.00    -0.342 OA
BRANCH  26  27
ATOM     27  C   UNL     1      -0.112  -8.573  -1.250  0.00  0.00    +0.157 A 
ATOM     28  C   UNL     1      -0.828  -7.426  -0.940  0.00  0.00    +0.048 A 
ATOM     29  C   UNL     1      -2.209  -7.443  -0.984  0.00  0.00    +0.004 A 
ATOM     30  C   UNL     1      -2.877  -8.601  -1.337  0.00  0.00    +0.000 A 
ATOM     31  C   UNL     1      -2.165  -9.745  -1.646  0.00  0.00    +0.004 A 
ATOM     32  C   UNL     1      -0.784  -9.732  -1.610  0.00  0.00    +0.048 A 
ENDBRANCH  26  27
ENDBRANCH  23  26
ENDBRANCH  20  23
ENDBRANCH   1  17
BRANCH   1  33
ATOM     33  C   UNL     1       0.961  -1.572  -1.754  0.00  0.00    +0.117 C 
BRANCH  33  34
ATOM     34  N   UNL     1       0.923  -0.109  -1.881  0.00  0.00    -0.262 NA
ATOM     35  H   UNL     1       1.855   0.273  -1.940  0.00  0.00    +0.135 HD
BRANCH  34  37
ATOM     36  C   UNL     1       0.095   2.399  -0.890  0.00  0.00    +0.102 C 
ATOM     37  S   UNL     1       0.023   0.619  -0.548  0.00  0.00    -0.084 S 
ENDBRANCH  34  37
ENDBRANCH  33  34
ENDBRANCH   1  33
TORSDOF 10
