REMARK  Name = ZINC40061037
REMARK  9 active torsions:
REMARK  status: ('A' for Active; 'I' for Inactive)
REMARK    1  A    between atoms: C_1  and  C_2
REMARK    2  A    between atoms: C_4  and  C_37
REMARK    3  A    between atoms: C_13  and  C_30
REMARK    4  A    between atoms: C_20  and  C_29
REMARK    5  A    between atoms: C_21  and  C_23
REMARK    6  A    between atoms: C_23  and  O_25
REMARK    7  A    between atoms: O_25  and  C_26
REMARK    8  A    between atoms: C_26  and  C_27
REMARK    9  A    between atoms: C_34  and  O_36
REMARK                            x       y       z     vdW  Elec       q    Type
REMARK                         _______ _______ _______ _____ _____    ______ ____
ROOT
ATOM      1  C   UNL     1      -0.523   1.450   0.038  0.00  0.00    +0.044 C 
ATOM      2  C   UNL     1      -0.237  -0.029   0.015  0.00  0.00    -0.047 A 
ATOM      3  C   UNL     1      -0.233  -0.708  -1.195  0.00  0.00    +0.007 A 
ATOM      4  C   UNL     1       0.027  -2.050  -1.231  0.00  0.00    -0.036 A 
ATOM      5  C   UNL     1       0.289  -2.735  -0.046  0.00  0.00    +0.067 A 
ATOM      6  C   UNL     1       0.283  -2.060   1.186  0.00  0.00    +0.140 A 
ATOM      7  C   UNL     1       0.022  -0.690   1.195  0.00  0.00    +0.050 A 
ATOM      8  O   UNL     1       0.519  -2.692   2.358  0.00  0.00    -0.450 OA
ATOM      9  C   UNL     1       1.002  -3.950   2.351  0.00  0.00    +0.199 A 
ATOM     10  C   UNL     1       1.051  -4.714   1.220  0.00  0.00    +0.072 A 
ATOM     11  C   UNL     1       0.582  -4.191  -0.068  0.00  0.00    +0.199 A 
ATOM     12  O   UNL     1       0.445  -4.884  -1.060  0.00  0.00    -0.287 OA
ATOM     13  C   UNL     1       1.631  -6.040   1.590  0.00  0.00    +0.152 C 
ATOM     14  N   UNL     1       1.915  -5.964   3.033  0.00  0.00    -0.232 N 
ATOM     15  C   UNL     1       1.546  -4.742   3.467  0.00  0.00    +0.289 C 
ATOM     16  O   UNL     1       1.647  -4.351   4.613  0.00  0.00    -0.266 OA
ATOM     17  C   UNL     1       2.465  -6.969   3.806  0.00  0.00    +0.169 A 
ATOM     18  N   UNL     1       2.733  -6.951   5.099  0.00  0.00    -0.229 NA
ATOM     19  C   UNL     1       3.258  -7.986   5.703  0.00  0.00    +0.062 A 
ATOM     20  C   UNL     1       3.515  -9.098   4.911  0.00  0.00    +0.120 A 
ATOM     21  S   UNL     1       2.944  -8.509   3.325  0.00  0.00    -0.045 S 
ATOM     22  C   UNL     1       3.567  -7.973   7.178  0.00  0.00    +0.067 C 
ATOM     23  C   UNL     1       0.031  -2.784  -2.547  0.00  0.00    +0.044 C 
ENDROOT
BRANCH  13  24
ATOM     24  C   UNL     1       0.637  -7.138   1.312  0.00  0.00    -0.019 A 
ATOM     25  C   UNL     1      -0.392  -7.381   2.204  0.00  0.00    +0.006 A 
ATOM     26  C   UNL     1      -1.305  -8.388   1.951  0.00  0.00    +0.004 A 
ATOM     27  C   UNL     1      -1.192  -9.154   0.807  0.00  0.00    +0.045 A 
ATOM     28  C   UNL     1      -0.161  -8.912  -0.089  0.00  0.00    +0.117 A 
ATOM     29  C   UNL     1       0.751  -7.897   0.164  0.00  0.00    +0.051 A 
BRANCH  28  30
ATOM     30  O   UNL     1      -0.047  -9.665  -1.215  0.00  0.00    -0.507 OA
ATOM     31  H   UNL     1      -0.527  -9.309  -1.976  0.00  0.00    +0.292 HD
ENDBRANCH  28  30
ENDBRANCH  13  24
BRANCH  20  32
ATOM     32  C   UNL     1       4.088 -10.392   5.276  0.00  0.00    +0.348 C 
ATOM     33  O   UNL     1       4.416 -10.609   6.427  0.00  0.00    -0.244 OA
BRANCH  32  34
ATOM     34  O   UNL     1       4.253 -11.345   4.335  0.00  0.00    -0.457 OA
BRANCH  34  35
ATOM     35  C   UNL     1       4.819 -12.586   4.762  0.00  0.00    +0.259 C 
BRANCH  35  36
ATOM     36  C   UNL     1       4.926 -13.521   3.585  0.00  0.00    +0.006 C 
ATOM     37  C   UNL     1       6.024 -14.209   3.393  0.00  0.00    +0.007 C 
ENDBRANCH  35  36
ENDBRANCH  34  35
ENDBRANCH  32  34
ENDBRANCH  20  32
TORSDOF 6
