REMARK  Name = ZINC16037698
REMARK  4 active torsions:
REMARK  status: ('A' for Active; 'I' for Inactive)
REMARK    1  A    between atoms: C_4  and  N_7
REMARK    2  A    between atoms: C_12  and  C_14
REMARK    3  A    between atoms: C_17  and  N_20
REMARK    4  A    between atoms: N_25  and  C_28
REMARK                            x       y       z     vdW  Elec       q    Type
REMARK                         _______ _______ _______ _____ _____    ______ ____
ROOT
ATOM      1  N   UNL     1       3.629  -0.634  -0.011  0.00  0.00    -0.237 N 
ATOM      2  C   UNL     1       3.898  -2.078   0.059  0.00  0.00    +0.217 C 
ATOM      3  C   UNL     1       5.117  -2.084   0.989  0.00  0.00    +0.069 C 
ATOM      4  H   UNL     1       5.276   0.559  -0.726  0.00  0.00    +0.170 HD
ATOM      5  C   UNL     1       5.738  -0.900   0.743  0.00  0.00    +0.062 C 
ATOM      6  N   UNL     1       4.968  -0.150  -0.141  0.00  0.00    -0.262 N 
ATOM      7  C   UNL     1       4.928  -3.234   1.760  0.00  0.00    +0.257 C 
ATOM      8  O   UNL     1       5.806  -3.817   2.372  0.00  0.00    -0.269 OA
ATOM      9  N   UNL     1       3.635  -3.604   1.729  0.00  0.00    -0.205 N 
ATOM     10  C   UNL     1       2.901  -2.894   0.824  0.00  0.00    +0.253 C 
ATOM     11  O   UNL     1       1.698  -2.912   0.670  0.00  0.00    -0.272 OA
ENDROOT
BRANCH   9  12
ATOM     12  C   UNL     1       3.097  -4.617   2.534  0.00  0.00    +0.044 A 
ATOM     13  C   UNL     1       1.786  -5.032   2.347  0.00  0.00    +0.027 A 
ATOM     14  C   UNL     1       1.258  -6.031   3.142  0.00  0.00    +0.040 A 
ATOM     15  C   UNL     1       2.037  -6.619   4.125  0.00  0.00    +0.124 A 
ATOM     16  C   UNL     1       3.345  -6.207   4.313  0.00  0.00    +0.040 A 
ATOM     17  C   UNL     1       3.878  -5.212   3.517  0.00  0.00    +0.027 A 
ATOM     18  F   UNL     1       1.519  -7.596   4.901  0.00  0.00    -0.205 F 
ENDBRANCH   9  12
BRANCH   1  22
ATOM     19  C   UNL     1       0.020   1.439   0.110  0.00  0.00    +0.000 A 
ATOM     20  C   UNL     1       1.080   1.853   0.896  0.00  0.00    +0.002 A 
ATOM     21  C   UNL     1       2.279   1.167   0.858  0.00  0.00    +0.025 A 
ATOM     22  C   UNL     1       2.418   0.061   0.029  0.00  0.00    +0.049 A 
ATOM     23  C   UNL     1       1.352  -0.351  -0.759  0.00  0.00    +0.025 A 
ATOM     24  C   UNL     1       0.156   0.339  -0.716  0.00  0.00    +0.002 A 
ENDBRANCH   1  22
BRANCH   5  25
ATOM     25  C   UNL     1       7.030  -0.478   1.320  0.00  0.00    -0.002 A 
ATOM     26  C   UNL     1       7.719  -1.324   2.192  0.00  0.00    +0.012 A 
ATOM     27  C   UNL     1       8.926  -0.923   2.727  0.00  0.00    +0.033 A 
ATOM     28  C   UNL     1       9.453   0.314   2.403  0.00  0.00    +0.126 A 
ATOM     29  C   UNL     1       8.776   1.158   1.540  0.00  0.00    +0.033 A 
ATOM     30  C   UNL     1       7.571   0.767   0.993  0.00  0.00    +0.012 A 
BRANCH  28  31
ATOM     31  N   UNL     1      10.748   0.738   2.981  0.00  0.00    +0.056 N 
ATOM     32  O   UNL     1      11.343   0.003   3.735  0.00  0.00    -0.126 OA
ATOM     33  O   UNL     1      11.212   1.818   2.700  0.00  0.00    -0.126 OA
ENDBRANCH  28  31
ENDBRANCH   5  25
TORSDOF 4
