REMARK  Name = ZINC41547132
REMARK  4 active torsions:
REMARK  status: ('A' for Active; 'I' for Inactive)
REMARK    1  A    between atoms: C_1  and  C_2
REMARK    2  A    between atoms: C_11  and  C_13
REMARK    3  A    between atoms: C_11  and  C_14
REMARK    4  A    between atoms: C_19  and  C_22
REMARK                            x       y       z     vdW  Elec       q    Type
REMARK                         _______ _______ _______ _____ _____    ______ ____
ROOT
ATOM      1  C   UNL     1       0.304  -6.238   1.087  0.00  0.00    +0.269 C 
ATOM      2  O   UNL     1       0.524  -5.046   1.059  0.00  0.00    -0.271 OA
ATOM      3  N   UNL     1       0.151  -6.923  -0.064  0.00  0.00    -0.294 N 
ATOM      4  C   UNL     1      -0.248  -8.341  -0.065  0.00  0.00    +0.113 C 
ATOM      5  C   UNL     1      -1.595  -8.452  -0.783  0.00  0.00    +0.054 C 
ATOM      6  C   UNL     1      -1.578  -7.654  -2.053  0.00  0.00    -0.039 C 
ATOM      7  C   UNL     1      -0.721  -6.694  -2.313  0.00  0.00    -0.004 C 
ATOM      8  C   UNL     1       0.369  -6.282  -1.369  0.00  0.00    +0.135 C 
ENDROOT
BRANCH   1  19
ATOM      9  C   UNL     1       2.080 -10.792   7.194  0.00  0.00    +0.044 C 
ATOM     10  C   UNL     1       1.755 -10.098   5.896  0.00  0.00    -0.048 A 
ATOM     11  C   UNL     1       1.504 -10.844   4.760  0.00  0.00    +0.007 A 
ATOM     12  C   UNL     1       1.211 -10.214   3.564  0.00  0.00    +0.048 A 
ATOM     13  C   UNL     1       1.166  -8.832   3.505  0.00  0.00    +0.144 A 
ATOM     14  C   UNL     1       1.409  -8.080   4.653  0.00  0.00    +0.076 A 
ATOM     15  C   UNL     1       1.705  -8.717   5.847  0.00  0.00    +0.030 A 
ATOM     16  N   UNL     1       1.329  -6.682   4.592  0.00  0.00    -0.279 N 
ATOM     17  C   UNL     1       0.809  -6.099   3.492  0.00  0.00    +0.270 C 
ATOM     18  O   UNL     1       0.831  -4.892   3.374  0.00  0.00    -0.271 OA
ATOM     19  C   UNL     1       0.201  -6.955   2.409  0.00  0.00    +0.258 C 
ATOM     20  O   UNL     1       0.897  -8.200   2.331  0.00  0.00    -0.465 OA
ATOM     21  C   UNL     1      -1.272  -7.215   2.732  0.00  0.00    +0.076 C 
ATOM     22  H   UNL     1       1.643  -6.140   5.333  0.00  0.00    +0.155 HD
ENDBRANCH   1  19
BRANCH   6  23
ATOM     23  C   UNL     1      -2.593  -7.968  -3.077  0.00  0.00    +0.003 A 
ATOM     24  C   UNL     1      -2.606  -9.046  -3.902  0.00  0.00    +0.091 A 
ATOM     25  N   UNL     1      -3.703  -8.992  -4.713  0.00  0.00    -0.360 N 
ATOM     26  H   UNL     1      -3.928  -9.653  -5.386  0.00  0.00    +0.165 HD
ATOM     27  C   UNL     1      -4.445  -7.864  -4.436  0.00  0.00    +0.047 A 
ATOM     28  C   UNL     1      -3.793  -7.176  -3.399  0.00  0.00    +0.008 A 
ATOM     29  C   UNL     1      -4.328  -5.987  -2.905  0.00  0.00    +0.026 A 
ATOM     30  C   UNL     1      -5.501  -5.495  -3.436  0.00  0.00    +0.019 A 
ATOM     31  C   UNL     1      -6.148  -6.177  -4.457  0.00  0.00    +0.017 A 
ATOM     32  C   UNL     1      -5.625  -7.348  -4.961  0.00  0.00    +0.027 A 
ATOM     33 BR   UNL     1      -6.232  -3.884  -2.769  0.00  0.00    -0.050 Br
ENDBRANCH   6  23
TORSDOF 2
