REMARK  Name = ZINC12099016
REMARK  8 active torsions:
REMARK  status: ('A' for Active; 'I' for Inactive)
REMARK    1  A    between atoms: C_1  and  O_2
REMARK    2  A    between atoms: O_2  and  C_3
REMARK    3  A    between atoms: C_9  and  C_10
REMARK    4  A    between atoms: C_17  and  C_19
REMARK    5  A    between atoms: C_19  and  O_21
REMARK    6  A    between atoms: O_21  and  C_22
REMARK    7  A    between atoms: C_27  and  C_28
REMARK    8  A    between atoms: C_27  and  N_64
REMARK                            x       y       z     vdW  Elec       q    Type
REMARK                         _______ _______ _______ _____ _____    ______ ____
ROOT
ATOM      1  C   UNL     1       0.821   3.225  -0.013  0.00  0.00    +0.139 A 
ATOM      2  C   UNL     1       0.750   1.849   0.056  0.00  0.00    +0.116 A 
ATOM      3  C   UNL     1      -0.489   1.246   0.276  0.00  0.00    +0.255 A 
ATOM      4  O   UNL     1      -0.553   0.028   0.319  0.00  0.00    -0.268 OA
ATOM      5  N   UNL     1      -1.623   1.966   0.439  0.00  0.00    -0.313 N 
ATOM      6  C   UNL     1      -1.615   3.302   0.347  0.00  0.00    +0.036 A 
ATOM      7  C   UNL     1      -0.424   3.981   0.130  0.00  0.00    +0.098 A 
ATOM      8  C   UNL     1      -2.863   4.143   0.456  0.00  0.00    +0.036 C 
ATOM      9  C   UNL     1      -3.904   3.481   1.357  0.00  0.00    -0.072 C 
ATOM     10  C   UNL     1      -3.991   1.606  -0.163  0.00  0.00    -0.056 C 
ATOM     11  C   UNL     1      -2.837   1.206   0.758  0.00  0.00    +0.106 C 
ATOM     12  N   UNL     1      -4.783   2.658   0.501  0.00  0.00    +0.384 N 
ATOM     13  H   UNL     1      -5.210   3.258  -0.214  0.00  0.00    -0.081 HD
ENDROOT
BRANCH   7  14
ATOM     14  C   UNL     1      -0.414   5.451   0.045  0.00  0.00    +0.253 C 
ATOM     15  O   UNL     1      -0.094   6.115   1.012  0.00  0.00    -0.270 OA
ATOM     16  N   UNL     1      -0.759   6.062  -1.106  0.00  0.00    -0.284 N 
ATOM     17  C   UNL     1      -1.265   5.283  -2.244  0.00  0.00    +0.109 C 
ATOM     18  C   UNL     1      -0.431   5.610  -3.482  0.00  0.00    +0.019 C 
ATOM     19  C   UNL     1      -0.429   7.124  -3.707  0.00  0.00    +0.004 C 
ATOM     20  C   UNL     1       0.201   7.821  -2.499  0.00  0.00    +0.034 C 
ATOM     21  C   UNL     1      -0.631   7.519  -1.249  0.00  0.00    +0.185 C 
BRANCH  21  22
ATOM     22  C   UNL     1       0.054   8.087  -0.033  0.00  0.00    +0.328 C 
ATOM     23  O   UNL     1       1.173   7.729   0.253  0.00  0.00    -0.249 OA
BRANCH  22  24
ATOM     24  O   UNL     1      -0.578   8.989   0.734  0.00  0.00    -0.467 OA
ATOM     25  C   UNL     1       0.143   9.494   1.889  0.00  0.00    +0.280 C 
ENDBRANCH  22  24
ENDBRANCH  21  22
ENDBRANCH   7  14
BRANCH   1  27
ATOM     26  C   UNL     1       3.177   3.042  -0.221  0.00  0.00    +0.277 C 
ATOM     27  O   UNL     1       2.002   3.856  -0.208  0.00  0.00    -0.494 OA
ENDBRANCH   1  27
BRANCH  12  28
ATOM     28  C   UNL     1      -5.854   2.046   1.317  0.00  0.00    -0.043 C 
BRANCH  28  29
ATOM     29  C   UNL     1      -6.859   1.401   0.397  0.00  0.00    -0.064 A 
ATOM     30  C   UNL     1      -7.932   2.132  -0.077  0.00  0.00    +0.003 A 
ATOM     31  C   UNL     1      -8.850   1.543  -0.925  0.00  0.00    +0.020 A 
ATOM     32  C   UNL     1      -8.702   0.217  -1.290  0.00  0.00    +0.041 A 
ATOM     33  C   UNL     1      -7.631  -0.517  -0.812  0.00  0.00    +0.020 A 
ATOM     34  C   UNL     1      -6.710   0.076   0.032  0.00  0.00    +0.003 A 
ATOM     35 CL   UNL     1      -9.858  -0.526  -2.350  0.00  0.00    -0.084 Cl
ENDBRANCH  28  29
ENDBRANCH  12  28
TORSDOF 6
