REMARK  Name = ZINC26947193
REMARK  5 active torsions:
REMARK  status: ('A' for Active; 'I' for Inactive)
REMARK    1  A    between atoms: C_10  and  S_16
REMARK    2  A    between atoms: S_16  and  C_17
REMARK    3  A    between atoms: C_17  and  C_18
REMARK    4  A    between atoms: C_24  and  C_26
REMARK    5  A    between atoms: C_26  and  C_27
REMARK                            x       y       z     vdW  Elec       q    Type
REMARK                         _______ _______ _______ _____ _____    ______ ____
ROOT
ATOM      1  S   UNL     1      -6.177   6.995   0.092  0.00  0.00    -0.100 S 
ENDROOT
BRANCH   1  11
ATOM      2  C   UNL     1      -0.013   1.076   0.008  0.00  0.00    +0.001 A 
ATOM      3  C   UNL     1       1.177   1.784   0.000  0.00  0.00    +0.002 A 
ATOM      4  C   UNL     1       1.173   3.164   0.007  0.00  0.00    +0.026 A 
ATOM      5  C   UNL     1      -0.031   3.861   0.022  0.00  0.00    +0.050 A 
ATOM      6  C   UNL     1      -1.234   3.141   0.030  0.00  0.00    +0.026 A 
ATOM      7  C   UNL     1      -1.218   1.749   0.017  0.00  0.00    +0.012 A 
ATOM      8  C   UNL     1      -2.328   4.134   0.044  0.00  0.00    +0.120 C 
ATOM      9  N   UNL     1      -3.598   3.853   0.054  0.00  0.00    -0.166 NA
ATOM     10  N   UNL     1      -4.673   4.757   0.069  0.00  0.00    -0.317 NA
ATOM     11  C   UNL     1      -4.617   6.174   0.074  0.00  0.00    +0.080 C 
ATOM     12  C   UNL     1      -3.541   6.978   0.068  0.00  0.00    +0.143 C 
ATOM     13  N   UNL     1      -2.208   6.646   0.054  0.00  0.00    -0.234 NA
ATOM     14  C   UNL     1      -1.660   5.460   0.044  0.00  0.00    +0.157 C 
ATOM     15  N   UNL     1      -0.298   5.227   0.031  0.00  0.00    -0.338 N 
ATOM     16  H   UNL     1       0.531   5.950   0.026  0.00  0.00    +0.167 HD
ATOM     17  H   UNL     1      -5.296   4.600  -0.824  0.00  0.00    +0.146 HD
ATOM     18  H   UNL     1      -5.278   4.592   0.972  0.00  0.00    +0.146 HD
ENDBRANCH   1  11
BRANCH   1  19
ATOM     19  C   UNL     1      -7.285   5.564   0.096  0.00  0.00    +0.171 C 
BRANCH  19  20
ATOM     20  C   UNL     1      -8.716   6.037   0.111  0.00  0.00    +0.229 C 
ATOM     21  O   UNL     1      -8.962   7.224   0.118  0.00  0.00    -0.275 OA
ATOM     22  N   UNL     1      -9.722   5.140   0.116  0.00  0.00    -0.264 N 
ATOM     23  C   UNL     1     -11.042   5.576   0.130  0.00  0.00    +0.165 A 
ATOM     24  N   UNL     1     -11.506   6.810   0.145  0.00  0.00    -0.233 NA
ATOM     25  C   UNL     1     -12.803   7.052   0.152  0.00  0.00    +0.124 A 
ATOM     26  C   UNL     1     -13.656   5.999   0.155  0.00  0.00    +0.015 A 
ATOM     27  S   UNL     1     -12.501   4.636   0.139  0.00  0.00    -0.057 S 
ATOM     28  H   UNL     1      -9.498   4.063   0.109  0.00  0.00    +0.157 HD
BRANCH  26  29
ATOM     29  C   UNL     1     -15.163   5.983   0.169  0.00  0.00    +0.079 C 
BRANCH  29  30
ATOM     30  C   UNL     1     -15.678   5.984  -1.247  0.00  0.00    -0.042 A 
ATOM     31  C   UNL     1     -15.933   7.182  -1.889  0.00  0.00    +0.005 A 
ATOM     32  C   UNL     1     -16.401   7.184  -3.189  0.00  0.00    +0.020 A 
ATOM     33  C   UNL     1     -16.624   5.987  -3.845  0.00  0.00    +0.041 A 
ATOM     34  C   UNL     1     -16.375   4.788  -3.201  0.00  0.00    +0.020 A 
ATOM     35  C   UNL     1     -15.902   4.788  -1.902  0.00  0.00    +0.005 A 
ATOM     36 CL   UNL     1     -17.218   5.988  -5.477  0.00  0.00    -0.084 Cl
ENDBRANCH  29  30
ENDBRANCH  26  29
ENDBRANCH  19  20
ENDBRANCH   1  19
TORSDOF 5
