REMARK  Name = ZINC36603068
REMARK  14 active torsions:
REMARK  status: ('A' for Active; 'I' for Inactive)
REMARK    1  A    between atoms: C_1  and  C_2
REMARK    2  A    between atoms: C_2  and  C_3
REMARK    3  A    between atoms: C_3  and  C_4
REMARK    4  A    between atoms: C_4  and  N_5
REMARK    5  A    between atoms: C_6  and  C_8
REMARK    6  A    between atoms: C_8  and  C_10
REMARK    7  A    between atoms: C_8  and  N_22
REMARK    8  A    between atoms: C_19  and  O_20
REMARK    9  A    between atoms: O_20  and  C_21
REMARK   10  A    between atoms: N_22  and  C_23
REMARK   11  A    between atoms: C_23  and  C_24
REMARK   12  A    between atoms: C_27  and  C_29
REMARK   13  A    between atoms: C_30  and  C_32
REMARK   14  A    between atoms: C_35  and  N_38
REMARK                            x       y       z     vdW  Elec       q    Type
REMARK                         _______ _______ _______ _____ _____    ______ ____
ROOT
ATOM      1  C   UNL     1       1.882  -4.300  -3.620  0.00  0.00    +0.197 C 
ENDROOT
BRANCH   1   2
ATOM      2  C   UNL     1       0.896  -3.707  -4.594  0.00  0.00    +0.031 A 
ATOM      3  C   UNL     1       1.263  -2.609  -5.389  0.00  0.00    -0.009 A 
ATOM      4  C   UNL     1       2.545  -2.039  -5.300  0.00  0.00    +0.009 A 
ATOM      5  C   UNL     1       2.866  -0.976  -6.086  0.00  0.00    +0.001 A 
ATOM      6  C   UNL     1       1.941  -0.441  -6.981  0.00  0.00    +0.001 A 
ATOM      7  C   UNL     1       0.691  -0.966  -7.095  0.00  0.00    +0.008 A 
ATOM      8  C   UNL     1       0.323  -2.064  -6.300  0.00  0.00    -0.017 A 
ATOM      9  C   UNL     1      -0.960  -2.633  -6.391  0.00  0.00    +0.012 A 
ATOM     10  C   UNL     1      -1.284  -3.696  -5.607  0.00  0.00    +0.046 A 
ATOM     11  C   UNL     1      -0.356  -4.238  -4.712  0.00  0.00    +0.126 A 
BRANCH  11  12
ATOM     12  O   UNL     1      -0.708  -5.304  -3.945  0.00  0.00    -0.495 OA
ATOM     13  C   UNL     1      -1.990  -5.885  -4.191  0.00  0.00    +0.277 C 
ENDBRANCH  11  12
ENDBRANCH   1   2
BRANCH   1  15
ATOM     14  N   UNL     1       0.903  -3.155  -1.658  0.00  0.00    -0.313 N 
ATOM     15  C   UNL     1       1.279  -4.311  -2.239  0.00  0.00    +0.238 C 
ATOM     16  O   UNL     1       1.132  -5.361  -1.650  0.00  0.00    -0.273 OA
ATOM     17  H   UNL     1       1.021  -2.315  -2.129  0.00  0.00    +0.149 HD
BRANCH  14  18
ATOM     18  C   UNL     1       0.317  -3.166  -0.316  0.00  0.00    +0.104 C 
BRANCH  18  19
ATOM     19  C   UNL     1      -0.018  -1.734   0.107  0.00  0.00    +0.018 C 
BRANCH  19  21
ATOM     20  C   UNL     1      -0.965  -0.314   1.931  0.00  0.00    +0.004 C 
ATOM     21  C   UNL     1      -0.630  -1.746   1.509  0.00  0.00    -0.002 C 
ENDBRANCH  19  21
ENDBRANCH  18  19
ENDBRANCH  14  18
ENDBRANCH   1  15
BRANCH   1  22
ATOM     22  N   UNL     1       2.203  -5.671  -4.024  0.00  0.00    -0.274 N 
ATOM     23  C   UNL     1       2.907  -6.470  -3.198  0.00  0.00    +0.248 C 
ATOM     24  O   UNL     1       3.275  -7.564  -3.578  0.00  0.00    -0.270 OA
BRANCH  23  25
ATOM     25  C   UNL     1       3.230  -6.015  -1.829  0.00  0.00    +0.037 A 
ATOM     26  C   UNL     1       3.248  -4.652  -1.528  0.00  0.00    +0.015 A 
ATOM     27  C   UNL     1       3.550  -4.235  -0.248  0.00  0.00    +0.033 A 
ATOM     28  C   UNL     1       3.836  -5.164   0.736  0.00  0.00    +0.126 A 
ATOM     29  C   UNL     1       3.821  -6.517   0.445  0.00  0.00    +0.033 A 
ATOM     30  C   UNL     1       3.514  -6.948  -0.829  0.00  0.00    +0.015 A 
BRANCH  28  31
ATOM     31  N   UNL     1       4.160  -4.709   2.107  0.00  0.00    +0.056 N 
ATOM     32  O   UNL     1       4.174  -3.528   2.364  0.00  0.00    -0.126 OA
ATOM     33  O   UNL     1       4.410  -5.519   2.969  0.00  0.00    -0.126 OA
ENDBRANCH  28  31
ENDBRANCH  23  25
BRANCH  22  34
ATOM     34  C   UNL     1       1.760  -6.173  -5.327  0.00  0.00    +0.183 C 
BRANCH  34  35
ATOM     35  C   UNL     1       2.880  -6.037  -6.326  0.00  0.00    +0.122 A 
ATOM     36  C   UNL     1       3.749  -7.004  -6.669  0.00  0.00    +0.046 A 
ATOM     37  C   UNL     1       4.623  -6.447  -7.631  0.00  0.00    +0.045 A 
ATOM     38  C   UNL     1       4.236  -5.172  -7.817  0.00  0.00    +0.102 A 
ATOM     39  O   UNL     1       3.175  -4.932  -7.029  0.00  0.00    -0.463 OA
ATOM     40  C   UNL     1       4.878  -4.184  -8.756  0.00  0.00    +0.086 C 
ENDBRANCH  34  35
ENDBRANCH  22  34
ENDBRANCH   1  22
TORSDOF 11
