REMARK  Name = ZINC04100787
REMARK  4 active torsions:
REMARK  status: ('A' for Active; 'I' for Inactive)
REMARK    1  A    between atoms: C_10  and  O_24
REMARK    2  A    between atoms: C_12  and  O_23
REMARK    3  A    between atoms: C_14  and  O_22
REMARK    4  A    between atoms: C_16  and  O_21
REMARK                            x       y       z     vdW  Elec       q    Type
REMARK                         _______ _______ _______ _____ _____    ______ ____
ROOT
ATOM      1  C   UNL     1      -0.019   1.526   0.010  0.00  0.00    +0.000 C 
ATOM      2  C   UNL     1       1.417   2.055  -0.000  0.00  0.00    +0.005 C 
ATOM      3  C   UNL     1       2.130   1.569  -1.264  0.00  0.00    +0.065 C 
ATOM      4  C   UNL     1       2.139   0.043  -1.289  0.00  0.00    +0.171 C 
ATOM      5  C   UNL     1       0.711  -0.497  -1.262  0.00  0.00    +0.065 C 
ATOM      6  C   UNL     1       0.002  -0.004   0.002  0.00  0.00    +0.005 C 
ATOM      7  O   UNL     1       2.866  -0.457  -0.147  0.00  0.00    -0.340 OA
ATOM      8  C   UNL     1       4.005  -1.122  -0.680  0.00  0.00    +0.184 C 
ATOM      9  C   UNL     1       4.506  -2.348   0.057  0.00  0.00    +0.177 C 
ATOM     10  C   UNL     1       5.703  -2.903  -0.732  0.00  0.00    +0.176 C 
ATOM     11  C   UNL     1       5.316  -3.234  -2.171  0.00  0.00    +0.176 C 
ATOM     12  C   UNL     1       4.688  -2.021  -2.876  0.00  0.00    +0.177 C 
ATOM     13  C   UNL     1       3.482  -1.591  -2.067  0.00  0.00    +0.184 C 
ATOM     14  O   UNL     1       2.797  -0.412  -2.496  0.00  0.00    -0.340 OA
ENDROOT
BRANCH  12  15
ATOM     15  O   UNL     1       5.633  -0.950  -2.934  0.00  0.00    -0.386 OA
ATOM     16  H   UNL     1       6.444  -1.167  -3.414  0.00  0.00    +0.210 HD
ENDBRANCH  12  15
BRANCH  11  17
ATOM     17  O   UNL     1       6.484  -3.637  -2.888  0.00  0.00    -0.386 OA
ATOM     18  H   UNL     1       6.922  -4.417  -2.520  0.00  0.00    +0.210 HD
ENDBRANCH  11  17
BRANCH  10  19
ATOM     19  O   UNL     1       6.748  -1.929  -0.743  0.00  0.00    -0.386 OA
ATOM     20  H   UNL     1       7.540  -2.206  -1.224  0.00  0.00    +0.210 HD
ENDBRANCH  10  19
BRANCH   9  21
ATOM     21  O   UNL     1       4.919  -1.986   1.376  0.00  0.00    -0.386 OA
ATOM     22  H   UNL     1       5.250  -2.727   1.902  0.00  0.00    +0.210 HD
ENDBRANCH   9  21
TORSDOF 4
