REMARK  Name = ZINC39487613
REMARK  10 active torsions:
REMARK  status: ('A' for Active; 'I' for Inactive)
REMARK    1  A    between atoms: C_1  and  C_2
REMARK    2  A    between atoms: C_2  and  C_3
REMARK    3  A    between atoms: C_2  and  C_4
REMARK    4  A    between atoms: C_4  and  C_5
REMARK    5  A    between atoms: C_5  and  C_32
REMARK    6  A    between atoms: N_10  and  C_11
REMARK    7  A    between atoms: C_11  and  C_12
REMARK    8  A    between atoms: C_12  and  C_25
REMARK    9  A    between atoms: N_15  and  C_18
REMARK   10  A    between atoms: C_18  and  C_19
REMARK                            x       y       z     vdW  Elec       q    Type
REMARK                         _______ _______ _______ _____ _____    ______ ____
ROOT
ATOM      1  C   UNL     1       1.886  -2.442  -3.938  0.00  0.00    -0.014 C 
ATOM      2  C   UNL     1       2.127  -1.716  -5.265  0.00  0.00    -0.010 C 
ATOM      3  C   UNL     1       2.004  -0.207  -5.044  0.00  0.00    -0.078 C 
ATOM      4  N   UNL     1       0.660   0.111  -4.548  0.00  0.00    +0.382 N 
ATOM      5  C   UNL     1       0.448  -0.523  -3.242  0.00  0.00    -0.078 C 
ATOM      6  C   UNL     1       0.511  -2.045  -3.393  0.00  0.00    -0.010 C 
ATOM      7  H   UNL     1      -0.028  -0.231  -5.203  0.00  0.00    -0.081 HD
ENDROOT
BRANCH   1   8
ATOM      8  C   UNL     1       1.929  -3.954  -4.165  0.00  0.00    -0.003 C 
ATOM      9  C   UNL     1       3.223  -4.324  -4.892  0.00  0.00    +0.004 C 
ATOM     10  C   UNL     1       3.267  -5.837  -5.119  0.00  0.00    +0.000 C 
ATOM     11  C   UNL     1       2.066  -6.260  -5.967  0.00  0.00    +0.000 C 
ATOM     12  C   UNL     1       0.772  -5.890  -5.240  0.00  0.00    +0.000 C 
ATOM     13  C   UNL     1       0.729  -4.377  -5.013  0.00  0.00    +0.004 C 
ENDBRANCH   1   8
BRANCH   1  14
ATOM     14  C   UNL     1       2.969  -2.044  -2.933  0.00  0.00    +0.117 C 
BRANCH  14  20
ATOM     15  C   UNL     1       3.427  -3.768  -1.030  0.00  0.00    +0.053 C 
ATOM     16  C   UNL     1       2.709  -4.011   0.312  0.00  0.00    +0.148 C 
ATOM     17  N   UNL     1       1.632  -3.010   0.322  0.00  0.00    -0.220 N 
ATOM     18  C   UNL     1       1.688  -2.292  -0.808  0.00  0.00    +0.315 C 
ATOM     19  O   UNL     1       0.910  -1.393  -1.062  0.00  0.00    -0.252 OA
ATOM     20  N   UNL     1       2.678  -2.656  -1.634  0.00  0.00    -0.277 N 
ATOM     21 BR   UNL     1       0.397  -2.777   1.679  0.00  0.00    +0.040 Br
ATOM     22  C   UNL     1       4.886  -3.370  -0.798  0.00  0.00    +0.033 C 
BRANCH  15  23
ATOM     23  C   UNL     1       3.346  -5.014  -1.915  0.00  0.00    +0.030 C 
BRANCH  23  25
ATOM     24  C   UNL     1       3.695  -6.572   0.007  0.00  0.00    +0.007 C 
ATOM     25  C   UNL     1       4.250  -6.107  -1.341  0.00  0.00    -0.015 C 
ATOM     26  C   UNL     1       4.296  -7.291  -2.309  0.00  0.00    +0.007 C 
ENDBRANCH  23  25
ENDBRANCH  15  23
ENDBRANCH  14  20
ENDBRANCH   1  14
BRANCH   4  27
ATOM     27  C   UNL     1       0.521   1.567  -4.412  0.00  0.00    -0.043 C 
BRANCH  27  28
ATOM     28  C   UNL     1      -0.882   1.899  -3.976  0.00  0.00    -0.064 A 
ATOM     29  C   UNL     1      -1.891   2.010  -4.915  0.00  0.00    +0.002 A 
ATOM     30  C   UNL     1      -3.178   2.315  -4.514  0.00  0.00    +0.000 A 
ATOM     31  C   UNL     1      -3.457   2.509  -3.175  0.00  0.00    +0.000 A 
ATOM     32  C   UNL     1      -2.450   2.397  -2.235  0.00  0.00    +0.000 A 
ATOM     33  C   UNL     1      -1.163   2.088  -2.635  0.00  0.00    +0.002 A 
ENDBRANCH  27  28
ENDBRANCH   4  27
TORSDOF 7
