REMARK  Name = ZINC09542460
REMARK  11 active torsions:
REMARK  status: ('A' for Active; 'I' for Inactive)
REMARK    1  A    between atoms: C_1  and  C_2
REMARK    2  A    between atoms: C_2  and  C_3
REMARK    3  A    between atoms: C_6  and  C_9
REMARK    4  A    between atoms: C_11  and  C_26
REMARK    5  A    between atoms: C_13  and  C_16
REMARK    6  A    between atoms: C_20  and  O_23
REMARK    7  A    between atoms: C_21  and  O_22
REMARK    8  A    between atoms: O_23  and  C_24
REMARK    9  A    between atoms: C_24  and  C_25
REMARK   10  A    between atoms: C_31  and  O_32
REMARK   11  A    between atoms: O_32  and  C_33
REMARK                            x       y       z     vdW  Elec       q    Type
REMARK                         _______ _______ _______ _____ _____    ______ ____
ROOT
ATOM      1  C   UNL     1       1.324   1.102  -2.381  0.00  0.00    +0.040 C 
ATOM      2  N   UNL     1       1.972   1.360  -1.308  0.00  0.00    -0.298 NA
ATOM      3  C   UNL     1       1.351   1.549  -0.003  0.00  0.00    +0.084 C 
ATOM      4  C   UNL     1      -0.777   1.529  -1.137  0.00  0.00    -0.028 C 
ATOM      5  C   UNL     1      -0.172   0.953  -2.421  0.00  0.00    +0.044 C 
ATOM      6  N   UNL     1      -0.013   1.002   0.011  0.00  0.00    +0.401 N 
ATOM      7  H   UNL     1      -0.480   1.273   0.884  0.00  0.00    -0.081 HD
ATOM      8  H   UNL     1       0.030  -0.022  -0.050  0.00  0.00    -0.081 HD
ENDROOT
BRANCH   3   9
ATOM      9  C   UNL     1       2.175   0.846   1.046  0.00  0.00    +0.002 A 
ATOM     10  C   UNL     1       1.557   0.274   2.141  0.00  0.00    +0.022 A 
ATOM     11  C   UNL     1       2.312  -0.376   3.101  0.00  0.00    +0.018 A 
ATOM     12  C   UNL     1       3.688  -0.445   2.972  0.00  0.00    +0.019 A 
ATOM     13  C   UNL     1       4.310   0.131   1.881  0.00  0.00    +0.047 A 
ATOM     14  C   UNL     1       3.554   0.778   0.914  0.00  0.00    +0.123 A 
ATOM     15 BR   UNL     1       1.463  -1.165   4.595  0.00  0.00    -0.050 Br
BRANCH  14  16
ATOM     16  O   UNL     1       4.164   1.345  -0.159  0.00  0.00    -0.495 OA
ATOM     17  C   UNL     1       5.587   1.236  -0.229  0.00  0.00    +0.277 C 
ENDBRANCH  14  16
ENDBRANCH   3   9
BRANCH   1  21
ATOM     18  C   UNL     1       3.500   0.649  -5.998  0.00  0.00    -0.048 A 
ATOM     19  C   UNL     1       4.171   0.928  -4.821  0.00  0.00    +0.004 A 
ATOM     20  C   UNL     1       3.470   1.077  -3.642  0.00  0.00    +0.010 A 
ATOM     21  C   UNL     1       2.080   0.945  -3.638  0.00  0.00    -0.004 A 
ATOM     22  C   UNL     1       1.410   0.658  -4.829  0.00  0.00    +0.010 A 
ATOM     23  C   UNL     1       2.122   0.518  -6.002  0.00  0.00    +0.004 A 
BRANCH  18  25
ATOM     24  C   UNL     1       4.668  -0.979  -7.458  0.00  0.00    +0.009 C 
ATOM     25  C   UNL     1       4.272   0.488  -7.282  0.00  0.00    +0.032 C 
ENDBRANCH  18  25
ENDBRANCH   1  21
BRANCH   4  26
ATOM     26  C   UNL     1      -2.219   1.106  -1.020  0.00  0.00    -0.016 A 
ATOM     27  C   UNL     1      -2.561   0.029  -0.223  0.00  0.00    +0.006 A 
ATOM     28  C   UNL     1      -3.883  -0.359  -0.111  0.00  0.00    +0.004 A 
ATOM     29  C   UNL     1      -4.868   0.322  -0.803  0.00  0.00    +0.049 A 
ATOM     30  C   UNL     1      -4.531   1.398  -1.607  0.00  0.00    +0.162 A 
ATOM     31  C   UNL     1      -3.200   1.792  -1.717  0.00  0.00    +0.160 A 
BRANCH  31  32
ATOM     32  O   UNL     1      -2.864   2.848  -2.505  0.00  0.00    -0.503 OA
ATOM     33  H   UNL     1      -2.662   2.607  -3.420  0.00  0.00    +0.292 HD
ENDBRANCH  31  32
BRANCH  30  34
ATOM     34  O   UNL     1      -5.498   2.069  -2.289  0.00  0.00    -0.489 OA
BRANCH  34  35
ATOM     35  C   UNL     1      -6.842   1.609  -2.129  0.00  0.00    +0.226 C 
ATOM     36  C   UNL     1      -7.782   2.481  -2.965  0.00  0.00    +0.048 C 
ENDBRANCH  34  35
ENDBRANCH  30  34
ENDBRANCH   4  26
TORSDOF 8
