REMARK  Name = ZINC64143443
REMARK  4 active torsions:
REMARK  status: ('A' for Active; 'I' for Inactive)
REMARK    1  A    between atoms: C_1  and  C_2
REMARK    2  A    between atoms: C_11  and  C_13
REMARK    3  A    between atoms: N_29  and  C_30
REMARK    4  A    between atoms: C_30  and  C_31
REMARK                            x       y       z     vdW  Elec       q    Type
REMARK                         _______ _______ _______ _____ _____    ______ ____
ROOT
ATOM      1  C   UNL     1      -0.016   1.518  -0.022  0.00  0.00    +0.014 C 
ATOM      2  C   UNL     1      -0.000  -0.012  -0.009  0.00  0.00    +0.044 C 
ATOM      3  C   UNL     1      -1.419  -0.518   0.012  0.00  0.00    +0.028 A 
ATOM      4  C   UNL     1      -2.307  -0.627  -1.071  0.00  0.00    +0.127 A 
ATOM      5  N   UNL     1      -3.537  -1.083  -0.869  0.00  0.00    -0.221 NA
ATOM      6  C   UNL     1      -3.955  -1.440   0.328  0.00  0.00    +0.224 A 
ATOM      7  N   UNL     1      -3.157  -1.364   1.377  0.00  0.00    -0.229 NA
ATOM      8  C   UNL     1      -1.915  -0.926   1.248  0.00  0.00    +0.106 A 
ATOM      9  S   UNL     1      -0.585  -0.735   2.412  0.00  0.00    -0.092 S 
ATOM     10  C   UNL     1       0.797  -0.498   1.223  0.00  0.00    +0.146 C 
ATOM     11  N   UNL     1      -1.902  -0.259  -2.345  0.00  0.00    -0.325 N 
ATOM     12  H   UNL     1      -1.002   0.075  -2.490  0.00  0.00    +0.148 HD
ENDROOT
BRANCH  10  13
ATOM     13  C   UNL     1       1.506  -1.798   0.941  0.00  0.00    +0.230 C 
ATOM     14  O   UNL     1       0.994  -2.622   0.213  0.00  0.00    -0.274 OA
ATOM     15  N   UNL     1       2.708  -2.044   1.497  0.00  0.00    -0.298 N 
ATOM     16  C   UNL     1       3.261  -1.102   2.477  0.00  0.00    +0.112 C 
ATOM     17  C   UNL     1       3.539  -1.842   3.798  0.00  0.00    +0.052 C 
ATOM     18  C   UNL     1       4.231  -3.132   3.435  0.00  0.00    -0.036 C 
ATOM     19  C   UNL     1       5.361  -3.675   3.871  0.00  0.00    -0.001 A 
ATOM     20  C   UNL     1       6.290  -3.277   4.941  0.00  0.00    +0.010 A 
ATOM     21  C   UNL     1       7.383  -4.067   5.110  0.00  0.00    +0.001 A 
ATOM     22  C   UNL     1       7.641  -5.200   4.332  0.00  0.00    +0.002 A 
ATOM     23  C   UNL     1       6.837  -5.644   3.333  0.00  0.00    +0.026 A 
ATOM     24  C   UNL     1       5.651  -4.900   3.065  0.00  0.00    +0.043 A 
ATOM     25  N   UNL     1       4.706  -5.108   2.197  0.00  0.00    -0.376 N 
ATOM     26  C   UNL     1       3.675  -4.086   2.384  0.00  0.00    +0.124 C 
ATOM     27  C   UNL     1       3.450  -3.257   1.120  0.00  0.00    +0.136 C 
ATOM     28  H   UNL     1       4.687  -5.819   1.538  0.00  0.00    +0.160 HD
ENDBRANCH  10  13
BRANCH  11  29
ATOM     29  C   UNL     1      -2.831  -0.374  -3.471  0.00  0.00    +0.138 C 
BRANCH  29  30
ATOM     30  C   UNL     1      -2.149   0.087  -4.734  0.00  0.00    -0.027 A 
ATOM     31  C   UNL     1      -2.214   1.416  -5.107  0.00  0.00    +0.009 A 
ATOM     32  C   UNL     1      -1.590   1.844  -6.264  0.00  0.00    +0.050 A 
ATOM     33  C   UNL     1      -0.897   0.939  -7.053  0.00  0.00    +0.166 A 
ATOM     34  C   UNL     1      -0.832  -0.400  -6.677  0.00  0.00    +0.167 A 
ATOM     35  C   UNL     1      -1.455  -0.820  -5.513  0.00  0.00    +0.054 A 
ATOM     36  O   UNL     1      -0.101  -1.079  -7.608  0.00  0.00    -0.453 OA
ATOM     37  C   UNL     1      -0.065  -0.225  -8.767  0.00  0.00    +0.466 C 
ATOM     38  O   UNL     1      -0.208   1.099  -8.220  0.00  0.00    -0.453 OA
ENDBRANCH  29  30
ENDBRANCH  11  29
TORSDOF 3
