REMARK  Name = ZINC58900037
REMARK  8 active torsions:
REMARK  status: ('A' for Active; 'I' for Inactive)
REMARK    1  A    between atoms: C_1  and  C_2
REMARK    2  A    between atoms: N_5  and  C_7
REMARK    3  A    between atoms: C_7  and  N_9
REMARK    4  A    between atoms: C_11  and  N_29
REMARK    5  A    between atoms: C_12  and  C_27
REMARK    6  A    between atoms: C_13  and  C_15
REMARK    7  A    between atoms: C_24  and  O_25
REMARK    8  A    between atoms: O_25  and  C_26
REMARK                            x       y       z     vdW  Elec       q    Type
REMARK                         _______ _______ _______ _____ _____    ______ ____
ROOT
ATOM      1  C   UNL     1      -0.079   1.597  -0.063  0.00  0.00    +0.068 C 
ATOM      2  C   UNL     1      -0.043   0.091  -0.015  0.00  0.00    +0.068 A 
ATOM      3  C   UNL     1      -0.011  -0.758  -1.116  0.00  0.00    +0.050 A 
ATOM      4  C   UNL     1       0.015  -2.044  -0.658  0.00  0.00    +0.231 A 
ATOM      5  N   UNL     1       0.001  -1.994   0.696  0.00  0.00    -0.179 N 
ATOM      6  N   UNL     1      -0.031  -0.642   1.071  0.00  0.00    -0.167 NA
ATOM      7  O   UNL     1       0.046  -3.116  -1.486  0.00  0.00    -0.423 OA
ATOM      8  C   UNL     1      -0.224  -2.906  -2.791  0.00  0.00    +0.200 C 
ATOM      9  C   UNL     1      -0.265  -1.682  -3.362  0.00  0.00    +0.098 C 
ATOM     10  C   UNL     1      -0.003  -0.417  -2.584  0.00  0.00    +0.105 C 
ENDROOT
BRANCH  10  11
ATOM     11  C   UNL     1       1.340   0.147  -2.968  0.00  0.00    +0.015 A 
ATOM     12  C   UNL     1       1.431   1.425  -3.543  0.00  0.00    -0.010 A 
ATOM     13  C   UNL     1       0.284   2.205  -3.773  0.00  0.00    +0.009 A 
ATOM     14  C   UNL     1       0.409   3.439  -4.332  0.00  0.00    +0.001 A 
ATOM     15  C   UNL     1       1.660   3.945  -4.681  0.00  0.00    +0.001 A 
ATOM     16  C   UNL     1       2.793   3.219  -4.473  0.00  0.00    +0.008 A 
ATOM     17  C   UNL     1       2.703   1.940  -3.898  0.00  0.00    -0.017 A 
ATOM     18  C   UNL     1       3.852   1.163  -3.668  0.00  0.00    +0.012 A 
ATOM     19  C   UNL     1       3.730  -0.071  -3.109  0.00  0.00    +0.046 A 
ATOM     20  C   UNL     1       2.477  -0.579  -2.754  0.00  0.00    +0.125 A 
BRANCH  20  21
ATOM     21  O   UNL     1       2.388  -1.813  -2.192  0.00  0.00    -0.495 OA
ATOM     22  C   UNL     1       3.611  -2.525  -1.993  0.00  0.00    +0.277 C 
ENDBRANCH  20  21
ENDBRANCH  10  11
BRANCH   8  23
ATOM     23  N   UNL     1      -0.472  -3.999  -3.584  0.00  0.00    -0.328 N 
ATOM     24  H   UNL     1      -0.449  -4.890  -3.203  0.00  0.00    +0.145 HD
ATOM     25  H   UNL     1      -0.669  -3.879  -4.526  0.00  0.00    +0.145 HD
ENDBRANCH   8  23
BRANCH   5  26
ATOM     26  C   UNL     1       0.018  -3.052   1.531  0.00  0.00    +0.167 C 
ATOM     27  S   UNL     1       0.064  -4.642   0.898  0.00  0.00    -0.014 S 
BRANCH  26  28
ATOM     28  N   UNL     1       0.001  -2.857   2.865  0.00  0.00    -0.337 N 
ATOM     29  H   UNL     1      -0.025  -1.957   3.223  0.00  0.00    +0.144 HD
ATOM     30  H   UNL     1       0.013  -3.619   3.466  0.00  0.00    +0.144 HD
ENDBRANCH  26  28
ENDBRANCH   5  26
BRANCH   9  31
ATOM     31  C   UNL     1      -0.567  -1.583  -4.758  0.00  0.00    +0.101 C 
ATOM     32  N   UNL     1      -0.807  -1.504  -5.866  0.00  0.00    -0.191 NA
ENDBRANCH   9  31
TORSDOF 6
