REMARK  Name = ZINC11986671
REMARK  4 active torsions:
REMARK  status: ('A' for Active; 'I' for Inactive)
REMARK    1  A    between atoms: C_1  and  C_2
REMARK    2  A    between atoms: C_4  and  C_20
REMARK    3  A    between atoms: C_7  and  C_17
REMARK    4  A    between atoms: C_17  and  C_18
REMARK                            x       y       z     vdW  Elec       q    Type
REMARK                         _______ _______ _______ _____ _____    ______ ____
ROOT
ATOM      1  C   UNL     1       2.458   1.029  -0.229  0.00  0.00    +0.044 C 
ATOM      2  C   UNL     1       1.150   1.774  -0.172  0.00  0.00    -0.048 A 
ATOM      3  C   UNL     1       1.150   3.165  -0.233  0.00  0.00    +0.007 A 
ATOM      4  C   UNL     1      -0.017   3.866  -0.184  0.00  0.00    -0.041 A 
ATOM      5  C   UNL     1      -1.235   3.179  -0.070  0.00  0.00    +0.002 A 
ATOM      6  C   UNL     1      -2.463   3.871  -0.017  0.00  0.00    +0.018 A 
ATOM      7  C   UNL     1      -3.611   3.143   0.078  0.00  0.00    +0.005 A 
ATOM      8  C   UNL     1      -3.547   1.743   0.136  0.00  0.00    +0.103 A 
ATOM      9  C   UNL     1      -1.238   1.765  -0.013  0.00  0.00    +0.048 A 
ATOM     10  C   UNL     1      -0.014   1.076  -0.060  0.00  0.00    +0.029 A 
ATOM     11  N   UNL     1      -4.723   1.016   0.243  0.00  0.00    -0.312 N 
ATOM     12  C   UNL     1      -4.739   0.218   1.478  0.00  0.00    +0.134 C 
ATOM     13  C   UNL     1      -6.075  -0.520   1.586  0.00  0.00    +0.178 C 
ATOM     14  O   UNL     1      -6.264  -1.325   0.419  0.00  0.00    -0.377 OA
ATOM     15  C   UNL     1      -6.255  -0.581  -0.802  0.00  0.00    +0.178 C 
ATOM     16  C   UNL     1      -4.920   0.157  -0.933  0.00  0.00    +0.134 C 
ATOM     17  C   UNL     1       0.001   5.372  -0.253  0.00  0.00    +0.044 C 
ATOM     18  N   UNL     1      -2.396   1.026   0.094  0.00  0.00    -0.343 N 
ATOM     19  H   UNL     1      -2.389   0.001   0.140  0.00  0.00    +0.167 HD
ENDROOT
BRANCH   7  20
ATOM     20  C   UNL     1      -4.945   3.841   0.133  0.00  0.00    +0.157 C 
BRANCH  20  21
ATOM     21  C   UNL     1      -5.348   4.021   1.537  0.00  0.00    +0.067 C 
ATOM     22  N   UNL     1      -5.659   4.159   2.621  0.00  0.00    -0.196 NA
ENDBRANCH  20  21
ENDBRANCH   7  20
TORSDOF 2
