REMARK  Name = ZINC56936215
REMARK  8 active torsions:
REMARK  status: ('A' for Active; 'I' for Inactive)
REMARK    1  A    between atoms: C_1  and  C_2
REMARK    2  A    between atoms: C_2  and  C_3
REMARK    3  A    between atoms: C_3  and  C_4
REMARK    4  A    between atoms: C_5  and  C_9
REMARK    5  A    between atoms: N_14  and  C_17
REMARK    6  A    between atoms: C_18  and  C_31
REMARK    7  A    between atoms: N_20  and  C_23
REMARK    8  A    between atoms: C_21  and  C_22
REMARK                            x       y       z     vdW  Elec       q    Type
REMARK                         _______ _______ _______ _____ _____    ______ ____
ROOT
ATOM      1  C   UNL     1      -1.421  -2.343  -2.571  0.00  0.00    +0.257 C 
ATOM      2  O   UNL     1      -1.542  -1.161  -2.834  0.00  0.00    -0.269 OA
ATOM      3  N   UNL     1      -1.312  -3.247  -3.565  0.00  0.00    -0.294 N 
ATOM      4  C   UNL     1      -1.296  -4.686  -3.269  0.00  0.00    +0.127 C 
ATOM      5  C   UNL     1      -2.407  -5.366  -4.078  0.00  0.00    +0.124 C 
ATOM      6  N   UNL     1      -2.303  -4.929  -5.478  0.00  0.00    -0.324 N 
ATOM      7  C   UNL     1      -2.319  -3.490  -5.774  0.00  0.00    +0.124 C 
ATOM      8  C   UNL     1      -1.213  -2.811  -4.965  0.00  0.00    +0.127 C 
ENDROOT
BRANCH   6   9
ATOM      9  C   UNL     1      -2.189  -5.874  -6.516  0.00  0.00    +0.074 A 
ATOM     10  C   UNL     1      -0.993  -6.399  -7.026  0.00  0.00    +0.081 A 
ATOM     11  N   UNL     1      -1.288  -7.245  -7.979  0.00  0.00    -0.174 NA
ATOM     12  N   UNL     1      -2.682  -7.291  -8.113  0.00  0.00    -0.262 N 
ATOM     13  C   UNL     1      -3.217  -6.441  -7.196  0.00  0.00    +0.058 A 
ATOM     14  C   UNL     1      -4.684  -6.175  -6.978  0.00  0.00    +0.067 C 
ATOM     15  C   UNL     1       0.396  -6.049  -6.557  0.00  0.00    +0.069 C 
BRANCH  12  16
ATOM     16  C   UNL     1      -3.431  -8.113  -9.066  0.00  0.00    +0.130 C 
ATOM     17  C   UNL     1      -3.010  -7.744 -10.499  0.00  0.00    +0.051 C 
ATOM     18  C   UNL     1      -3.572  -8.827 -11.463  0.00  0.00    +0.168 C 
ATOM     19  S   UNL     1      -3.260 -10.352 -10.476  0.00  0.00    -0.029 S 
ATOM     20  O   UNL     1      -1.995 -10.887 -10.840  0.00  0.00    -0.174 OA
ATOM     21  O   UNL     1      -4.412 -11.182 -10.531  0.00  0.00    -0.174 OA
ATOM     22  C   UNL     1      -3.135  -9.609  -8.800  0.00  0.00    +0.192 C 
ENDBRANCH  12  16
ENDBRANCH   6   9
BRANCH   1  24
ATOM     23  C   UNL     1      -2.060  -2.277  -0.059  0.00  0.00    +0.084 A 
ATOM     24  C   UNL     1      -1.395  -2.785  -1.168  0.00  0.00    +0.117 A 
ATOM     25  S   UNL     1      -0.498  -4.128  -0.406  0.00  0.00    +0.041 S 
ATOM     26  N   UNL     1      -1.018  -3.921   1.116  0.00  0.00    -0.110 NA
ATOM     27  N   UNL     1      -1.808  -2.909   1.061  0.00  0.00    -0.145 NA
BRANCH  23  28
ATOM     28  C   UNL     1      -2.990  -1.093  -0.136  0.00  0.00    +0.058 C 
BRANCH  28  30
ATOM     29  C   UNL     1      -3.139   1.396   0.011  0.00  0.00    +0.004 C 
ATOM     30  C   UNL     1      -2.195   0.195   0.090  0.00  0.00    +0.003 C 
ENDBRANCH  28  30
ENDBRANCH  23  28
ENDBRANCH   1  24
TORSDOF 5
