REMARK  Name = ZINC20533083
REMARK  7 active torsions:
REMARK  status: ('A' for Active; 'I' for Inactive)
REMARK    1  A    between atoms: C_1  and  C_2
REMARK    2  A    between atoms: N_5  and  S_8
REMARK    3  A    between atoms: S_8  and  N_11
REMARK    4  A    between atoms: C_15  and  C_18
REMARK    5  A    between atoms: N_20  and  C_21
REMARK    6  A    between atoms: C_26  and  C_27
REMARK    7  A    between atoms: C_27  and  C_29
REMARK                            x       y       z     vdW  Elec       q    Type
REMARK                         _______ _______ _______ _____ _____    ______ ____
ROOT
ATOM      1  C   UNL     1       3.761   3.413  -1.018  0.00  0.00    +0.222 C 
ATOM      2  O   UNL     1       3.869   2.210  -0.908  0.00  0.00    -0.275 OA
ATOM      3  N   UNL     1       2.576   4.008  -0.779  0.00  0.00    -0.285 N 
ATOM      4  H   UNL     1       2.500   5.105  -0.791  0.00  0.00    +0.155 HD
ENDROOT
BRANCH   3   5
ATOM      5  C   UNL     1       1.449   3.234  -0.515  0.00  0.00    +0.044 A 
ATOM      6  C   UNL     1       1.415   1.899  -0.895  0.00  0.00    +0.025 A 
ATOM      7  C   UNL     1       0.297   1.133  -0.633  0.00  0.00    +0.022 A 
ATOM      8  C   UNL     1      -0.802   1.690   0.005  0.00  0.00    +0.042 A 
ATOM      9  C   UNL     1      -0.785   3.013   0.394  0.00  0.00    +0.033 A 
ATOM     10  C   UNL     1       0.341   3.800   0.135  0.00  0.00    +0.045 A 
ATOM     11 CL   UNL     1      -2.203   0.715   0.321  0.00  0.00    -0.084 Cl
BRANCH  10  12
ATOM     12  C   UNL     1       0.364   5.217   0.543  0.00  0.00    +0.195 C 
ATOM     13  O   UNL     1      -0.256   6.044  -0.096  0.00  0.00    -0.287 OA
BRANCH  12  14
ATOM     14  C   UNL     1       1.142   5.631   1.730  0.00  0.00    +0.022 A 
ATOM     15  C   UNL     1       1.758   4.670   2.535  0.00  0.00    +0.012 A 
ATOM     16  C   UNL     1       2.486   5.064   3.639  0.00  0.00    +0.001 A 
ATOM     17  C   UNL     1       2.599   6.407   3.953  0.00  0.00    +0.000 A 
ATOM     18  C   UNL     1       1.988   7.364   3.162  0.00  0.00    +0.001 A 
ATOM     19  C   UNL     1       1.261   6.984   2.053  0.00  0.00    +0.012 A 
ENDBRANCH  12  14
ENDBRANCH  10  12
ENDBRANCH   3   5
BRANCH   1  24
ATOM     20  N   UNL     1       7.278   4.131  -2.156  0.00  0.00    -0.166 NA
ATOM     21  C   UNL     1       7.059   4.951  -3.355  0.00  0.00    +0.110 C 
ATOM     22  C   UNL     1       5.838   5.847  -3.124  0.00  0.00    +0.018 C 
ATOM     23  C   UNL     1       4.641   4.979  -2.728  0.00  0.00    +0.015 C 
ATOM     24  C   UNL     1       4.953   4.241  -1.424  0.00  0.00    +0.091 C 
ATOM     25  C   UNL     1       6.163   3.327  -1.636  0.00  0.00    +0.123 C 
BRANCH  20  26
ATOM     26  S   UNL     1       8.753   4.113  -1.404  0.00  0.00    +0.100 S 
ATOM     27  O   UNL     1       8.831   2.887  -0.690  0.00  0.00    -0.141 OA
ATOM     28  O   UNL     1       9.713   4.487  -2.383  0.00  0.00    -0.141 OA
BRANCH  26  33
ATOM     29  C   UNL     1      10.782   7.443   2.800  0.00  0.00    +0.007 C 
ATOM     30  C   UNL     1       9.720   6.975   1.804  0.00  0.00    -0.012 C 
ATOM     31  C   UNL     1       9.374   5.510   2.078  0.00  0.00    +0.020 C 
ATOM     32  C   UNL     1       8.285   5.055   1.101  0.00  0.00    +0.111 C 
ATOM     33  N   UNL     1       8.739   5.321  -0.270  0.00  0.00    -0.166 NA
ATOM     34  C   UNL     1       9.187   6.677  -0.616  0.00  0.00    +0.111 C 
ATOM     35  C   UNL     1      10.260   7.115   0.379  0.00  0.00    +0.020 C 
ENDBRANCH  26  33
ENDBRANCH  20  26
ENDBRANCH   1  24
TORSDOF 6
