REMARK  Name = ZINC12535515
REMARK  5 active torsions:
REMARK  status: ('A' for Active; 'I' for Inactive)
REMARK    1  A    between atoms: C_1  and  C_2
REMARK    2  A    between atoms: C_4  and  C_16
REMARK    3  A    between atoms: N_18  and  C_19
REMARK    4  A    between atoms: C_19  and  C_21
REMARK    5  A    between atoms: C_19  and  C_27
REMARK                            x       y       z     vdW  Elec       q    Type
REMARK                         _______ _______ _______ _____ _____    ______ ____
ROOT
ATOM      1  C   UNL     1       0.287   3.442   5.078  0.00  0.00    +0.247 C 
ATOM      2  O   UNL     1       1.317   3.290   4.451  0.00  0.00    -0.270 OA
ATOM      3  N   UNL     1       0.320   4.002   6.303  0.00  0.00    -0.300 N 
ATOM      4  H   UNL     1      -0.502   4.123   6.803  0.00  0.00    +0.150 HD
ENDROOT
BRANCH   1   8
ATOM      5  C   UNL     1      -4.674   2.932   5.380  0.00  0.00    +0.065 C 
ATOM      6  C   UNL     1      -3.385   2.757   4.620  0.00  0.00    +0.041 A 
ATOM      7  C   UNL     1      -2.198   3.174   5.197  0.00  0.00    +0.038 A 
ATOM      8  C   UNL     1      -1.002   3.011   4.497  0.00  0.00    +0.067 A 
ATOM      9  C   UNL     1      -1.062   2.422   3.217  0.00  0.00    +0.120 A 
ATOM     10  C   UNL     1      -2.317   2.034   2.706  0.00  0.00    +0.161 A 
ATOM     11  N   UNL     1      -3.414   2.212   3.421  0.00  0.00    -0.233 NA
ATOM     12  N   UNL     1      -2.065   1.509   1.457  0.00  0.00    -0.312 N 
ATOM     13  C   UNL     1      -0.721   1.573   1.250  0.00  0.00    +0.112 A 
ATOM     14  N   UNL     1      -0.140   2.115   2.285  0.00  0.00    -0.230 NA
ATOM     15  C   UNL     1      -0.013   1.086   0.008  0.00  0.00    +0.074 C 
ATOM     16  C   UNL     1      -0.754   1.593  -1.231  0.00  0.00    +0.008 C 
ATOM     17  C   UNL     1      -1.839   0.595  -1.622  0.00  0.00    +0.002 C 
ATOM     18  C   UNL     1      -2.422  -0.073  -0.377  0.00  0.00    +0.022 C 
ATOM     19  C   UNL     1      -3.064   0.987   0.520  0.00  0.00    +0.125 C 
ENDBRANCH   1   8
BRANCH   3  20
ATOM     20  C   UNL     1       1.597   4.429   6.879  0.00  0.00    +0.134 C 
BRANCH  20  21
ATOM     21  C   UNL     1       1.353   5.520   7.889  0.00  0.00    -0.023 A 
ATOM     22  C   UNL     1       0.264   5.445   8.738  0.00  0.00    +0.006 A 
ATOM     23  C   UNL     1       0.043   6.444   9.668  0.00  0.00    +0.000 A 
ATOM     24  C   UNL     1       0.905   7.522   9.743  0.00  0.00    +0.000 A 
ATOM     25  C   UNL     1       1.991   7.599   8.891  0.00  0.00    +0.000 A 
ATOM     26  C   UNL     1       2.215   6.598   7.964  0.00  0.00    +0.006 A 
ENDBRANCH  20  21
BRANCH  20  27
ATOM     27  C   UNL     1       2.260   3.256   7.556  0.00  0.00    -0.020 A 
ATOM     28  C   UNL     1       1.515   2.352   8.299  0.00  0.00    +0.025 A 
ATOM     29  C   UNL     1       2.157   1.287   8.902  0.00  0.00    +0.111 A 
ATOM     30  N   UNL     1       3.461   1.131   8.785  0.00  0.00    -0.263 NA
ATOM     31  C   UNL     1       4.201   1.973   8.090  0.00  0.00    +0.111 A 
ATOM     32  C   UNL     1       3.628   3.059   7.456  0.00  0.00    +0.025 A 
ENDBRANCH  20  27
ENDBRANCH   3  20
TORSDOF 4
