REMARK  Name = ZINC39770423
REMARK  8 active torsions:
REMARK  status: ('A' for Active; 'I' for Inactive)
REMARK    1  A    between atoms: C_1  and  N_2
REMARK    2  A    between atoms: C_8  and  O_9
REMARK    3  A    between atoms: O_9  and  C_10
REMARK    4  A    between atoms: C_14  and  C_16
REMARK    5  A    between atoms: C_17  and  C_18
REMARK    6  A    between atoms: C_17  and  C_20
REMARK    7  A    between atoms: N_29  and  C_36
REMARK    8  A    between atoms: N_32  and  C_35
REMARK                            x       y       z     vdW  Elec       q    Type
REMARK                         _______ _______ _______ _____ _____    ______ ____
ROOT
ATOM      1  C   UNL     1       3.558  -0.655  -0.697  0.00  0.00    +0.132 A 
ATOM      2  C   UNL     1       3.267  -2.013  -0.715  0.00  0.00    +0.046 A 
ATOM      3  C   UNL     1       4.256  -2.942  -0.447  0.00  0.00    +0.004 A 
ATOM      4  C   UNL     1       5.540  -2.526  -0.161  0.00  0.00    +0.008 A 
ATOM      5  C   UNL     1       5.843  -1.161  -0.141  0.00  0.00    -0.021 A 
ATOM      6  C   UNL     1       4.843  -0.225  -0.417  0.00  0.00    +0.054 A 
ENDROOT
BRANCH   5   7
ATOM      7  C   UNL     1       7.212  -0.712   0.164  0.00  0.00    +0.026 C 
ATOM      8  C   UNL     1       7.408   0.413   0.881  0.00  0.00    +0.072 C 
BRANCH   8   9
ATOM      9  C   UNL     1       8.800   0.964   1.052  0.00  0.00    +0.216 C 
ATOM     10  N   UNL     1       8.858   2.348   0.564  0.00  0.00    -0.359 N 
ATOM     11  C   UNL     1       9.198   3.102   1.569  0.00  0.00    +0.060 A 
ATOM     12  C   UNL     1       9.414   4.550   1.703  0.00  0.00    +0.027 A 
ATOM     13  C   UNL     1       9.769   5.061   2.898  0.00  0.00    +0.002 A 
ATOM     14  C   UNL     1       9.944   4.263   4.043  0.00  0.00    +0.002 A 
ATOM     15  C   UNL     1       9.771   2.926   4.029  0.00  0.00    +0.027 A 
ATOM     16  C   UNL     1       9.384   2.257   2.780  0.00  0.00    +0.060 A 
ATOM     17  N   UNL     1       9.152   1.012   2.477  0.00  0.00    -0.359 N 
ATOM     18  H   UNL     1       8.677   2.645  -0.342  0.00  0.00    +0.162 HD
ATOM     19  H   UNL     1       9.202   0.256   3.082  0.00  0.00    +0.162 HD
ENDBRANCH   8   9
BRANCH   8  20
ATOM     20  C   UNL     1       6.294   1.084   1.480  0.00  0.00    +0.099 C 
ATOM     21  N   UNL     1       5.410   1.616   1.955  0.00  0.00    -0.191 NA
ENDBRANCH   8  20
ENDBRANCH   5   7
BRANCH   1  22
ATOM     22  O   UNL     1       2.580   0.252  -0.961  0.00  0.00    -0.427 OA
BRANCH  22  28
ATOM     23  C   UNL     1       0.515   2.341  -1.275  0.00  0.00    +0.134 C 
ATOM     24  N   UNL     1       0.712   1.470  -0.114  0.00  0.00    -0.273 N 
ATOM     25  C   UNL     1      -0.097   1.480   1.115  0.00  0.00    +0.206 C 
ATOM     26  C   UNL     1       0.555   0.364   1.973  0.00  0.00    +0.229 C 
ATOM     27  N   UNL     1       1.649  -0.131   1.128  0.00  0.00    -0.211 NA
ATOM     28  C   UNL     1       1.675   0.509   0.008  0.00  0.00    +0.288 C 
ATOM     29  N   UNL     1      -0.304  -0.787   2.293  0.00  0.00    -0.264 N 
ATOM     30  C   UNL     1      -1.566  -0.833   1.845  0.00  0.00    +0.312 C 
ATOM     31  O   UNL     1      -2.232  -1.806   2.139  0.00  0.00    -0.252 OA
ATOM     32  N   UNL     1      -2.147   0.110   1.100  0.00  0.00    -0.227 N 
ATOM     33  C   UNL     1      -1.532   1.249   0.687  0.00  0.00    +0.247 C 
ATOM     34  O   UNL     1      -2.114   2.073   0.015  0.00  0.00    -0.273 OA
ATOM     35  C   UNL     1      -3.537  -0.100   0.688  0.00  0.00    +0.143 C 
ATOM     36  C   UNL     1       0.223  -1.887   3.105  0.00  0.00    +0.136 C 
ENDBRANCH  22  28
ENDBRANCH   1  22
TORSDOF 5
