REMARK  Name = ZINC12717448
REMARK  11 active torsions:
REMARK  status: ('A' for Active; 'I' for Inactive)
REMARK    1  A    between atoms: C_1  and  C_2
REMARK    2  A    between atoms: C_2  and  C_3
REMARK    3  A    between atoms: C_10  and  C_15
REMARK    4  A    between atoms: C_15  and  N_70
REMARK    5  A    between atoms: C_16  and  C_17
REMARK    6  A    between atoms: C_16  and  N_70
REMARK    7  A    between atoms: C_22  and  O_23
REMARK    8  A    between atoms: O_23  and  C_24
REMARK    9  A    between atoms: C_25  and  C_26
REMARK   10  A    between atoms: C_25  and  N_70
REMARK   11  A    between atoms: N_30  and  C_31
REMARK                            x       y       z     vdW  Elec       q    Type
REMARK                         _______ _______ _______ _____ _____    ______ ____
ROOT
ATOM      1  N   UNL     1      -0.667  -3.019  -1.688  0.00  0.00    +0.390 N 
ATOM      2  H   UNL     1      -0.172  -3.046  -0.789  0.00  0.00    -0.080 HD
ENDROOT
BRANCH   1   3
ATOM      3  C   UNL     1       0.319  -3.131  -2.783  0.00  0.00    -0.036 C 
BRANCH   3  11
ATOM      4  C   UNL     1       5.890  -1.631  -0.548  0.00  0.00    -0.047 A 
ATOM      5  C   UNL     1       5.854  -0.295  -0.922  0.00  0.00    +0.005 A 
ATOM      6  C   UNL     1       4.757   0.222  -1.578  0.00  0.00    +0.026 A 
ATOM      7  C   UNL     1       3.675  -0.602  -1.870  0.00  0.00    +0.049 A 
ATOM      8  C   UNL     1       3.716  -1.956  -1.489  0.00  0.00    -0.001 A 
ATOM      9  C   UNL     1       4.839  -2.459  -0.824  0.00  0.00    +0.013 A 
ATOM     10  C   UNL     1       2.573  -2.816  -1.800  0.00  0.00    +0.017 A 
ATOM     11  C   UNL     1       1.512  -2.273  -2.447  0.00  0.00    +0.001 A 
ATOM     12  C   UNL     1       1.523  -0.910  -2.813  0.00  0.00    +0.251 A 
ATOM     13  O   UNL     1       0.561  -0.444  -3.398  0.00  0.00    -0.268 OA
ATOM     14  N   UNL     1       2.567  -0.112  -2.526  0.00  0.00    -0.322 N 
ATOM     15  H   UNL     1       2.540   0.822  -2.788  0.00  0.00    +0.169 HD
BRANCH   4  17
ATOM     16  C   UNL     1       8.109  -2.695  -0.856  0.00  0.00    +0.009 C 
ATOM     17  C   UNL     1       7.100  -2.173   0.169  0.00  0.00    +0.032 C 
ENDBRANCH   4  17
ENDBRANCH   3  11
ENDBRANCH   1   3
BRANCH   1  18
ATOM     18  C   UNL     1      -1.617  -4.150  -1.746  0.00  0.00    -0.038 C 
BRANCH  18  19
ATOM     19  C   UNL     1      -0.914  -5.397  -1.276  0.00  0.00    -0.022 A 
ATOM     20  C   UNL     1      -0.535  -6.363  -2.189  0.00  0.00    +0.005 A 
ATOM     21  C   UNL     1       0.114  -7.505  -1.759  0.00  0.00    +0.000 A 
ATOM     22  C   UNL     1       0.376  -7.689  -0.414  0.00  0.00    +0.004 A 
ATOM     23  C   UNL     1      -0.005  -6.729   0.503  0.00  0.00    +0.046 A 
ATOM     24  C   UNL     1      -0.652  -5.580   0.074  0.00  0.00    +0.121 A 
BRANCH  24  25
ATOM     25  O   UNL     1      -1.028  -4.634   0.974  0.00  0.00    -0.495 OA
ATOM     26  C   UNL     1      -0.726  -4.888   2.347  0.00  0.00    +0.277 C 
ENDBRANCH  24  25
ENDBRANCH  18  19
ENDBRANCH   1  18
BRANCH   1  27
ATOM     27  C   UNL     1      -1.399  -1.739  -1.794  0.00  0.00    +0.001 C 
BRANCH  27  28
ATOM     28  C   UNL     1      -2.233  -1.551  -0.554  0.00  0.00    +0.135 A 
ATOM     29  N   UNL     1      -3.474  -1.937  -0.379  0.00  0.00    -0.115 NA
ATOM     30  N   UNL     1      -3.833  -1.596   0.810  0.00  0.00    -0.023 NA
ATOM     31  N   UNL     1      -2.852  -1.007   1.401  0.00  0.00    -0.044 NA
ATOM     32  N   UNL     1      -1.849  -0.955   0.590  0.00  0.00    -0.228 N 
BRANCH  32  33
ATOM     33  C   UNL     1      -0.538  -0.364   0.866  0.00  0.00    +0.111 C 
ATOM     34  C   UNL     1      -0.705   1.123   1.186  0.00  0.00    +0.027 C 
ATOM     35  C   UNL     1       0.665   1.740   1.474  0.00  0.00    +0.002 C 
ATOM     36  C   UNL     1       1.304   1.030   2.668  0.00  0.00    +0.000 C 
ATOM     37  C   UNL     1       1.472  -0.457   2.348  0.00  0.00    +0.002 C 
ATOM     38  C   UNL     1       0.101  -1.074   2.060  0.00  0.00    +0.027 C 
ENDBRANCH  32  33
ENDBRANCH  27  28
ENDBRANCH   1  27
TORSDOF 9
