REMARK  Name = ZINC43509067
REMARK  7 active torsions:
REMARK  status: ('A' for Active; 'I' for Inactive)
REMARK    1  A    between atoms: C_4  and  C_7
REMARK    2  A    between atoms: C_7  and  S_8
REMARK    3  A    between atoms: S_8  and  N_11
REMARK    4  A    between atoms: C_15  and  C_18
REMARK    5  A    between atoms: N_20  and  C_21
REMARK    6  A    between atoms: C_27  and  N_29
REMARK    7  A    between atoms: C_30  and  C_32
REMARK                            x       y       z     vdW  Elec       q    Type
REMARK                         _______ _______ _______ _____ _____    ______ ____
ROOT
ATOM      1  C   UNL     1       9.089  -0.867   0.185  0.00  0.00    +0.218 C 
ATOM      2  O   UNL     1       9.415  -0.125   1.087  0.00  0.00    -0.275 OA
ATOM      3  N   UNL     1       9.942  -1.112  -0.829  0.00  0.00    -0.310 N 
ATOM      4  H   UNL     1       9.681  -1.705  -1.550  0.00  0.00    +0.149 HD
ENDROOT
BRANCH   1   9
ATOM      5  N   UNL     1       5.696  -1.816   1.514  0.00  0.00    -0.180 NA
ATOM      6  C   UNL     1       5.729  -3.283   1.441  0.00  0.00    +0.109 C 
ATOM      7  C   UNL     1       6.507  -3.697   0.188  0.00  0.00    +0.018 C 
ATOM      8  C   UNL     1       7.888  -3.037   0.208  0.00  0.00    +0.015 C 
ATOM      9  C   UNL     1       7.728  -1.515   0.198  0.00  0.00    +0.091 C 
ATOM     10  C   UNL     1       6.964  -1.077   1.445  0.00  0.00    +0.121 C 
BRANCH   5  11
ATOM     11  S   UNL     1       4.257  -1.011   1.666  0.00  0.00    +0.036 S 
ATOM     12  O   UNL     1       4.593   0.216   2.298  0.00  0.00    -0.158 OA
ATOM     13  O   UNL     1       3.387  -1.939   2.300  0.00  0.00    -0.158 OA
BRANCH  11  14
ATOM     14  C   UNL     1       3.711  -0.707  -0.038  0.00  0.00    +0.220 C 
BRANCH  14  18
ATOM     15  C   UNL     1      -0.017   1.378   0.010  0.00  0.00    +0.000 A 
ATOM     16  C   UNL     1       1.171   2.086   0.002  0.00  0.00    +0.000 A 
ATOM     17  C   UNL     1       2.377   1.411  -0.013  0.00  0.00    +0.005 A 
ATOM     18  C   UNL     1       2.396   0.029  -0.020  0.00  0.00    -0.025 A 
ATOM     19  C   UNL     1       1.208  -0.679  -0.012  0.00  0.00    +0.005 A 
ATOM     20  C   UNL     1       0.002  -0.004   0.002  0.00  0.00    +0.000 A 
ENDBRANCH  14  18
ENDBRANCH  11  14
ENDBRANCH   5  11
ENDBRANCH   1   9
BRANCH   3  21
ATOM     21  C   UNL     1      11.265  -0.482  -0.842  0.00  0.00    +0.093 C 
ATOM     22  C   UNL     1      12.238  -1.323  -0.013  0.00  0.00    +0.024 C 
ATOM     23  C   UNL     1      13.620  -0.665  -0.026  0.00  0.00    +0.002 C 
ATOM     24  C   UNL     1      14.126  -0.570  -1.467  0.00  0.00    +0.002 C 
ATOM     25  C   UNL     1      13.152   0.271  -2.295  0.00  0.00    +0.024 C 
ATOM     26  C   UNL     1      11.771  -0.387  -2.282  0.00  0.00    +0.093 C 
BRANCH  26  27
ATOM     27  N   UNL     1      11.865  -1.732  -2.856  0.00  0.00    -0.307 N 
ATOM     28  C   UNL     1      11.791  -1.901  -4.191  0.00  0.00    +0.244 C 
ATOM     29  O   UNL     1      11.646  -0.938  -4.919  0.00  0.00    -0.270 OA
ATOM     30  H   UNL     1      11.981  -2.500  -2.275  0.00  0.00    +0.149 HD
BRANCH  28  31
ATOM     31  C   UNL     1      11.886  -3.258  -4.770  0.00  0.00    +0.037 A 
ATOM     32  C   UNL     1      12.047  -4.366  -3.937  0.00  0.00    +0.013 A 
ATOM     33  C   UNL     1      12.135  -5.630  -4.484  0.00  0.00    +0.001 A 
ATOM     34  C   UNL     1      12.064  -5.800  -5.855  0.00  0.00    +0.000 A 
ATOM     35  C   UNL     1      11.905  -4.705  -6.687  0.00  0.00    +0.001 A 
ATOM     36  C   UNL     1      11.809  -3.437  -6.152  0.00  0.00    +0.013 A 
ENDBRANCH  28  31
ENDBRANCH  26  27
ENDBRANCH   3  21
TORSDOF 7
