REMARK  Name = ZINC15793543
REMARK  5 active torsions:
REMARK  status: ('A' for Active; 'I' for Inactive)
REMARK    1  A    between atoms: C_6  and  C_7
REMARK    2  A    between atoms: N_9  and  N_10
REMARK    3  A    between atoms: C_11  and  C_13
REMARK    4  A    between atoms: C_15  and  S_20
REMARK    5  A    between atoms: S_20  and  N_23
REMARK                            x       y       z     vdW  Elec       q    Type
REMARK                         _______ _______ _______ _____ _____    ______ ____
ROOT
ATOM      1  N   UNL     1      -3.751  -0.722   3.188  0.00  0.00    -0.230 N 
ATOM      2  C   UNL     1      -3.547   0.494   3.732  0.00  0.00    +0.261 C 
ATOM      3  O   UNL     1      -4.173   0.832   4.719  0.00  0.00    -0.269 OA
ATOM      4  H   UNL     1      -3.252  -0.991   2.401  0.00  0.00    +0.173 HD
ENDROOT
BRANCH   2   5
ATOM      5  C   UNL     1      -2.563   1.418   3.130  0.00  0.00    +0.054 A 
ATOM      6  C   UNL     1      -1.843   1.034   1.997  0.00  0.00    +0.042 A 
ATOM      7  C   UNL     1      -0.927   1.900   1.439  0.00  0.00    +0.106 A 
ATOM      8  C   UNL     1      -0.716   3.147   2.003  0.00  0.00    +0.029 A 
ATOM      9  C   UNL     1      -1.429   3.537   3.122  0.00  0.00    +0.018 A 
ATOM     10  C   UNL     1      -2.350   2.679   3.691  0.00  0.00    +0.030 A 
ATOM     11 BR   UNL     1      -3.319   3.211   5.224  0.00  0.00    -0.050 Br
BRANCH   7  12
ATOM     12  S   UNL     1      -0.017   1.417   0.010  0.00  0.00    +0.061 S 
ATOM     13  O   UNL     1       0.002  -0.004   0.002  0.00  0.00    -0.153 OA
ATOM     14  O   UNL     1       1.172   2.195   0.003  0.00  0.00    -0.153 OA
BRANCH  12  15
ATOM     15  N   UNL     1      -0.897   1.885  -1.312  0.00  0.00    -0.177 NA
ATOM     16  C   UNL     1      -1.909   1.071  -2.000  0.00  0.00    +0.109 C 
ATOM     17  C   UNL     1      -2.444   1.906  -3.183  0.00  0.00    +0.018 C 
ATOM     18  C   UNL     1      -1.295   2.918  -3.438  0.00  0.00    +0.018 C 
ATOM     19  C   UNL     1      -0.792   3.186  -1.998  0.00  0.00    +0.109 C 
ENDBRANCH  12  15
ENDBRANCH   7  12
ENDBRANCH   2   5
BRANCH   1  22
ATOM     20  C   UNL     1      -4.888  -2.813   3.216  0.00  0.00    +0.260 C 
ATOM     21  O   UNL     1      -4.262  -3.151   2.229  0.00  0.00    -0.269 OA
ATOM     22  N   UNL     1      -4.684  -1.597   3.760  0.00  0.00    -0.230 N 
ATOM     23  H   UNL     1      -5.183  -1.328   4.547  0.00  0.00    +0.173 HD
BRANCH  20  29
ATOM     24  C   UNL     1      -6.586  -3.352   4.954  0.00  0.00    +0.017 A 
ATOM     25  C   UNL     1      -7.508  -4.212   5.511  0.00  0.00    +0.050 A 
ATOM     26  C   UNL     1      -7.720  -5.465   4.953  0.00  0.00    +0.166 A 
ATOM     27  C   UNL     1      -7.004  -5.857   3.821  0.00  0.00    +0.167 A 
ATOM     28  C   UNL     1      -6.083  -4.997   3.255  0.00  0.00    +0.062 A 
ATOM     29  C   UNL     1      -5.871  -3.736   3.818  0.00  0.00    +0.042 A 
ATOM     30  O   UNL     1      -7.393  -7.119   3.475  0.00  0.00    -0.453 OA
ATOM     31  C   UNL     1      -8.051  -7.651   4.640  0.00  0.00    +0.466 C 
ATOM     32  O   UNL     1      -8.555  -6.482   5.312  0.00  0.00    -0.453 OA
ENDBRANCH  20  29
ENDBRANCH   1  22
TORSDOF 5
