REMARK  Name = ZINC14961266
REMARK  14 active torsions:
REMARK  status: ('A' for Active; 'I' for Inactive)
REMARK    1  A    between atoms: C_1  and  O_2
REMARK    2  A    between atoms: O_2  and  C_3
REMARK    3  A    between atoms: C_3  and  C_4
REMARK    4  A    between atoms: C_4  and  N_5
REMARK    5  A    between atoms: C_8  and  C_12
REMARK    6  A    between atoms: C_8  and  C_21
REMARK    7  A    between atoms: C_12  and  C_13
REMARK    8  A    between atoms: C_17  and  O_19
REMARK    9  A    between atoms: O_19  and  C_20
REMARK   10  A    between atoms: C_26  and  C_27
REMARK   11  A    between atoms: C_26  and  N_71
REMARK   12  A    between atoms: C_30  and  O_35
REMARK   13  A    between atoms: C_31  and  O_33
REMARK   14  A    between atoms: O_33  and  C_34
REMARK                            x       y       z     vdW  Elec       q    Type
REMARK                         _______ _______ _______ _____ _____    ______ ____
ROOT
ATOM      1  N   UNL     1       1.634   4.939  -3.175  0.00  0.00    -0.222 N 
ATOM      2  C   UNL     1       1.252   5.718  -2.144  0.00  0.00    +0.247 C 
ATOM      3  O   UNL     1       0.121   6.039  -1.849  0.00  0.00    -0.273 OA
ATOM      4  C   UNL     1       2.531   6.110  -1.431  0.00  0.00    +0.119 C 
ATOM      5  N   UNL     1       3.586   5.446  -2.215  0.00  0.00    -0.284 N 
ATOM      6  C   UNL     1       2.963   4.785  -3.212  0.00  0.00    +0.309 C 
ATOM      7  O   UNL     1       3.544   4.126  -4.051  0.00  0.00    -0.252 OA
ATOM      8  H   UNL     1       4.541   5.479  -2.047  0.00  0.00    +0.151 HD
ENDROOT
BRANCH   4   9
ATOM      9  C   UNL     1       2.716   7.628  -1.454  0.00  0.00    +0.018 C 
ATOM     10  C   UNL     1       1.635   8.289  -0.595  0.00  0.00    -0.013 C 
ATOM     11  C   UNL     1       1.789   9.810  -0.671  0.00  0.00    -0.078 C 
ATOM     12  C   UNL     1       2.721   9.662  -2.903  0.00  0.00    -0.078 C 
ATOM     13  C   UNL     1       2.595   8.136  -2.893  0.00  0.00    -0.013 C 
ATOM     14  N   UNL     1       1.638  10.238  -2.078  0.00  0.00    +0.382 N 
ATOM     15  H   UNL     1       0.735   9.902  -2.432  0.00  0.00    -0.081 HD
BRANCH  14  16
ATOM     16  C   UNL     1       1.669  11.712  -2.163  0.00  0.00    -0.043 C 
BRANCH  16  17
ATOM     17  C   UNL     1       0.747  12.287  -1.118  0.00  0.00    -0.060 A 
ATOM     18  C   UNL     1       1.236  12.598   0.137  0.00  0.00    +0.005 A 
ATOM     19  C   UNL     1       0.395  13.125   1.099  0.00  0.00    +0.049 A 
ATOM     20  C   UNL     1      -0.942  13.343   0.806  0.00  0.00    +0.158 A 
ATOM     21  C   UNL     1      -1.434  13.030  -0.457  0.00  0.00    +0.161 A 
ATOM     22  C   UNL     1      -0.584  12.507  -1.418  0.00  0.00    +0.051 A 
BRANCH  21  23
ATOM     23  O   UNL     1      -2.745  13.242  -0.749  0.00  0.00    -0.491 OA
ATOM     24  C   UNL     1      -3.181  12.897  -2.066  0.00  0.00    +0.277 C 
ENDBRANCH  21  23
BRANCH  20  25
ATOM     25  O   UNL     1      -1.770  13.863   1.751  0.00  0.00    -0.503 OA
ATOM     26  H   UNL     1      -1.816  14.829   1.746  0.00  0.00    +0.292 HD
ENDBRANCH  20  25
ENDBRANCH  16  17
ENDBRANCH  14  16
ENDBRANCH   4   9
BRANCH   1  27
ATOM     27  C   UNL     1       0.709   4.334  -4.137  0.00  0.00    +0.146 C 
BRANCH  27  28
ATOM     28  C   UNL     1       0.497   5.290  -5.312  0.00  0.00    +0.179 C 
BRANCH  28  30
ATOM     29  C   UNL     1       1.639   6.331  -7.145  0.00  0.00    +0.194 C 
ATOM     30  O   UNL     1       1.727   5.452  -6.021  0.00  0.00    -0.381 OA
ENDBRANCH  28  30
ENDBRANCH  27  28
ENDBRANCH   1  27
BRANCH   4  31
ATOM     31  C   UNL     1       2.524   5.592   0.009  0.00  0.00    +0.070 C 
BRANCH  31  32
ATOM     32  C   UNL     1       2.463   4.086   0.001  0.00  0.00    -0.041 A 
ATOM     33  C   UNL     1       3.633   3.348  -0.015  0.00  0.00    +0.004 A 
ATOM     34  C   UNL     1       3.580   1.966  -0.021  0.00  0.00    +0.004 A 
ATOM     35  C   UNL     1       2.359   1.320  -0.013  0.00  0.00    +0.045 A 
ATOM     36  C   UNL     1       1.185   2.058   0.002  0.00  0.00    +0.120 A 
ATOM     37  C   UNL     1       1.240   3.445   0.003  0.00  0.00    +0.049 A 
BRANCH  36  38
ATOM     38  O   UNL     1      -0.017   1.425   0.010  0.00  0.00    -0.495 OA
ATOM     39  C   UNL     1       0.002  -0.004   0.002  0.00  0.00    +0.277 C 
ENDBRANCH  36  38
ENDBRANCH  31  32
ENDBRANCH   4  31
TORSDOF 11
