REMARK  Name = ZINC06142910
REMARK  9 active torsions:
REMARK  status: ('A' for Active; 'I' for Inactive)
REMARK    1  A    between atoms: C_1  and  C_2
REMARK    2  A    between atoms: C_3  and  C_28
REMARK    3  A    between atoms: C_6  and  N_19
REMARK    4  A    between atoms: N_10  and  S_11
REMARK    5  A    between atoms: S_11  and  C_14
REMARK    6  A    between atoms: N_19  and  S_20
REMARK    7  A    between atoms: S_20  and  C_23
REMARK    8  A    between atoms: C_28  and  O_30
REMARK    9  A    between atoms: O_30  and  C_31
REMARK                            x       y       z     vdW  Elec       q    Type
REMARK                         _______ _______ _______ _____ _____    ______ ____
ROOT
ATOM      1  C   UNL     1      -0.952  -3.624  -0.241  0.00  0.00    +0.066 C 
ATOM      2  C   UNL     1      -0.300  -2.267  -0.182  0.00  0.00    +0.055 A 
ATOM      3  C   UNL     1      -0.966  -1.075  -0.184  0.00  0.00    +0.089 A 
ATOM      4  C   UNL     1       0.063  -0.021  -0.116  0.00  0.00    +0.018 A 
ATOM      5  C   UNL     1       0.020   1.371  -0.087  0.00  0.00    +0.035 A 
ATOM      6  C   UNL     1       1.200   2.090  -0.020  0.00  0.00    +0.049 A 
ATOM      7  C   UNL     1       2.424   1.425   0.018  0.00  0.00    +0.026 A 
ATOM      8  C   UNL     1       2.474   0.049  -0.012  0.00  0.00    +0.030 A 
ATOM      9  C   UNL     1       1.297  -0.689  -0.079  0.00  0.00    +0.073 A 
ATOM     10  N   UNL     1       1.034  -2.045  -0.121  0.00  0.00    -0.214 N 
ENDROOT
BRANCH  10  11
ATOM     11  S   UNL     1       2.188  -3.232  -0.099  0.00  0.00    +0.091 S 
ATOM     12  O   UNL     1       1.604  -4.379  -0.701  0.00  0.00    -0.147 OA
ATOM     13  O   UNL     1       3.386  -2.643  -0.586  0.00  0.00    -0.147 OA
BRANCH  11  14
ATOM     14  C   UNL     1       2.480  -3.644   1.589  0.00  0.00    +0.148 A 
ATOM     15  C   UNL     1       1.864  -4.573   2.360  0.00  0.00    +0.037 A 
ATOM     16  C   UNL     1       2.265  -4.727   3.674  0.00  0.00    +0.010 A 
ATOM     17  C   UNL     1       3.256  -3.936   4.156  0.00  0.00    +0.047 A 
ATOM     18  S   UNL     1       3.659  -2.939   2.731  0.00  0.00    -0.077 S 
ENDBRANCH  11  14
ENDBRANCH  10  11
BRANCH   6  19
ATOM     19  N   UNL     1       1.165   3.488   0.010  0.00  0.00    -0.216 N 
ATOM     20  H   UNL     1       0.598   3.973  -0.611  0.00  0.00    +0.174 HD
BRANCH  19  21
ATOM     21  S   UNL     1       2.091   4.317   1.104  0.00  0.00    +0.079 S 
ATOM     22  O   UNL     1       3.420   3.835   0.958  0.00  0.00    -0.149 OA
ATOM     23  O   UNL     1       1.760   5.691   0.959  0.00  0.00    -0.149 OA
BRANCH  21  24
ATOM     24  C   UNL     1       1.554   3.835   2.712  0.00  0.00    +0.146 A 
ATOM     25  C   UNL     1       2.057   2.877   3.528  0.00  0.00    +0.036 A 
ATOM     26  C   UNL     1       1.468   2.671   4.761  0.00  0.00    +0.010 A 
ATOM     27  C   UNL     1       0.406   3.434   5.119  0.00  0.00    +0.047 A 
ATOM     28  S   UNL     1       0.212   4.489   3.691  0.00  0.00    -0.077 S 
ENDBRANCH  21  24
ENDBRANCH  19  21
ENDBRANCH   6  19
BRANCH   3  29
ATOM     29  C   UNL     1      -2.419  -0.882  -0.241  0.00  0.00    +0.341 C 
ATOM     30  O   UNL     1      -2.977  -0.777  -1.316  0.00  0.00    -0.245 OA
BRANCH  29  31
ATOM     31  O   UNL     1      -3.136  -0.819   0.900  0.00  0.00    -0.464 OA
ATOM     32  C   UNL     1      -4.569  -0.626   0.767  0.00  0.00    +0.280 C 
ENDBRANCH  29  31
ENDBRANCH   3  29
TORSDOF 7
