REMARK  Name = ZINC23546789
REMARK  8 active torsions:
REMARK  status: ('A' for Active; 'I' for Inactive)
REMARK    1  A    between atoms: C_1  and  O_2
REMARK    2  A    between atoms: O_2  and  C_3
REMARK    3  A    between atoms: C_6  and  C_9
REMARK    4  A    between atoms: C_12  and  S_21
REMARK    5  A    between atoms: N_13  and  C_14
REMARK    6  A    between atoms: C_14  and  C_15
REMARK    7  A    between atoms: S_21  and  C_22
REMARK    8  A    between atoms: C_22  and  C_23
REMARK                            x       y       z     vdW  Elec       q    Type
REMARK                         _______ _______ _______ _____ _____    ______ ____
ROOT
ATOM      1  C   UNL     1       2.502  -2.471  -4.316  0.00  0.00    +0.165 A 
ATOM      2  N   UNL     1       2.730  -1.914  -5.483  0.00  0.00    -0.128 NA
ATOM      3  N   UNL     1       3.275  -2.765  -6.276  0.00  0.00    -0.122 NA
ATOM      4  C   UNL     1       3.430  -3.917  -5.665  0.00  0.00    +0.192 A 
ATOM      5  N   UNL     1       2.949  -3.769  -4.395  0.00  0.00    -0.300 N 
ENDROOT
BRANCH   1   9
ATOM      6  C   UNL     1       0.735  -0.608  -0.931  0.00  0.00    +0.120 A 
ATOM      7  C   UNL     1       1.243   0.170  -1.963  0.00  0.00    +0.046 A 
ATOM      8  C   UNL     1       1.817  -0.430  -3.063  0.00  0.00    +0.015 A 
ATOM      9  C   UNL     1       1.888  -1.822  -3.138  0.00  0.00    +0.020 A 
ATOM     10  C   UNL     1       1.376  -2.601  -2.099  0.00  0.00    +0.015 A 
ATOM     11  C   UNL     1       0.808  -1.992  -1.000  0.00  0.00    +0.046 A 
BRANCH   6  13
ATOM     12  C   UNL     1       0.127   1.417   0.158  0.00  0.00    +0.277 C 
ATOM     13  O   UNL     1       0.170  -0.012   0.151  0.00  0.00    -0.495 OA
ENDBRANCH   6  13
ENDBRANCH   1   9
BRANCH   5  14
ATOM     14  C   UNL     1       2.913  -4.783  -3.338  0.00  0.00    +0.157 C 
BRANCH  14  15
ATOM     15  C   UNL     1       1.673  -5.661  -3.515  0.00  0.00    +0.138 C 
ATOM     16  C   UNL     1       1.584  -6.703  -2.371  0.00  0.00    +0.035 C 
ATOM     17  C   UNL     1       0.058  -6.995  -2.357  0.00  0.00    +0.031 C 
ATOM     18  C   UNL     1      -0.541  -5.622  -2.730  0.00  0.00    +0.160 C 
ATOM     19  O   UNL     1       0.481  -4.869  -3.398  0.00  0.00    -0.375 OA
ENDBRANCH  14  15
ENDBRANCH   5  14
BRANCH   4  20
ATOM     20  S   UNL     1       4.133  -5.380  -6.353  0.00  0.00    -0.078 S 
BRANCH  20  21
ATOM     21  C   UNL     1       4.569  -4.902  -8.047  0.00  0.00    +0.151 C 
BRANCH  21  22
ATOM     22  C   UNL     1       5.189  -6.077  -8.757  0.00  0.00    +0.121 A 
ATOM     23  N   UNL     1       5.598  -5.939 -10.044  0.00  0.00    -0.310 N 
ATOM     24  H   UNL     1       5.486  -5.084 -10.489  0.00  0.00    +0.170 HD
ATOM     25  C   UNL     1       6.157  -6.963 -10.716  0.00  0.00    +0.260 A 
ATOM     26  O   UNL     1       6.520  -6.824 -11.871  0.00  0.00    -0.267 OA
ATOM     27  C   UNL     1       6.318  -8.220 -10.047  0.00  0.00    +0.075 A 
ATOM     28  C   UNL     1       6.896  -9.463 -10.578  0.00  0.00    -0.023 A 
ATOM     29  C   UNL     1       6.935 -10.519  -9.747  0.00  0.00    -0.004 A 
ATOM     30  S   UNL     1       6.219  -9.935  -8.228  0.00  0.00    -0.073 S 
ATOM     31  C   UNL     1       5.867  -8.268  -8.721  0.00  0.00    +0.116 A 
ATOM     32  N   UNL     1       5.328  -7.210  -8.120  0.00  0.00    -0.226 NA
ATOM     33  C   UNL     1       7.541 -11.733 -10.399  0.00  0.00    +0.043 C 
ATOM     34  C   UNL     1       7.493 -11.425 -11.912  0.00  0.00    +0.010 C 
ATOM     35  C   UNL     1       7.505  -9.884 -11.919  0.00  0.00    +0.037 C 
ENDBRANCH  21  22
ENDBRANCH  20  21
ENDBRANCH   4  20
TORSDOF 7
