REMARK  Name = ZINC08819585
REMARK  10 active torsions:
REMARK  status: ('A' for Active; 'I' for Inactive)
REMARK    1  A    between atoms: C_1  and  O_2
REMARK    2  A    between atoms: O_2  and  C_3
REMARK    3  A    between atoms: C_3  and  C_5
REMARK    4  A    between atoms: C_8  and  C_11
REMARK    5  A    between atoms: N_15  and  C_19
REMARK    6  A    between atoms: C_19  and  C_20
REMARK    7  A    between atoms: C_20  and  C_21
REMARK    8  A    between atoms: C_21  and  C_22
REMARK    9  A    between atoms: N_24  and  N_25
REMARK   10  A    between atoms: C_26  and  C_28
REMARK                            x       y       z     vdW  Elec       q    Type
REMARK                         _______ _______ _______ _____ _____    ______ ____
ROOT
ATOM      1  C   UNL     1      -7.934  -7.898  -2.051  0.00  0.00    +0.028 C 
ATOM      2  C   UNL     1      -6.944  -7.892  -1.124  0.00  0.00    +0.077 C 
ATOM      3  C   UNL     1      -5.525  -7.491  -1.261  0.00  0.00    +0.258 C 
ATOM      4  O   UNL     1      -5.072  -7.091  -2.317  0.00  0.00    -0.269 OA
ATOM      5  N   UNL     1      -4.776  -7.589  -0.175  0.00  0.00    -0.255 N 
ATOM      6  C   UNL     1      -5.282  -8.037   0.992  0.00  0.00    +0.121 C 
ATOM      7  S   UNL     1      -4.478  -8.239   2.490  0.00  0.00    -0.027 S 
ATOM      8  S   UNL     1      -6.992  -8.365   0.599  0.00  0.00    -0.061 S 
ENDROOT
BRANCH   1  12
ATOM      9  C   UNL     1     -11.686  -9.631  -1.128  0.00  0.00    +0.059 A 
ATOM     10  C   UNL     1     -11.523  -8.909  -2.315  0.00  0.00    +0.015 A 
ATOM     11  C   UNL     1     -10.313  -8.350  -2.613  0.00  0.00    +0.009 A 
ATOM     12  C   UNL     1      -9.236  -8.499  -1.731  0.00  0.00    -0.024 A 
ATOM     13  C   UNL     1      -9.399  -9.227  -0.545  0.00  0.00    +0.009 A 
ATOM     14  C   UNL     1     -10.611  -9.781  -0.246  0.00  0.00    +0.015 A 
BRANCH   9  15
ATOM     15  C   UNL     1     -12.994 -10.235  -0.806  0.00  0.00    +0.339 C 
ATOM     16  O   UNL     1     -13.928 -10.104  -1.572  0.00  0.00    -0.245 OA
BRANCH  15  18
ATOM     17  C   UNL     1     -14.466 -11.496   0.588  0.00  0.00    +0.280 C 
ATOM     18  O   UNL     1     -13.152 -10.930   0.337  0.00  0.00    -0.464 OA
ENDBRANCH  15  18
ENDBRANCH   9  15
ENDBRANCH   1  12
BRANCH   5  19
ATOM     19  C   UNL     1      -3.363  -7.208  -0.243  0.00  0.00    +0.115 C 
BRANCH  19  20
ATOM     20  C   UNL     1      -3.219  -5.723   0.095  0.00  0.00    +0.029 C 
BRANCH  20  21
ATOM     21  C   UNL     1      -1.743  -5.324   0.024  0.00  0.00    +0.099 C 
BRANCH  21  22
ATOM     22  C   UNL     1      -1.601  -3.862   0.357  0.00  0.00    +0.229 C 
ATOM     23  O   UNL     1      -2.583  -3.202   0.625  0.00  0.00    -0.274 OA
ATOM     24  N   UNL     1      -0.383  -3.286   0.357  0.00  0.00    -0.234 N 
ATOM     25  H   UNL     1       0.403  -3.813   0.143  0.00  0.00    +0.173 HD
BRANCH  24  26
ATOM     26  N   UNL     1      -0.250  -1.926   0.667  0.00  0.00    -0.230 N 
ATOM     27  C   UNL     1       0.968  -1.350   0.667  0.00  0.00    +0.262 C 
ATOM     28  O   UNL     1       1.953  -2.011   0.398  0.00  0.00    -0.269 OA
ATOM     29  H   UNL     1      -1.036  -1.399   0.881  0.00  0.00    +0.173 HD
BRANCH  27  30
ATOM     30  C   UNL     1       1.108   0.084   0.993  0.00  0.00    +0.056 A 
ATOM     31  C   UNL     1      -0.021   0.848   1.297  0.00  0.00    +0.014 A 
ATOM     32  C   UNL     1       0.116   2.184   1.606  0.00  0.00    +0.001 A 
ATOM     33  C   UNL     1       1.369   2.773   1.606  0.00  0.00    +0.001 A 
ATOM     34  C   UNL     1       2.492   2.026   1.301  0.00  0.00    +0.021 A 
ATOM     35  C   UNL     1       2.369   0.684   0.995  0.00  0.00    +0.053 A 
ATOM     36 CL   UNL     1       3.779  -0.253   0.611  0.00  0.00    -0.083 Cl
ENDBRANCH  27  30
ENDBRANCH  24  26
ENDBRANCH  21  22
ENDBRANCH  20  21
ENDBRANCH  19  20
ENDBRANCH   5  19
TORSDOF 9
