REMARK  Name = ZINC15680399
REMARK  10 active torsions:
REMARK  status: ('A' for Active; 'I' for Inactive)
REMARK    1  A    between atoms: C_1  and  C_2
REMARK    2  A    between atoms: C_2  and  O_3
REMARK    3  A    between atoms: O_3  and  C_4
REMARK    4  A    between atoms: C_4  and  C_6
REMARK    5  A    between atoms: C_7  and  N_30
REMARK    6  A    between atoms: N_13  and  C_14
REMARK    7  A    between atoms: C_14  and  C_15
REMARK    8  A    between atoms: N_17  and  C_18
REMARK    9  A    between atoms: C_23  and  C_24
REMARK   10  A    between atoms: C_31  and  C_33
REMARK                            x       y       z     vdW  Elec       q    Type
REMARK                         _______ _______ _______ _____ _____    ______ ____
ROOT
ATOM      1  C   UNL     1       2.067   2.871   1.041  0.00  0.00    +0.150 A 
ATOM      2  C   UNL     1       3.396   2.729   0.690  0.00  0.00    +0.074 A 
ATOM      3  C   UNL     1       3.444   2.132  -0.610  0.00  0.00    +0.033 A 
ATOM      4  C   UNL     1       4.456   1.705  -1.583  0.00  0.00    -0.026 A 
ATOM      5  C   UNL     1       4.006   1.168  -2.734  0.00  0.00    -0.004 A 
ATOM      6  S   UNL     1       2.240   1.198  -2.591  0.00  0.00    -0.075 S 
ATOM      7  C   UNL     1       2.115   1.936  -0.981  0.00  0.00    +0.091 A 
ATOM      8  N   UNL     1       1.289   2.372   0.002  0.00  0.00    -0.319 N 
ATOM      9  C   UNL     1       4.826   0.658  -3.880  0.00  0.00    +0.043 C 
ATOM     10  C   UNL     1       6.262   1.177  -3.716  0.00  0.00    +0.005 C 
ATOM     11  C   UNL     1       6.712   0.926  -2.273  0.00  0.00    +0.005 C 
ATOM     12  C   UNL     1       5.952   1.853  -1.323  0.00  0.00    +0.036 C 
ENDROOT
BRANCH   2  13
ATOM     13  N   UNL     1       4.492   3.105   1.461  0.00  0.00    -0.283 N 
ATOM     14  C   UNL     1       5.463   3.871   0.924  0.00  0.00    +0.214 C 
ATOM     15  O   UNL     1       5.433   4.147  -0.256  0.00  0.00    -0.276 OA
ATOM     16  C   UNL     1       6.584   4.383   1.791  0.00  0.00    +0.109 C 
ATOM     17  H   UNL     1       4.558   2.815   2.385  0.00  0.00    +0.155 HD
ENDBRANCH   2  13
BRANCH   1  18
ATOM     18  C   UNL     1       1.583   3.425   2.247  0.00  0.00    +0.358 C 
ATOM     19  O   UNL     1       2.360   3.917   3.046  0.00  0.00    -0.243 OA
BRANCH  18  20
ATOM     20  O   UNL     1       0.260   3.409   2.514  0.00  0.00    -0.460 OA
BRANCH  20  22
ATOM     21  C   UNL     1      -1.680   3.875   3.878  0.00  0.00    +0.048 C 
ATOM     22  C   UNL     1      -0.159   3.986   3.753  0.00  0.00    +0.229 C 
ENDBRANCH  20  22
ENDBRANCH  18  20
ENDBRANCH   1  18
BRANCH   8  23
ATOM     23  C   UNL     1      -0.175   2.331  -0.028  0.00  0.00    +0.219 C 
BRANCH  23  24
ATOM     24  C   UNL     1      -0.652   1.026   0.555  0.00  0.00    +0.237 C 
ATOM     25  O   UNL     1       0.151   0.211   0.956  0.00  0.00    -0.274 OA
ATOM     26  N   UNL     1      -1.972   0.765   0.631  0.00  0.00    -0.284 N 
ATOM     27  H   UNL     1      -2.617   1.446   0.385  0.00  0.00    +0.155 HD
BRANCH  26  28
ATOM     28  C   UNL     1      -2.413  -0.490   1.065  0.00  0.00    +0.038 A 
ATOM     29  C   UNL     1      -1.590  -1.601   0.933  0.00  0.00    +0.043 A 
ATOM     30  C   UNL     1      -2.026  -2.838   1.369  0.00  0.00    +0.043 A 
ATOM     31  C   UNL     1      -3.287  -2.972   1.924  0.00  0.00    +0.020 A 
ATOM     32  C   UNL     1      -4.111  -1.869   2.051  0.00  0.00    +0.006 A 
ATOM     33  C   UNL     1      -3.678  -0.629   1.623  0.00  0.00    -0.029 A 
ATOM     34  C   UNL     1      -4.576   0.573   1.762  0.00  0.00    +0.045 C 
ATOM     35 CL   UNL     1      -0.996  -4.226   1.212  0.00  0.00    -0.083 Cl
ENDBRANCH  26  28
ENDBRANCH  23  24
ENDBRANCH   8  23
TORSDOF 7
