REMARK  Name = ZINC25801680
REMARK  7 active torsions:
REMARK  status: ('A' for Active; 'I' for Inactive)
REMARK    1  A    between atoms: C_1  and  C_2
REMARK    2  A    between atoms: C_5  and  N_8
REMARK    3  A    between atoms: C_12  and  C_14
REMARK    4  A    between atoms: C_14  and  C_16
REMARK    5  A    between atoms: C_14  and  S_17
REMARK    6  A    between atoms: S_17  and  C_18
REMARK    7  A    between atoms: N_27  and  C_28
REMARK                            x       y       z     vdW  Elec       q    Type
REMARK                         _______ _______ _______ _____ _____    ______ ____
ROOT
ATOM      1  N   UNL     1      -2.711   5.763  -0.031  0.00  0.00    -0.269 N 
ATOM      2  C   UNL     1      -1.649   5.113   0.487  0.00  0.00    +0.310 C 
ATOM      3  O   UNL     1      -0.718   5.742   0.949  0.00  0.00    -0.252 OA
ATOM      4  N   UNL     1      -1.622   3.765   0.493  0.00  0.00    -0.239 N 
ATOM      5  C   UNL     1      -0.560   3.115   1.010  0.00  0.00    +0.234 C 
ATOM      6  O   UNL     1       0.369   3.743   1.471  0.00  0.00    -0.274 OA
ATOM      7  H   UNL     1      -3.513   5.197  -0.527  0.00  0.00    +0.156 HD
ATOM      8  H   UNL     1      -2.465   3.196   0.075  0.00  0.00    +0.159 HD
ENDROOT
BRANCH   1  13
ATOM      9  C   UNL     1      -3.037  11.414   0.348  0.00  0.00    +0.044 C 
ATOM     10  C   UNL     1      -2.950   9.912   0.247  0.00  0.00    -0.050 A 
ATOM     11  C   UNL     1      -3.475   9.263  -0.855  0.00  0.00    +0.005 A 
ATOM     12  C   UNL     1      -3.398   7.888  -0.950  0.00  0.00    +0.023 A 
ATOM     13  C   UNL     1      -2.791   7.156   0.063  0.00  0.00    +0.035 A 
ATOM     14  C   UNL     1      -2.270   7.811   1.171  0.00  0.00    +0.023 A 
ATOM     15  C   UNL     1      -2.346   9.187   1.258  0.00  0.00    +0.005 A 
ENDBRANCH   1  13
BRANCH   5  16
ATOM     16  C   UNL     1      -0.529   1.609   1.017  0.00  0.00    +0.137 C 
ATOM     17  C   UNL     1       0.002   1.103  -0.326  0.00  0.00    +0.029 C 
BRANCH  16  18
ATOM     18  S   UNL     1       0.553   1.033   2.349  0.00  0.00    -0.075 S 
BRANCH  18  19
ATOM     19  C   UNL     1       0.290  -0.705   2.227  0.00  0.00    +0.173 A 
ATOM     20  N   UNL     1      -0.537  -1.175   1.315  0.00  0.00    -0.216 NA
ATOM     21  C   UNL     1      -0.750  -2.480   1.197  0.00  0.00    +0.116 A 
ATOM     22  C   UNL     1      -0.121  -3.419   2.036  0.00  0.00    +0.072 A 
ATOM     23  C   UNL     1      -0.469  -4.805   1.774  0.00  0.00    +0.023 A 
ATOM     24  C   UNL     1      -1.334  -5.088   0.789  0.00  0.00    +0.048 A 
ATOM     25  S   UNL     1      -1.750  -3.485   0.130  0.00  0.00    -0.077 S 
ATOM     26  C   UNL     1       0.766  -2.878   3.020  0.00  0.00    +0.263 A 
ATOM     27  O   UNL     1       1.356  -3.616   3.791  0.00  0.00    -0.267 OA
ATOM     28  N   UNL     1       0.942  -1.546   3.082  0.00  0.00    -0.290 N 
ATOM     29  C   UNL     1       1.849  -0.987   4.088  0.00  0.00    +0.154 C 
ENDBRANCH  18  19
ENDBRANCH  16  18
ENDBRANCH   5  16
TORSDOF 4
