REMARK  Name = ZINC35666001
REMARK  16 active torsions:
REMARK  status: ('A' for Active; 'I' for Inactive)
REMARK    1  A    between atoms: C_1  and  C_2
REMARK    2  A    between atoms: C_2  and  C_3
REMARK    3  A    between atoms: C_2  and  C_4
REMARK    4  A    between atoms: C_4  and  N_5
REMARK    5  A    between atoms: C_6  and  C_20
REMARK    6  A    between atoms: C_9  and  S_10
REMARK    7  A    between atoms: S_10  and  C_13
REMARK    8  A    between atoms: C_13  and  C_14
REMARK    9  A    between atoms: C_20  and  N_21
REMARK   10  A    between atoms: N_21  and  C_22
REMARK   11  A    between atoms: N_21  and  S_27
REMARK   12  A    between atoms: C_22  and  C_23
REMARK   13  A    between atoms: C_23  and  N_24
REMARK   14  A    between atoms: N_24  and  C_25
REMARK   15  A    between atoms: N_24  and  C_26
REMARK   16  A    between atoms: S_27  and  C_30
REMARK                            x       y       z     vdW  Elec       q    Type
REMARK                         _______ _______ _______ _____ _____    ______ ____
ROOT
ATOM      1  N   UNL     1      -0.549  -1.281   0.354  0.00  0.00    -0.312 N 
ATOM      2  C   UNL     1      -0.538  -2.178  -0.681  0.00  0.00    +0.055 A 
ATOM      3  C   UNL     1      -0.525  -3.407  -0.130  0.00  0.00    +0.137 A 
ATOM      4  N   UNL     1      -0.528  -3.265   1.203  0.00  0.00    -0.220 NA
ATOM      5  C   UNL     1      -0.537  -1.994   1.500  0.00  0.00    +0.252 A 
ENDROOT
BRANCH   5   6
ATOM      6  S   UNL     1      -0.539  -1.320   3.128  0.00  0.00    +0.034 S 
ATOM      7  O   UNL     1       0.234  -2.231   3.898  0.00  0.00    -0.166 OA
ATOM      8  O   UNL     1      -0.119   0.027   2.964  0.00  0.00    -0.166 OA
BRANCH   6   9
ATOM      9  C   UNL     1      -2.274  -1.374   3.654  0.00  0.00    +0.210 C 
BRANCH   9  10
ATOM     10  C   UNL     1      -2.395  -0.815   5.048  0.00  0.00    -0.026 A 
ATOM     11  C   UNL     1      -2.273  -1.653   6.141  0.00  0.00    +0.005 A 
ATOM     12  C   UNL     1      -2.384  -1.140   7.420  0.00  0.00    +0.000 A 
ATOM     13  C   UNL     1      -2.615   0.210   7.606  0.00  0.00    +0.000 A 
ATOM     14  C   UNL     1      -2.735   1.047   6.513  0.00  0.00    +0.000 A 
ATOM     15  C   UNL     1      -2.621   0.536   5.234  0.00  0.00    +0.005 A 
ENDBRANCH   9  10
ENDBRANCH   6   9
ENDBRANCH   5   6
BRANCH   1  16
ATOM     16  C   UNL     1      -0.564   0.179   0.238  0.00  0.00    +0.128 C 
BRANCH  16  18
ATOM     17  C   UNL     1       0.831   2.200  -0.218  0.00  0.00    +0.009 C 
ATOM     18  C   UNL     1       0.860   0.687   0.004  0.00  0.00    +0.003 C 
ATOM     19  C   UNL     1       1.723   0.367   1.226  0.00  0.00    +0.009 C 
ENDBRANCH  16  18
ENDBRANCH   1  16
BRANCH   2  20
ATOM     20  C   UNL     1      -0.540  -1.852  -2.152  0.00  0.00    +0.164 C 
BRANCH  20  21
ATOM     21  N   UNL     1      -1.922  -1.716  -2.620  0.00  0.00    -0.173 NA
BRANCH  21  22
ATOM     22  S   UNL     1      -2.702  -3.015  -3.287  0.00  0.00    +0.061 S 
ATOM     23  O   UNL     1      -3.728  -2.489  -4.119  0.00  0.00    -0.153 OA
ATOM     24  O   UNL     1      -1.693  -3.885  -3.780  0.00  0.00    -0.153 OA
BRANCH  22  25
ATOM     25  C   UNL     1      -3.508  -3.870  -1.974  0.00  0.00    +0.105 A 
ATOM     26  C   UNL     1      -2.844  -4.873  -1.293  0.00  0.00    +0.028 A 
ATOM     27  C   UNL     1      -3.475  -5.544  -0.262  0.00  0.00    +0.002 A 
ATOM     28  C   UNL     1      -4.771  -5.212   0.087  0.00  0.00    +0.000 A 
ATOM     29  C   UNL     1      -5.435  -4.208  -0.594  0.00  0.00    +0.002 A 
ATOM     30  C   UNL     1      -4.801  -3.534  -1.622  0.00  0.00    +0.028 A 
ENDBRANCH  22  25
ENDBRANCH  21  22
BRANCH  21  31
ATOM     31  C   UNL     1      -2.613  -0.430  -2.497  0.00  0.00    +0.091 C 
BRANCH  31  32
ATOM     32  C   UNL     1      -2.233   0.468  -3.676  0.00  0.00    -0.062 C 
BRANCH  32  33
ATOM     33  N   UNL     1      -2.927   1.757  -3.553  0.00  0.00    +0.377 N 
ATOM     34  C   UNL     1      -2.471   2.662  -4.617  0.00  0.00    -0.097 C 
ATOM     35  C   UNL     1      -4.375   1.548  -3.674  0.00  0.00    -0.097 C 
ATOM     36  H   UNL     1      -2.720   2.166  -2.653  0.00  0.00    -0.083 HD
ENDBRANCH  32  33
ENDBRANCH  31  32
ENDBRANCH  21  31
ENDBRANCH  20  21
ENDBRANCH   2  20
TORSDOF 12
