REMARK  Name = ZINC12693158
REMARK  10 active torsions:
REMARK  status: ('A' for Active; 'I' for Inactive)
REMARK    1  A    between atoms: C_1  and  O_2
REMARK    2  A    between atoms: O_2  and  C_3
REMARK    3  A    between atoms: C_3  and  C_5
REMARK    4  A    between atoms: C_5  and  C_15
REMARK    5  A    between atoms: C_15  and  C_17
REMARK    6  A    between atoms: C_17  and  S_18
REMARK    7  A    between atoms: S_18  and  C_19
REMARK    8  A    between atoms: C_22  and  S_24
REMARK    9  A    between atoms: S_24  and  C_25
REMARK   10  A    between atoms: C_25  and  C_26
REMARK                            x       y       z     vdW  Elec       q    Type
REMARK                         _______ _______ _______ _____ _____    ______ ____
ROOT
ATOM      1  C   UNL     1      -0.014   1.211   0.009  0.00  0.00    +0.183 C 
ATOM      2  O   UNL     1       0.002  -0.004   0.002  0.00  0.00    -0.291 OA
ENDROOT
BRANCH   1   3
ATOM      3  C   UNL     1       1.194   1.931   0.001  0.00  0.00    +0.138 C 
ATOM      4  C   UNL     1       2.423   1.244  -0.014  0.00  0.00    +0.110 C 
ATOM      5  N   UNL     1       2.568  -0.106  -0.017  0.00  0.00    -0.301 N 
ATOM      6  C   UNL     1       3.927  -0.398  -0.038  0.00  0.00    +0.054 A 
ATOM      7  C   UNL     1       4.641  -1.588  -0.050  0.00  0.00    +0.025 A 
ATOM      8  C   UNL     1       6.021  -1.562  -0.063  0.00  0.00    +0.002 A 
ATOM      9  C   UNL     1       6.697  -0.354  -0.064  0.00  0.00    +0.002 A 
ATOM     10  C   UNL     1       5.997   0.836  -0.051  0.00  0.00    +0.025 A 
ATOM     11  C   UNL     1       4.609   0.821  -0.038  0.00  0.00    +0.054 A 
ATOM     12  N   UNL     1       3.648   1.826  -0.023  0.00  0.00    -0.301 N 
ATOM     13  H   UNL     1       1.847  -0.755  -0.008  0.00  0.00    +0.153 HD
ATOM     14  H   UNL     1       3.824   2.780  -0.019  0.00  0.00    +0.153 HD
BRANCH   3  15
ATOM     15  C   UNL     1       1.174   3.392   0.009  0.00  0.00    +0.345 C 
ATOM     16  O   UNL     1       2.220   4.015   0.002  0.00  0.00    -0.245 OA
BRANCH  15  18
ATOM     17  C   UNL     1       0.052   5.479   0.031  0.00  0.00    +0.280 C 
ATOM     18  O   UNL     1      -0.003   4.051   0.024  0.00  0.00    -0.464 OA
ENDBRANCH  15  18
ENDBRANCH   3  15
ENDBRANCH   1   3
BRANCH   1  19
ATOM     19  C   UNL     1      -1.330   1.947   0.019  0.00  0.00    +0.156 C 
BRANCH  19  20
ATOM     20  S   UNL     1      -2.692   0.749   0.019  0.00  0.00    -0.089 S 
BRANCH  20  21
ATOM     21  C   UNL     1      -4.141   1.752   0.031  0.00  0.00    +0.160 A 
ATOM     22  N   UNL     1      -4.247   3.067   0.038  0.00  0.00    -0.134 NA
ATOM     23  N   UNL     1      -5.492   3.653   0.047  0.00  0.00    -0.134 NA
ATOM     24  C   UNL     1      -6.573   2.897   0.048  0.00  0.00    +0.160 A 
ATOM     25  S   UNL     1      -5.858   1.260   0.029  0.00  0.00    -0.033 S 
BRANCH  24  26
ATOM     26  S   UNL     1      -8.269   3.374   0.058  0.00  0.00    -0.092 S 
BRANCH  26  27
ATOM     27  C   UNL     1      -8.215   5.188   0.067  0.00  0.00    +0.111 C 
BRANCH  27  28
ATOM     28  C   UNL     1      -9.620   5.732   0.076  0.00  0.00    -0.037 A 
ATOM     29  C   UNL     1     -10.267   5.994  -1.117  0.00  0.00    +0.006 A 
ATOM     30  C   UNL     1     -11.558   6.488  -1.109  0.00  0.00    +0.020 A 
ATOM     31  C   UNL     1     -12.198   6.732   0.092  0.00  0.00    +0.041 A 
ATOM     32  C   UNL     1     -11.548   6.475   1.286  0.00  0.00    +0.020 A 
ATOM     33  C   UNL     1     -10.259   5.976   1.278  0.00  0.00    +0.006 A 
ATOM     34 CL   UNL     1     -13.817   7.359   0.103  0.00  0.00    -0.084 Cl
ENDBRANCH  27  28
ENDBRANCH  26  27
ENDBRANCH  24  26
ENDBRANCH  20  21
ENDBRANCH  19  20
ENDBRANCH   1  19
TORSDOF 9
