REMARK  Name = ZINC36556559
REMARK  13 active torsions:
REMARK  status: ('A' for Active; 'I' for Inactive)
REMARK    1  A    between atoms: C_1  and  C_2
REMARK    2  A    between atoms: C_7  and  C_8
REMARK    3  A    between atoms: C_8  and  C_9
REMARK    4  A    between atoms: N_11  and  C_12
REMARK    5  A    between atoms: N_11  and  C_19
REMARK    6  A    between atoms: C_12  and  C_13
REMARK    7  A    between atoms: C_16  and  C_18
REMARK    8  A    between atoms: C_19  and  C_21
REMARK    9  A    between atoms: C_19  and  C_30
REMARK   10  A    between atoms: C_22  and  O_29
REMARK   11  A    between atoms: C_24  and  O_28
REMARK   12  A    between atoms: C_26  and  O_27
REMARK   13  A    between atoms: N_32  and  C_33
REMARK                            x       y       z     vdW  Elec       q    Type
REMARK                         _______ _______ _______ _____ _____    ______ ____
ROOT
ATOM      1  C   UNL     1      -2.477   1.523   4.255  0.00  0.00    +0.200 C 
ENDROOT
BRANCH   1   2
ATOM      2  C   UNL     1      -3.493   1.316   5.349  0.00  0.00    +0.065 A 
ATOM      3  C   UNL     1      -3.120   1.456   6.677  0.00  0.00    +0.129 A 
ATOM      4  C   UNL     1      -4.055   1.265   7.684  0.00  0.00    +0.091 A 
ATOM      5  C   UNL     1      -5.362   0.936   7.362  0.00  0.00    +0.124 A 
ATOM      6  C   UNL     1      -5.736   0.797   6.033  0.00  0.00    +0.091 A 
ATOM      7  C   UNL     1      -4.802   0.992   5.027  0.00  0.00    +0.129 A 
BRANCH   7   8
ATOM      8  O   UNL     1      -5.169   0.860   3.725  0.00  0.00    -0.506 OA
ATOM      9  H   UNL     1      -5.069  -0.036   3.377  0.00  0.00    +0.292 HD
ENDBRANCH   7   8
BRANCH   5  10
ATOM     10  O   UNL     1      -6.278   0.748   8.348  0.00  0.00    -0.507 OA
ATOM     11  H   UNL     1      -6.752   1.552   8.603  0.00  0.00    +0.292 HD
ENDBRANCH   5  10
BRANCH   3  12
ATOM     12  O   UNL     1      -1.838   1.779   6.993  0.00  0.00    -0.506 OA
ATOM     13  H   UNL     1      -1.696   2.723   7.144  0.00  0.00    +0.292 HD
ENDBRANCH   3  12
ENDBRANCH   1   2
BRANCH   1  14
ATOM     14  C   UNL     1      -2.262   2.999   4.042  0.00  0.00    +0.239 C 
ATOM     15  O   UNL     1      -1.237   3.395   3.528  0.00  0.00    -0.273 OA
ATOM     16  N   UNL     1      -3.209   3.880   4.422  0.00  0.00    -0.311 N 
ATOM     17  H   UNL     1      -4.029   3.563   4.833  0.00  0.00    +0.149 HD
BRANCH  16  18
ATOM     18  C   UNL     1      -3.000   5.315   4.215  0.00  0.00    +0.073 C 
ATOM     19  C   UNL     1      -2.204   5.889   5.388  0.00  0.00    +0.022 C 
ATOM     20  C   UNL     1      -1.986   7.388   5.171  0.00  0.00    +0.002 C 
ATOM     21  C   UNL     1      -3.341   8.093   5.081  0.00  0.00    +0.000 C 
ATOM     22  C   UNL     1      -4.138   7.519   3.908  0.00  0.00    +0.002 C 
ATOM     23  C   UNL     1      -4.356   6.020   4.125  0.00  0.00    +0.022 C 
ENDBRANCH  16  18
ENDBRANCH   1  14
BRANCH   1  26
ATOM     24  C   UNL     1      -1.144  -0.439   4.814  0.00  0.00    +0.221 C 
ATOM     25  O   UNL     1      -2.134  -1.121   4.652  0.00  0.00    -0.275 OA
ATOM     26  N   UNL     1      -1.210   0.896   4.641  0.00  0.00    -0.278 N 
BRANCH  24  27
ATOM     27  C   UNL     1       0.159  -1.084   5.211  0.00  0.00    +0.131 C 
BRANCH  27  34
ATOM     28  C   UNL     1       0.352  -2.772   2.874  0.00  0.00    +0.044 C 
ATOM     29  C   UNL     1       0.056  -3.380   4.221  0.00  0.00    -0.047 A 
ATOM     30  C   UNL     1      -0.117  -4.747   4.340  0.00  0.00    +0.003 A 
ATOM     31  C   UNL     1      -0.388  -5.305   5.575  0.00  0.00    +0.000 A 
ATOM     32  C   UNL     1      -0.486  -4.496   6.692  0.00  0.00    +0.000 A 
ATOM     33  C   UNL     1      -0.312  -3.130   6.574  0.00  0.00    +0.004 A 
ATOM     34  C   UNL     1      -0.036  -2.573   5.339  0.00  0.00    -0.036 A 
ENDBRANCH  27  34
ENDBRANCH  24  27
BRANCH  26  35
ATOM     35  C   UNL     1      -0.015   1.720   4.837  0.00  0.00    +0.183 C 
BRANCH  35  36
ATOM     36  C   UNL     1       0.887   1.591   3.636  0.00  0.00    +0.122 A 
ATOM     37  C   UNL     1       0.941   2.445   2.598  0.00  0.00    +0.046 A 
ATOM     38  C   UNL     1       1.915   1.944   1.705  0.00  0.00    +0.045 A 
ATOM     39  C   UNL     1       2.399   0.813   2.251  0.00  0.00    +0.102 A 
ATOM     40  O   UNL     1       1.776   0.608   3.423  0.00  0.00    -0.463 OA
ATOM     41  C   UNL     1       3.463  -0.070   1.651  0.00  0.00    +0.086 C 
ENDBRANCH  35  36
ENDBRANCH  26  35
ENDBRANCH   1  26
TORSDOF 11
