REMARK  Name = ZINC36799119
REMARK  8 active torsions:
REMARK  status: ('A' for Active; 'I' for Inactive)
REMARK    1  A    between atoms: C_1  and  C_2
REMARK    2  A    between atoms: C_5  and  C_34
REMARK    3  A    between atoms: N_8  and  S_10
REMARK    4  A    between atoms: S_10  and  C_13
REMARK    5  A    between atoms: C_16  and  C_19
REMARK    6  A    between atoms: N_21  and  C_22
REMARK    7  A    between atoms: C_27  and  C_28
REMARK    8  A    between atoms: C_28  and  C_30
REMARK                            x       y       z     vdW  Elec       q    Type
REMARK                         _______ _______ _______ _____ _____    ______ ____
ROOT
ATOM      1  C   UNL     1       2.517  -3.229  -0.234  0.00  0.00    +0.106 A 
ATOM      2  C   UNL     1       2.057  -4.362  -0.882  0.00  0.00    +0.029 A 
ATOM      3  C   UNL     1       2.491  -4.655  -2.158  0.00  0.00    +0.015 A 
ATOM      4  C   UNL     1       3.396  -3.805  -2.796  0.00  0.00    +0.037 A 
ATOM      5  C   UNL     1       3.856  -2.664  -2.137  0.00  0.00    +0.015 A 
ATOM      6  C   UNL     1       3.410  -2.380  -0.863  0.00  0.00    +0.029 A 
ENDROOT
BRANCH   4   7
ATOM      7  C   UNL     1       3.866  -4.112  -4.163  0.00  0.00    +0.248 C 
ATOM      8  O   UNL     1       3.464  -5.107  -4.735  0.00  0.00    -0.270 OA
ATOM      9  N   UNL     1       4.740  -3.290  -4.777  0.00  0.00    -0.281 N 
ATOM     10  H   UNL     1       5.010  -2.463  -4.348  0.00  0.00    +0.155 HD
BRANCH   9  11
ATOM     11  C   UNL     1       5.254  -3.627  -6.026  0.00  0.00    +0.048 A 
ATOM     12  C   UNL     1       4.462  -4.292  -6.948  0.00  0.00    +0.073 A 
ATOM     13  C   UNL     1       4.972  -4.628  -8.191  0.00  0.00    +0.168 A 
ATOM     14  C   UNL     1       6.290  -4.300  -8.524  0.00  0.00    +0.167 A 
ATOM     15  C   UNL     1       7.089  -3.638  -7.616  0.00  0.00    +0.062 A 
ATOM     16  C   UNL     1       6.579  -3.289  -6.358  0.00  0.00    +0.042 A 
ATOM     17  O   UNL     1       6.541  -4.740  -9.793  0.00  0.00    -0.453 OA
ATOM     18  C   UNL     1       5.504  -5.697 -10.078  0.00  0.00    +0.466 C 
ATOM     19  O   UNL     1       4.405  -5.271  -9.252  0.00  0.00    -0.453 OA
BRANCH  16  20
ATOM     20  C   UNL     1       7.422  -2.581  -5.392  0.00  0.00    +0.162 C 
ATOM     21  O   UNL     1       7.012  -2.368  -4.270  0.00  0.00    -0.292 OA
ATOM     22  C   UNL     1       8.799  -2.117  -5.792  0.00  0.00    +0.091 C 
ENDBRANCH  16  20
ENDBRANCH   9  11
ENDBRANCH   4   7
BRANCH   1  23
ATOM     23  S   UNL     1       1.957  -2.863   1.396  0.00  0.00    +0.061 S 
ATOM     24  O   UNL     1       2.948  -2.036   1.989  0.00  0.00    -0.153 OA
ATOM     25  O   UNL     1       1.549  -4.096   1.972  0.00  0.00    -0.153 OA
BRANCH  23  31
ATOM     26  C   UNL     1      -0.077   1.551  -0.067  0.00  0.00    +0.009 C 
ATOM     27  C   UNL     1      -0.048   0.022  -0.061  0.00  0.00    +0.002 C 
ATOM     28  C   UNL     1      -1.480  -0.517  -0.052  0.00  0.00    +0.009 C 
ATOM     29  C   UNL     1      -1.452  -2.047  -0.079  0.00  0.00    +0.002 C 
ATOM     30  C   UNL     1      -0.734  -2.562   1.173  0.00  0.00    +0.112 C 
ATOM     31  N   UNL     1       0.593  -1.935   1.248  0.00  0.00    -0.176 NA
ATOM     32  C   UNL     1       0.687  -0.470   1.190  0.00  0.00    +0.112 C 
ATOM     33  C   UNL     1      -2.885  -2.583  -0.103  0.00  0.00    +0.009 C 
ENDBRANCH  23  31
ENDBRANCH   1  23
TORSDOF 5
