REMARK  Name = ZINC08695882
REMARK  13 active torsions:
REMARK  status: ('A' for Active; 'I' for Inactive)
REMARK    1  A    between atoms: C_1  and  C_2
REMARK    2  A    between atoms: C_2  and  C_3
REMARK    3  A    between atoms: C_2  and  C_4
REMARK    4  A    between atoms: C_2  and  N_16
REMARK    5  A    between atoms: N_6  and  C_7
REMARK    6  A    between atoms: C_10  and  N_13
REMARK    7  A    between atoms: N_13  and  C_14
REMARK    8  A    between atoms: N_13  and  C_15
REMARK    9  A    between atoms: N_16  and  C_17
REMARK   10  A    between atoms: C_17  and  C_18
REMARK   11  A    between atoms: C_23  and  C_25
REMARK   12  A    between atoms: C_25  and  N_26
REMARK   13  A    between atoms: C_28  and  C_33
REMARK                            x       y       z     vdW  Elec       q    Type
REMARK                         _______ _______ _______ _____ _____    ______ ____
ROOT
ATOM      1  N   UNL     1       1.702   4.899  -1.249  0.00  0.00    -0.279 N 
ATOM      2  C   UNL     1       0.668   5.698  -1.581  0.00  0.00    +0.234 C 
ATOM      3  O   UNL     1       0.632   6.220  -2.675  0.00  0.00    -0.274 OA
ENDROOT
BRANCH   1   5
ATOM      4  C   UNL     1       3.466   5.986  -2.547  0.00  0.00    +0.041 C 
ATOM      5  C   UNL     1       2.781   4.660  -2.210  0.00  0.00    +0.108 C 
ATOM      6  C   UNL     1       3.803   3.698  -1.601  0.00  0.00    +0.041 C 
BRANCH   5   7
ATOM      7  C   UNL     1       2.210   4.056  -3.467  0.00  0.00    +0.240 C 
ATOM      8  O   UNL     1       2.659   4.370  -4.549  0.00  0.00    -0.273 OA
ATOM      9  N   UNL     1       1.200   3.167  -3.389  0.00  0.00    -0.284 N 
ATOM     10  H   UNL     1       0.791   2.971  -2.532  0.00  0.00    +0.155 HD
BRANCH   9  11
ATOM     11  C   UNL     1       0.740   2.526  -4.548  0.00  0.00    +0.034 A 
ATOM     12  C   UNL     1       1.626   2.229  -5.575  0.00  0.00    +0.025 A 
ATOM     13  C   UNL     1       1.174   1.593  -6.714  0.00  0.00    +0.025 A 
ATOM     14  C   UNL     1      -0.169   1.259  -6.836  0.00  0.00    +0.029 A 
ATOM     15  C   UNL     1      -1.056   1.562  -5.811  0.00  0.00    +0.025 A 
ATOM     16  C   UNL     1      -0.602   2.193  -4.670  0.00  0.00    +0.025 A 
BRANCH  14  17
ATOM     17  N   UNL     1      -0.628   0.619  -7.992  0.00  0.00    -0.336 N 
ATOM     18  C   UNL     1      -2.044   0.267  -8.121  0.00  0.00    +0.129 C 
ATOM     19  C   UNL     1       0.308   0.300  -9.073  0.00  0.00    +0.129 C 
ENDBRANCH  14  17
ENDBRANCH   9  11
ENDBRANCH   5   7
ENDBRANCH   1   5
BRANCH   1  20
ATOM     20  C   UNL     1       1.745   4.268   0.073  0.00  0.00    +0.183 C 
BRANCH  20  21
ATOM     21  C   UNL     1       0.947   2.990   0.046  0.00  0.00    +0.122 A 
ATOM     22  C   UNL     1       1.443   1.756  -0.156  0.00  0.00    +0.046 A 
ATOM     23  C   UNL     1       0.351   0.861  -0.100  0.00  0.00    +0.041 A 
ATOM     24  C   UNL     1      -0.749   1.601   0.128  0.00  0.00    +0.195 A 
ATOM     25  O   UNL     1      -0.381   2.890   0.221  0.00  0.00    -0.466 OA
ENDBRANCH  20  21
ENDBRANCH   1  20
BRANCH   2  26
ATOM     26  C   UNL     1      -0.442   5.943  -0.592  0.00  0.00    +0.202 C 
BRANCH  26  27
ATOM     27  N   UNL     1      -1.437   6.839  -1.187  0.00  0.00    -0.302 N 
ATOM     28  C   UNL     1      -2.610   6.413  -1.966  0.00  0.00    +0.134 C 
ATOM     29  C   UNL     1      -3.303   7.736  -2.344  0.00  0.00    +0.119 C 
ATOM     30  N   UNL     1      -2.447   8.768  -1.738  0.00  0.00    -0.318 N 
ATOM     31  C   UNL     1      -1.426   8.176  -1.104  0.00  0.00    +0.134 C 
ATOM     32  S   UNL     1      -0.215   9.049  -0.267  0.00  0.00    -0.019 S 
ATOM     33  H   UNL     1      -2.599   9.724  -1.787  0.00  0.00    +0.148 HD
BRANCH  29  34
ATOM     34  C   UNL     1      -3.349   7.900  -3.841  0.00  0.00    -0.026 A 
ATOM     35  C   UNL     1      -2.234   8.351  -4.522  0.00  0.00    +0.005 A 
ATOM     36  C   UNL     1      -2.275   8.496  -5.896  0.00  0.00    +0.000 A 
ATOM     37  C   UNL     1      -3.435   8.200  -6.588  0.00  0.00    +0.000 A 
ATOM     38  C   UNL     1      -4.552   7.755  -5.906  0.00  0.00    +0.000 A 
ATOM     39  C   UNL     1      -4.509   7.604  -4.533  0.00  0.00    +0.005 A 
ENDBRANCH  29  34
ENDBRANCH  26  27
ENDBRANCH   2  26
TORSDOF 9
