REMARK  Name = ZINC12759194
REMARK  11 active torsions:
REMARK  status: ('A' for Active; 'I' for Inactive)
REMARK    1  A    between atoms: C_1  and  C_2
REMARK    2  A    between atoms: C_3  and  C_16
REMARK    3  A    between atoms: C_4  and  C_15
REMARK    4  A    between atoms: C_9  and  C_11
REMARK    5  A    between atoms: C_16  and  C_17
REMARK    6  A    between atoms: C_17  and  C_18
REMARK    7  A    between atoms: N_20  and  C_21
REMARK    8  A    between atoms: C_21  and  C_22
REMARK    9  A    between atoms: C_22  and  C_24
REMARK   10  A    between atoms: C_22  and  N_63
REMARK   11  A    between atoms: C_31  and  C_34
REMARK                            x       y       z     vdW  Elec       q    Type
REMARK                         _______ _______ _______ _____ _____    ______ ____
ROOT
ATOM      1  C   UNL     1      -1.086   1.966  -0.047  0.00  0.00    +0.213 C 
ATOM      2  O   UNL     1      -0.987   3.168  -0.176  0.00  0.00    -0.276 OA
ATOM      3  N   UNL     1       0.023   1.201   0.006  0.00  0.00    -0.317 N 
ATOM      4  H   UNL     1      -0.056   0.240   0.110  0.00  0.00    +0.149 HD
ENDROOT
BRANCH   1   5
ATOM      5  C   UNL     1      -2.447   1.329   0.055  0.00  0.00    +0.100 C 
BRANCH   5   6
ATOM      6  C   UNL     1      -3.525   2.411  -0.032  0.00  0.00    +0.048 C 
BRANCH   6   9
ATOM      7  C   UNL     1      -4.787   2.054   2.568  0.00  0.00    +0.066 C 
ATOM      8  C   UNL     1      -5.496   1.601   1.319  0.00  0.00    +0.047 A 
ATOM      9  C   UNL     1      -4.887   1.773   0.070  0.00  0.00    -0.005 A 
ATOM     10  C   UNL     1      -5.539   1.365  -1.049  0.00  0.00    +0.048 A 
ATOM     11  N   UNL     1      -6.764   0.789  -0.924  0.00  0.00    -0.200 N 
ATOM     12  C   UNL     1      -7.331   0.635   0.309  0.00  0.00    +0.254 A 
ATOM     13  N   UNL     1      -6.683   1.045   1.406  0.00  0.00    -0.216 NA
ATOM     14  N   UNL     1      -8.513   0.056   0.129  0.00  0.00    -0.186 NA
ATOM     15  C   UNL     1      -8.714  -0.160  -1.163  0.00  0.00    +0.257 A 
ATOM     16  N   UNL     1      -7.680   0.268  -1.848  0.00  0.00    -0.139 NA
ATOM     17  C   UNL     1      -4.912   1.543  -2.408  0.00  0.00    +0.066 C 
BRANCH  15  18
ATOM     18  C   UNL     1      -9.943  -0.800  -1.756  0.00  0.00    +0.454 C 
ATOM     19  F   UNL     1     -10.966  -0.818  -0.802  0.00  0.00    -0.163 F 
ATOM     20  F   UNL     1     -10.359  -0.066  -2.872  0.00  0.00    -0.163 F 
ATOM     21  F   UNL     1      -9.645  -2.111  -2.145  0.00  0.00    -0.163 F 
ENDBRANCH  15  18
ENDBRANCH   6   9
ENDBRANCH   5   6
ENDBRANCH   1   5
BRANCH   3  22
ATOM     22  C   UNL     1       1.346   1.820  -0.099  0.00  0.00    +0.094 C 
BRANCH  22  23
ATOM     23  C   UNL     1       2.424   0.737  -0.017  0.00  0.00    -0.013 C 
BRANCH  23  30
ATOM     24  C   UNL     1       1.892   0.337  -2.345  0.00  0.00    -0.078 C 
ATOM     25  C   UNL     1       1.492  -0.744  -3.351  0.00  0.00    -0.015 C 
ATOM     26  C   UNL     1       2.631  -1.759  -3.483  0.00  0.00    -0.018 C 
ATOM     27  C   UNL     1       2.935  -2.354  -2.105  0.00  0.00    -0.015 C 
ATOM     28  C   UNL     1       3.293  -1.226  -1.135  0.00  0.00    -0.078 C 
ATOM     29  C   UNL     1       2.214  -2.875  -4.442  0.00  0.00    +0.007 C 
ATOM     30  N   UNL     1       2.147  -0.298  -1.034  0.00  0.00    +0.386 N 
ATOM     31  H   UNL     1       1.313  -0.828  -0.753  0.00  0.00    -0.081 HD
ENDBRANCH  23  30
BRANCH  23  32
ATOM     32  C   UNL     1       3.778   1.357  -0.248  0.00  0.00    -0.022 A 
ATOM     33  C   UNL     1       4.773   1.589   0.642  0.00  0.00    +0.009 A 
ATOM     34  C   UNL     1       5.944   2.176   0.201  0.00  0.00    +0.008 A 
ATOM     35  C   UNL     1       6.062   2.502  -1.110  0.00  0.00    +0.045 A 
ATOM     36  S   UNL     1       4.490   1.970  -1.766  0.00  0.00    -0.103 S 
ENDBRANCH  23  32
ENDBRANCH  22  23
ENDBRANCH   3  22
TORSDOF 8
