REMARK  Name = ZINC06077648
REMARK  14 active torsions:
REMARK  status: ('A' for Active; 'I' for Inactive)
REMARK    1  A    between atoms: C_1  and  C_2
REMARK    2  A    between atoms: C_2  and  C_3
REMARK    3  A    between atoms: C_3  and  C_4
REMARK    4  A    between atoms: C_3  and  C_5
REMARK    5  A    between atoms: C_3  and  N_6
REMARK    6  A    between atoms: C_7  and  C_11
REMARK    7  A    between atoms: C_11  and  C_13
REMARK    8  A    between atoms: C_11  and  N_74
REMARK    9  A    between atoms: C_16  and  C_26
REMARK   10  A    between atoms: C_19  and  C_25
REMARK   11  A    between atoms: C_27  and  C_28
REMARK   12  A    between atoms: C_27  and  N_74
REMARK   13  A    between atoms: C_34  and  C_35
REMARK   14  A    between atoms: C_34  and  N_74
REMARK                            x       y       z     vdW  Elec       q    Type
REMARK                         _______ _______ _______ _____ _____    ______ ____
ROOT
ATOM      1  C   UNL     1       5.374   0.915   0.532  0.00  0.00    +0.040 C 
ENDROOT
BRANCH   1   2
ATOM      2  C   UNL     1       6.456   1.714   1.212  0.00  0.00    +0.011 A 
ATOM      3  C   UNL     1       7.330   2.437   0.468  0.00  0.00    +0.018 A 
ATOM      4  C   UNL     1       8.370   3.202   1.158  0.00  0.00    +0.002 A 
ATOM      5  C   UNL     1       9.299   3.967   0.445  0.00  0.00    -0.041 A 
ATOM      6  C   UNL     1      10.257   4.670   1.119  0.00  0.00    +0.004 A 
ATOM      7  C   UNL     1      10.316   4.632   2.506  0.00  0.00    +0.005 A 
ATOM      8  C   UNL     1       9.411   3.886   3.229  0.00  0.00    -0.026 A 
ATOM      9  C   UNL     1       8.427   3.161   2.564  0.00  0.00    +0.052 A 
ATOM     10  N   UNL     1       7.508   2.406   3.262  0.00  0.00    -0.322 N 
ATOM     11  H   UNL     1       7.552   2.376   4.261  0.00  0.00    +0.169 HD
ATOM     12  C   UNL     1       6.553   1.711   2.620  0.00  0.00    +0.251 A 
ATOM     13  O   UNL     1       5.755   1.059   3.269  0.00  0.00    -0.268 OA
ATOM     14  C   UNL     1       9.487   3.855   4.734  0.00  0.00    +0.046 C 
ATOM     15  C   UNL     1       9.243   4.015  -1.060  0.00  0.00    +0.044 C 
ENDBRANCH   1   2
BRANCH   1  17
ATOM     16  N   UNL     1       6.105  -1.486   0.080  0.00  0.00    -0.225 N 
ATOM     17  C   UNL     1       5.545  -0.546   0.863  0.00  0.00    +0.143 A 
ATOM     18  N   UNL     1       5.182  -1.145   1.971  0.00  0.00    -0.115 NA
ATOM     19  N   UNL     1       5.495  -2.390   1.871  0.00  0.00    -0.023 NA
ATOM     20  N   UNL     1       6.056  -2.600   0.731  0.00  0.00    -0.043 NA
BRANCH  16  21
ATOM     21  C   UNL     1       6.665  -1.285  -1.258  0.00  0.00    +0.061 C 
ATOM     22  C   UNL     1       5.553  -0.847  -2.215  0.00  0.00    +0.036 C 
ATOM     23  C   UNL     1       7.744  -0.202  -1.202  0.00  0.00    +0.036 C 
BRANCH  21  25
ATOM     24  C   UNL     1       7.864  -2.383  -3.155  0.00  0.00    +0.006 C 
ATOM     25  C   UNL     1       7.280  -2.594  -1.757  0.00  0.00    +0.026 C 
ENDBRANCH  21  25
ENDBRANCH  16  21
ENDBRANCH   1  17
BRANCH   1  26
ATOM     26  N   UNL     1       4.057   1.365   1.030  0.00  0.00    +0.395 N 
ATOM     27  H   UNL     1       3.961   1.092   2.015  0.00  0.00    -0.079 HD
BRANCH  26  28
ATOM     28  C   UNL     1       3.954   2.836   0.926  0.00  0.00    -0.041 C 
BRANCH  28  29
ATOM     29  C   UNL     1       2.798   3.300   1.775  0.00  0.00    -0.064 A 
ATOM     30  C   UNL     1       1.568   3.544   1.194  0.00  0.00    +0.002 A 
ATOM     31  C   UNL     1       0.506   3.965   1.973  0.00  0.00    +0.000 A 
ATOM     32  C   UNL     1       0.678   4.153   3.332  0.00  0.00    +0.000 A 
ATOM     33  C   UNL     1       1.910   3.915   3.912  0.00  0.00    +0.000 A 
ATOM     34  C   UNL     1       2.970   3.488   3.134  0.00  0.00    +0.002 A 
ENDBRANCH  28  29
ENDBRANCH  26  28
BRANCH  26  35
ATOM     35  C   UNL     1       2.977   0.727   0.248  0.00  0.00    -0.040 C 
BRANCH  35  36
ATOM     36  C   UNL     1       2.761  -0.669   0.774  0.00  0.00    -0.046 A 
ATOM     37  C   UNL     1       1.990  -0.880   1.907  0.00  0.00    +0.005 A 
ATOM     38  C   UNL     1       1.822  -2.180   2.358  0.00  0.00    +0.020 A 
ATOM     39  C   UNL     1       2.416  -3.216   1.662  0.00  0.00    +0.111 A 
ATOM     40  N   UNL     1       3.143  -2.978   0.588  0.00  0.00    -0.263 NA
ATOM     41  C   UNL     1       3.328  -1.754   0.134  0.00  0.00    +0.112 A 
ENDBRANCH  35  36
ENDBRANCH  26  35
ENDBRANCH   1  26
TORSDOF 9
