REMARK  Name = ZINC03424434
REMARK  3 active torsions:
REMARK  status: ('A' for Active; 'I' for Inactive)
REMARK    1  A    between atoms: C_4  and  C_7
REMARK    2  A    between atoms: N_10  and  C_13
REMARK    3  A    between atoms: C_13  and  C_14
REMARK                            x       y       z     vdW  Elec       q    Type
REMARK                         _______ _______ _______ _____ _____    ______ ____
ROOT
ATOM      1  C   UNL     1       7.637  -3.415   1.428  0.00  0.00    -0.046 A 
ATOM      2  C   UNL     1       8.228  -2.553   2.309  0.00  0.00    +0.094 A 
ATOM      3  C   UNL     1       8.511  -2.980   3.620  0.00  0.00    +0.337 A 
ATOM      4  O   UNL     1       9.187  -2.289   4.357  0.00  0.00    -0.245 OA
ATOM      5  O   UNL     1       8.008  -4.144   4.066  0.00  0.00    -0.422 OA
ATOM      6  C   UNL     1       7.519  -5.056   3.199  0.00  0.00    +0.140 A 
ATOM      7  C   UNL     1       7.406  -4.746   1.831  0.00  0.00    +0.027 A 
ATOM      8  C   UNL     1       7.111  -5.846   0.916  0.00  0.00    -0.007 A 
ATOM      9  C   UNL     1       7.409  -5.831  -0.448  0.00  0.00    +0.009 A 
ATOM     10  C   UNL     1       6.986  -6.846  -1.259  0.00  0.00    +0.001 A 
ATOM     11  C   UNL     1       6.290  -7.933  -0.742  0.00  0.00    +0.001 A 
ATOM     12  C   UNL     1       6.072  -8.034   0.599  0.00  0.00    +0.008 A 
ATOM     13  C   UNL     1       6.565  -7.040   1.458  0.00  0.00    -0.017 A 
ATOM     14  C   UNL     1       6.573  -7.237   2.853  0.00  0.00    +0.012 A 
ATOM     15  C   UNL     1       7.066  -6.287   3.682  0.00  0.00    +0.047 A 
ENDROOT
BRANCH   1  16
ATOM     16  C   UNL     1       7.270  -2.889   0.065  0.00  0.00    -0.042 C 
BRANCH  16  20
ATOM     17  C   UNL     1       3.497  -1.060  -0.199  0.00  0.00    -0.048 C 
ATOM     18  C   UNL     1       4.273  -0.802   0.832  0.00  0.00    -0.041 C 
ATOM     19  C   UNL     1       5.667  -1.345   0.960  0.00  0.00    -0.050 C 
ATOM     20  N   UNL     1       5.857  -2.487   0.059  0.00  0.00    +0.385 N 
ATOM     21  C   UNL     1       5.462  -2.094  -1.302  0.00  0.00    -0.073 C 
ATOM     22  C   UNL     1       3.938  -1.935  -1.339  0.00  0.00    +0.017 C 
ATOM     23  H   UNL     1       5.284  -3.259   0.368  0.00  0.00    -0.081 HD
BRANCH  17  27
ATOM     24  C   UNL     1      -0.399   0.628  -0.301  0.00  0.00    +0.000 A 
ATOM     25  C   UNL     1       0.710   1.452  -0.357  0.00  0.00    +0.001 A 
ATOM     26  C   UNL     1       1.979   0.911  -0.324  0.00  0.00    +0.008 A 
ATOM     27  C   UNL     1       2.141  -0.472  -0.234  0.00  0.00    -0.022 A 
ATOM     28  C   UNL     1       1.018  -1.298  -0.177  0.00  0.00    +0.008 A 
ATOM     29  C   UNL     1      -0.245  -0.744  -0.212  0.00  0.00    +0.001 A 
ENDBRANCH  17  27
ENDBRANCH  16  20
ENDBRANCH   1  16
TORSDOF 3
