REMARK  Name = ZINC03375986
REMARK  16 active torsions:
REMARK  status: ('A' for Active; 'I' for Inactive)
REMARK    1  A    between atoms: C_1  and  C_2
REMARK    2  A    between atoms: C_2  and  O_3
REMARK    3  A    between atoms: O_3  and  C_4
REMARK    4  A    between atoms: C_4  and  C_6
REMARK    5  A    between atoms: C_7  and  C_34
REMARK    6  A    between atoms: C_8  and  C_13
REMARK    7  A    between atoms: C_11  and  C_12
REMARK    8  A    between atoms: C_13  and  C_15
REMARK    9  A    between atoms: C_15  and  S_16
REMARK   10  A    between atoms: S_16  and  C_17
REMARK   11  A    between atoms: C_20  and  C_29
REMARK   12  A    between atoms: N_21  and  C_22
REMARK   13  A    between atoms: C_29  and  C_31
REMARK   14  A    between atoms: C_29  and  N_61
REMARK   15  A    between atoms: C_32  and  N_61
REMARK   16  A    between atoms: C_33  and  N_61
REMARK                            x       y       z     vdW  Elec       q    Type
REMARK                         _______ _______ _______ _____ _____    ______ ____
ROOT
ATOM      1  C   UNL     1       0.002  -0.004   0.002  0.00  0.00    +0.196 A 
ATOM      2  N   UNL     1       1.068  -0.771  -0.012  0.00  0.00    -0.122 NA
ATOM      3  N   UNL     1       0.718  -2.007  -0.015  0.00  0.00    -0.135 NA
ATOM      4  C   UNL     1      -0.581  -2.106  -0.003  0.00  0.00    +0.125 A 
ATOM      5  N   UNL     1      -1.086  -0.833   0.013  0.00  0.00    -0.275 N 
ENDROOT
BRANCH   5   6
ATOM      6  C   UNL     1      -2.438  -0.457   0.035  0.00  0.00    +0.050 A 
ATOM      7  C   UNL     1      -3.229  -0.769   1.131  0.00  0.00    +0.028 A 
ATOM      8  C   UNL     1      -4.558  -0.394   1.151  0.00  0.00    +0.022 A 
ATOM      9  C   UNL     1      -5.104   0.284   0.075  0.00  0.00    +0.041 A 
ATOM     10  C   UNL     1      -4.318   0.592  -1.021  0.00  0.00    +0.022 A 
ATOM     11  C   UNL     1      -2.987   0.223  -1.044  0.00  0.00    +0.028 A 
ATOM     12 CL   UNL     1      -6.776   0.749   0.101  0.00  0.00    -0.084 Cl
ENDBRANCH   5   6
BRANCH   4  13
ATOM     13  C   UNL     1      -1.380  -3.384  -0.001  0.00  0.00    -0.003 C 
ATOM     14  C   UNL     1      -1.348  -4.007  -1.397  0.00  0.00    -0.005 C 
BRANCH  13  17
ATOM     15  C   UNL     1      -1.622  -5.535   1.084  0.00  0.00    -0.096 C 
ATOM     16  C   UNL     1       0.585  -4.658   0.612  0.00  0.00    -0.096 C 
ATOM     17  N   UNL     1      -0.799  -4.310   0.994  0.00  0.00    +0.382 N 
ATOM     18  H   UNL     1      -0.787  -3.849   1.911  0.00  0.00    -0.082 HD
ENDBRANCH  13  17
ENDBRANCH   4  13
BRANCH   1  19
ATOM     19  S   UNL     1      -0.022   1.758   0.012  0.00  0.00    -0.078 S 
BRANCH  19  20
ATOM     20  C   UNL     1       1.756   2.096  -0.004  0.00  0.00    +0.158 C 
BRANCH  20  21
ATOM     21  C   UNL     1       1.984   3.586   0.002  0.00  0.00    +0.190 C 
ATOM     22  O   UNL     1       1.036   4.345   0.015  0.00  0.00    -0.290 OA
BRANCH  21  25
ATOM     23  C   UNL     1       5.062   5.487  -0.018  0.00  0.00    +0.083 A 
ATOM     24  C   UNL     1       3.652   5.434  -0.009  0.00  0.00    -0.008 A 
ATOM     25  C   UNL     1       3.303   4.100  -0.007  0.00  0.00    +0.087 A 
ATOM     26  N   UNL     1       4.464   3.354  -0.023  0.00  0.00    -0.355 N 
ATOM     27  H   UNL     1       4.509   2.386  -0.029  0.00  0.00    +0.166 HD
ATOM     28  C   UNL     1       5.520   4.181  -0.029  0.00  0.00    +0.028 A 
ATOM     29  C   UNL     1       6.966   3.757  -0.047  0.00  0.00    +0.064 C 
ATOM     30  C   UNL     1       2.709   6.609  -0.001  0.00  0.00    +0.047 C 
BRANCH  23  31
ATOM     31  C   UNL     1       5.891   6.704  -0.020  0.00  0.00    +0.341 C 
ATOM     32  O   UNL     1       6.222   7.212  -1.073  0.00  0.00    -0.245 OA
BRANCH  31  33
ATOM     33  O   UNL     1       6.282   7.254   1.146  0.00  0.00    -0.461 OA
BRANCH  33  35
ATOM     34  C   UNL     1       7.442   8.929   2.481  0.00  0.00    +0.048 C 
ATOM     35  C   UNL     1       7.098   8.453   1.068  0.00  0.00    +0.229 C 
ENDBRANCH  33  35
ENDBRANCH  31  33
ENDBRANCH  23  31
ENDBRANCH  21  25
ENDBRANCH  20  21
ENDBRANCH  19  20
ENDBRANCH   1  19
TORSDOF 10
