REMARK  Name = ZINC40058761
REMARK  9 active torsions:
REMARK  status: ('A' for Active; 'I' for Inactive)
REMARK    1  A    between atoms: C_1  and  C_2
REMARK    2  A    between atoms: C_4  and  C_36
REMARK    3  A    between atoms: C_13  and  C_26
REMARK    4  A    between atoms: N_15  and  C_18
REMARK    5  A    between atoms: C_18  and  C_19
REMARK    6  A    between atoms: C_19  and  C_20
REMARK    7  A    between atoms: C_29  and  C_32
REMARK    8  A    between atoms: C_32  and  O_34
REMARK    9  A    between atoms: O_34  and  C_35
REMARK                            x       y       z     vdW  Elec       q    Type
REMARK                         _______ _______ _______ _____ _____    ______ ____
ROOT
ATOM      1  C   UNL     1      -0.523   1.450   0.038  0.00  0.00    +0.044 C 
ATOM      2  C   UNL     1      -0.237  -0.029   0.015  0.00  0.00    -0.047 A 
ATOM      3  C   UNL     1      -0.233  -0.708  -1.195  0.00  0.00    +0.007 A 
ATOM      4  C   UNL     1       0.027  -2.050  -1.231  0.00  0.00    -0.036 A 
ATOM      5  C   UNL     1       0.289  -2.735  -0.045  0.00  0.00    +0.067 A 
ATOM      6  C   UNL     1       0.282  -2.060   1.186  0.00  0.00    +0.140 A 
ATOM      7  C   UNL     1       0.022  -0.690   1.195  0.00  0.00    +0.050 A 
ATOM      8  O   UNL     1       0.518  -2.692   2.358  0.00  0.00    -0.450 OA
ATOM      9  C   UNL     1       1.001  -3.950   2.351  0.00  0.00    +0.199 A 
ATOM     10  C   UNL     1       1.051  -4.714   1.220  0.00  0.00    +0.072 A 
ATOM     11  C   UNL     1       0.581  -4.191  -0.067  0.00  0.00    +0.199 A 
ATOM     12  O   UNL     1       0.444  -4.884  -1.059  0.00  0.00    -0.287 OA
ATOM     13  C   UNL     1       1.631  -6.039   1.591  0.00  0.00    +0.144 C 
ATOM     14  N   UNL     1       1.915  -5.964   3.033  0.00  0.00    -0.283 N 
ATOM     15  C   UNL     1       1.545  -4.742   3.468  0.00  0.00    +0.283 C 
ATOM     16  O   UNL     1       1.646  -4.351   4.614  0.00  0.00    -0.267 OA
ATOM     17  C   UNL     1       0.031  -2.784  -2.547  0.00  0.00    +0.044 C 
ENDROOT
BRANCH  13  18
ATOM     18  C   UNL     1       0.638  -7.138   1.312  0.00  0.00    -0.022 A 
ATOM     19  C   UNL     1      -0.408  -7.360   2.190  0.00  0.00    +0.006 A 
ATOM     20  C   UNL     1      -1.321  -8.364   1.941  0.00  0.00    +0.015 A 
ATOM     21  C   UNL     1      -1.187  -9.157   0.800  0.00  0.00    +0.059 A 
ATOM     22  C   UNL     1      -0.130  -8.928  -0.082  0.00  0.00    +0.015 A 
ATOM     23  C   UNL     1       0.773  -7.917   0.176  0.00  0.00    +0.006 A 
BRANCH  21  24
ATOM     24  C   UNL     1      -2.161 -10.234   0.527  0.00  0.00    +0.339 C 
ATOM     25  O   UNL     1      -3.080 -10.432   1.296  0.00  0.00    -0.245 OA
BRANCH  24  26
ATOM     26  O   UNL     1      -2.029 -10.998  -0.575  0.00  0.00    -0.464 OA
ATOM     27  C   UNL     1      -3.006 -12.021  -0.776  0.00  0.00    +0.280 C 
ENDBRANCH  24  26
ENDBRANCH  21  24
ENDBRANCH  13  18
BRANCH  14  28
ATOM     28  C   UNL     1       2.498  -7.029   3.853  0.00  0.00    +0.114 C 
BRANCH  28  29
ATOM     29  C   UNL     1       4.022  -6.898   3.851  0.00  0.00    +0.054 C 
BRANCH  29  30
ATOM     30  C   UNL     1       4.622  -7.994   4.694  0.00  0.00    -0.046 A 
ATOM     31  C   UNL     1       4.832  -7.790   6.045  0.00  0.00    +0.004 A 
ATOM     32  C   UNL     1       5.382  -8.795   6.818  0.00  0.00    +0.000 A 
ATOM     33  C   UNL     1       5.722 -10.004   6.241  0.00  0.00    +0.000 A 
ATOM     34  C   UNL     1       5.511 -10.208   4.890  0.00  0.00    +0.000 A 
ATOM     35  C   UNL     1       4.957  -9.204   4.117  0.00  0.00    +0.004 A 
ENDBRANCH  29  30
ENDBRANCH  28  29
ENDBRANCH  14  28
TORSDOF 6
