REMARK  Name = ZINC04258988
REMARK  4 active torsions:
REMARK  status: ('A' for Active; 'I' for Inactive)
REMARK    1  A    between atoms: C_4  and  N_7
REMARK    2  A    between atoms: N_10  and  C_11
REMARK    3  A    between atoms: C_27  and  C_29
REMARK    4  A    between atoms: C_29  and  C_30
REMARK                            x       y       z     vdW  Elec       q    Type
REMARK                         _______ _______ _______ _____ _____    ______ ____
ROOT
ATOM      1  C   UNL     1       0.821   0.920  -4.560  0.00  0.00    +0.100 A 
ATOM      2  C   UNL     1       2.063   0.541  -4.128  0.00  0.00    +0.030 A 
ATOM      3  C   UNL     1       2.161  -0.352  -3.056  0.00  0.00    +0.024 A 
ATOM      4  C   UNL     1       1.043  -0.847  -2.462  0.00  0.00    +0.027 A 
ATOM      5  N   UNL     1      -0.186  -0.545  -2.946  0.00  0.00    -0.310 N 
ATOM      6  C   UNL     1      -0.316   0.377  -3.932  0.00  0.00    +0.273 A 
ATOM      7  O   UNL     1      -1.429   0.740  -4.277  0.00  0.00    -0.266 OA
ATOM      8  C   UNL     1      -1.413  -1.181  -2.465  0.00  0.00    +0.130 C 
ATOM      9  C   UNL     1      -1.244  -1.800  -1.090  0.00  0.00    +0.027 C 
ATOM     10  C   UNL     1       0.039  -2.631  -1.049  0.00  0.00    +0.018 C 
ATOM     11  C   UNL     1       1.232  -1.687  -1.220  0.00  0.00    +0.054 C 
ATOM     12  C   UNL     1       1.273  -0.735  -0.019  0.00  0.00    +0.117 C 
ATOM     13  N   UNL     1       0.002   0.008   0.003  0.00  0.00    -0.300 N 
ATOM     14  C   UNL     1      -1.254  -0.752   0.014  0.00  0.00    +0.113 C 
ATOM     15  C   UNL     1      -0.008   1.355   0.008  0.00  0.00    +0.220 C 
ATOM     16  O   UNL     1      -1.063   1.954   0.016  0.00  0.00    -0.275 OA
ENDROOT
BRANCH   1  20
ATOM     17  N   UNL     1      -0.020   2.320  -7.786  0.00  0.00    -0.269 N 
ATOM     18  C   UNL     1       0.029   1.476  -6.736  0.00  0.00    +0.308 C 
ATOM     19  O   UNL     1      -0.516   0.391  -6.802  0.00  0.00    -0.252 OA
ATOM     20  N   UNL     1       0.683   1.835  -5.614  0.00  0.00    -0.265 N 
ATOM     21  H   UNL     1       0.470   3.156  -7.760  0.00  0.00    +0.156 HD
ATOM     22  H   UNL     1       1.058   2.726  -5.534  0.00  0.00    +0.157 HD
BRANCH  17  26
ATOM     23  C   UNL     1      -2.274   1.333 -11.148  0.00  0.00    +0.000 A 
ATOM     24  C   UNL     1      -2.184   2.652 -10.741  0.00  0.00    +0.002 A 
ATOM     25  C   UNL     1      -1.437   2.982  -9.626  0.00  0.00    +0.023 A 
ATOM     26  C   UNL     1      -0.777   1.988  -8.915  0.00  0.00    +0.035 A 
ATOM     27  C   UNL     1      -0.865   0.666  -9.331  0.00  0.00    +0.023 A 
ATOM     28  C   UNL     1      -1.618   0.342 -10.442  0.00  0.00    +0.002 A 
ENDBRANCH  17  26
ENDBRANCH   1  20
BRANCH  15  29
ATOM     29  C   UNL     1       1.291   2.119  -0.003  0.00  0.00    +0.138 C 
BRANCH  29  30
ATOM     30  C   UNL     1       1.005   3.598   0.006  0.00  0.00    -0.001 A 
ATOM     31  C   UNL     1       0.848   4.432   1.063  0.00  0.00    +0.011 A 
ATOM     32  C   UNL     1       0.591   5.770   0.830  0.00  0.00    +0.008 A 
ATOM     33  C   UNL     1       0.494   6.207  -0.449  0.00  0.00    +0.045 A 
ATOM     34  S   UNL     1       0.776   4.707  -1.375  0.00  0.00    -0.101 S 
ENDBRANCH  29  30
ENDBRANCH  15  29
TORSDOF 4
