REMARK  Name = ZINC59267199
REMARK  3 active torsions:
REMARK  status: ('A' for Active; 'I' for Inactive)
REMARK    1  A    between atoms: C_1  and  C_2
REMARK    2  A    between atoms: C_4  and  N_25
REMARK    3  A    between atoms: C_9  and  C_18
REMARK                            x       y       z     vdW  Elec       q    Type
REMARK                         _______ _______ _______ _____ _____    ______ ____
ROOT
ATOM      1  C   UNL     1      -0.018   1.503   0.010  0.00  0.00    +0.046 C 
ATOM      2  C   UNL     1       0.002  -0.004   0.002  0.00  0.00    -0.027 A 
ATOM      3  C   UNL     1       0.006  -0.686  -1.198  0.00  0.00    +0.038 A 
ATOM      4  C   UNL     1       0.027  -2.069  -1.202  0.00  0.00    +0.127 A 
ATOM      5  C   UNL     1       0.052  -2.766  -0.010  0.00  0.00    +0.038 A 
ATOM      6  C   UNL     1       0.052  -2.091   1.202  0.00  0.00    -0.017 A 
ATOM      7  C   UNL     1       0.023  -0.704   1.203  0.00  0.00    +0.034 A 
ATOM      8  N   UNL     1      -0.009  -0.005   2.404  0.00  0.00    -0.336 N 
ATOM      9  C   UNL     1      -0.026  -0.648   3.699  0.00  0.00    +0.105 C 
ATOM     10  C   UNL     1       0.515  -2.063   3.698  0.00  0.00    +0.029 C 
ATOM     11  C   UNL     1       0.102  -2.875   2.469  0.00  0.00    +0.049 C 
ATOM     12  C   UNL     1      -1.229  -3.496   2.807  0.00  0.00    -0.023 C 
ATOM     13  C   UNL     1      -1.416  -3.490   4.103  0.00  0.00    -0.030 C 
ATOM     14  C   UNL     1      -0.216  -2.858   4.816  0.00  0.00    +0.033 C 
ATOM     15  H   UNL     1      -0.021   0.965   2.371  0.00  0.00    +0.147 HD
ENDROOT
BRANCH   9  16
ATOM     16  C   UNL     1      -1.448  -0.683   4.197  0.00  0.00    -0.027 A 
ATOM     17  C   UNL     1      -2.480  -0.965   3.321  0.00  0.00    +0.008 A 
ATOM     18  C   UNL     1      -3.784  -0.998   3.777  0.00  0.00    +0.038 A 
ATOM     19  C   UNL     1      -4.057  -0.749   5.112  0.00  0.00    +0.123 A 
ATOM     20  C   UNL     1      -3.023  -0.468   5.988  0.00  0.00    +0.038 A 
ATOM     21  C   UNL     1      -1.719  -0.440   5.531  0.00  0.00    +0.008 A 
ATOM     22  F   UNL     1      -5.332  -0.781   5.558  0.00  0.00    -0.205 F 
ENDBRANCH   9  16
BRANCH   4  23
ATOM     23  N   UNL     1       0.022  -2.803  -2.486  0.00  0.00    +0.056 N 
ATOM     24  O   UNL     1      -0.000  -2.195  -3.531  0.00  0.00    -0.126 OA
ATOM     25  O   UNL     1       0.040  -4.012  -2.492  0.00  0.00    -0.126 OA
ENDBRANCH   4  23
TORSDOF 2
