REMARK  Name = ZINC13816326
REMARK  5 active torsions:
REMARK  status: ('A' for Active; 'I' for Inactive)
REMARK    1  A    between atoms: C_1  and  C_2
REMARK    2  A    between atoms: N_14  and  C_17
REMARK    3  A    between atoms: C_17  and  C_18
REMARK    4  A    between atoms: C_18  and  C_19
REMARK    5  A    between atoms: C_19  and  N_20
REMARK                            x       y       z     vdW  Elec       q    Type
REMARK                         _______ _______ _______ _____ _____    ______ ____
ROOT
ATOM      1  C   UNL     1       2.456   3.919   0.000  0.00  0.00    +0.044 C 
ATOM      2  C   UNL     1       1.152   3.164   0.008  0.00  0.00    -0.048 A 
ATOM      3  C   UNL     1       1.161   1.776   0.001  0.00  0.00    +0.004 A 
ATOM      4  C   UNL     1      -0.013   1.076   0.008  0.00  0.00    +0.012 A 
ATOM      5  C   UNL     1      -1.230   1.758   0.017  0.00  0.00    +0.026 A 
ATOM      6  C   UNL     1      -1.246   3.164   0.030  0.00  0.00    +0.049 A 
ATOM      7  C   UNL     1      -0.038   3.858   0.023  0.00  0.00    +0.029 A 
ATOM      8  N   UNL     1      -2.559   3.580   0.045  0.00  0.00    -0.349 N 
ATOM      9  H   UNL     1      -2.849   4.506   0.053  0.00  0.00    +0.166 HD
ATOM     10  C   UNL     1      -3.404   2.486   0.047  0.00  0.00    +0.131 A 
ATOM     11  C   UNL     1      -2.634   1.326   0.033  0.00  0.00    +0.103 A 
ATOM     12  N   UNL     1      -3.238   0.124   0.033  0.00  0.00    -0.235 NA
ATOM     13  C   UNL     1      -4.536   0.022   0.046  0.00  0.00    +0.202 A 
ATOM     14  N   UNL     1      -5.343   1.113   0.059  0.00  0.00    -0.297 N 
ATOM     15  C   UNL     1      -4.812   2.355   0.061  0.00  0.00    +0.278 A 
ATOM     16  O   UNL     1      -5.531   3.341   0.073  0.00  0.00    -0.265 OA
ENDROOT
BRANCH  14  17
ATOM     17  C   UNL     1      -6.798   0.943   0.073  0.00  0.00    +0.128 C 
BRANCH  17  18
ATOM     18  C   UNL     1      -7.318   0.892  -1.365  0.00  0.00    +0.043 C 
BRANCH  18  19
ATOM     19  C   UNL     1      -8.838   0.714  -1.351  0.00  0.00    +0.124 C 
BRANCH  19  20
ATOM     20  N   UNL     1      -9.337   0.665  -2.728  0.00  0.00    -0.337 N 
ATOM     21  C   UNL     1      -9.746   1.731  -3.482  0.00  0.00    +0.106 A 
ATOM     22  C   UNL     1     -10.120   1.241  -4.679  0.00  0.00    +0.130 A 
ATOM     23  N   UNL     1      -9.953  -0.089  -4.653  0.00  0.00    -0.244 NA
ATOM     24  C   UNL     1      -9.484  -0.442  -3.487  0.00  0.00    +0.199 A 
ENDBRANCH  19  20
ENDBRANCH  18  19
ENDBRANCH  17  18
ENDBRANCH  14  17
TORSDOF 4
