REMARK  Name = ZINC35621151
REMARK  9 active torsions:
REMARK  status: ('A' for Active; 'I' for Inactive)
REMARK    1  A    between atoms: C_1  and  C_2
REMARK    2  A    between atoms: C_2  and  N_3
REMARK    3  A    between atoms: N_6  and  C_9
REMARK    4  A    between atoms: C_10  and  C_23
REMARK    5  A    between atoms: N_13  and  C_16
REMARK    6  A    between atoms: C_16  and  C_17
REMARK    7  A    between atoms: C_24  and  C_36
REMARK    8  A    between atoms: N_26  and  C_29
REMARK    9  A    between atoms: C_27  and  O_28
REMARK                            x       y       z     vdW  Elec       q    Type
REMARK                         _______ _______ _______ _____ _____    ______ ____
ROOT
ATOM      1  C   UNL     1       3.515  -2.730  -3.175  0.00  0.00    +0.106 C 
ATOM      2  C   UNL     1       3.423  -4.080  -3.379  0.00  0.00    +0.077 C 
ATOM      3  C   UNL     1       4.782  -4.542  -3.732  0.00  0.00    +0.256 C 
ATOM      4  O   UNL     1       5.099  -5.687  -3.986  0.00  0.00    -0.269 OA
ATOM      5  N   UNL     1       5.608  -3.481  -3.725  0.00  0.00    -0.229 N 
ATOM      6  C   UNL     1       4.926  -2.367  -3.408  0.00  0.00    +0.268 C 
ATOM      7  O   UNL     1       5.394  -1.249  -3.325  0.00  0.00    -0.268 OA
ENDROOT
BRANCH   1  11
ATOM      8  N   UNL     1       1.016   0.490  -2.616  0.00  0.00    -0.300 NA
ATOM      9  C   UNL     1       1.115  -0.177  -3.921  0.00  0.00    +0.103 C 
ATOM     10  C   UNL     1       1.323  -1.680  -3.708  0.00  0.00    +0.120 C 
ATOM     11  N   UNL     1       2.483  -1.870  -2.823  0.00  0.00    -0.323 N 
ATOM     12  C   UNL     1       2.520  -1.125  -1.555  0.00  0.00    +0.120 C 
ATOM     13  C   UNL     1       2.264   0.356  -1.853  0.00  0.00    +0.103 C 
BRANCH   8  15
ATOM     14  C   UNL     1      -0.770   1.997  -3.348  0.00  0.00    +0.020 C 
ATOM     15  C   UNL     1       0.645   1.903  -2.774  0.00  0.00    +0.081 C 
ENDBRANCH   8  15
ENDBRANCH   1  11
BRANCH   2  16
ATOM     16  C   UNL     1       2.207  -4.911  -3.268  0.00  0.00    +0.073 A 
ATOM     17  C   UNL     1       1.739  -5.559  -2.104  0.00  0.00    +0.072 A 
ATOM     18  N   UNL     1       0.638  -6.194  -2.402  0.00  0.00    -0.168 NA
ATOM     19  N   UNL     1       0.343  -5.991  -3.755  0.00  0.00    -0.200 N 
ATOM     20  C   UNL     1       1.308  -5.196  -4.285  0.00  0.00    +0.224 A 
ATOM     21  C   UNL     1       2.398  -5.525  -0.750  0.00  0.00    +0.068 C 
BRANCH  19  22
ATOM     22  C   UNL     1      -0.761  -6.513  -4.442  0.00  0.00    +0.070 A 
ATOM     23  C   UNL     1      -1.367  -5.773  -5.449  0.00  0.00    +0.028 A 
ATOM     24  C   UNL     1      -2.455  -6.290  -6.125  0.00  0.00    +0.003 A 
ATOM     25  C   UNL     1      -2.940  -7.544  -5.801  0.00  0.00    +0.020 A 
ATOM     26  C   UNL     1      -2.339  -8.284  -4.798  0.00  0.00    +0.043 A 
ATOM     27  C   UNL     1      -1.246  -7.774  -4.122  0.00  0.00    +0.048 A 
ATOM     28 CL   UNL     1      -2.953  -9.857  -4.394  0.00  0.00    -0.083 Cl
ENDBRANCH  19  22
BRANCH  20  29
ATOM     29  O   UNL     1       1.380  -4.764  -5.568  0.00  0.00    -0.492 OA
ATOM     30  H   UNL     1       1.871  -5.355  -6.155  0.00  0.00    +0.294 HD
ENDBRANCH  20  29
ENDBRANCH   2  16
BRANCH   5  31
ATOM     31  C   UNL     1       7.041  -3.532  -4.025  0.00  0.00    +0.152 C 
BRANCH  31  32
ATOM     32  C   UNL     1       7.253  -3.322  -5.503  0.00  0.00    -0.030 A 
ATOM     33  C   UNL     1       7.266  -4.406  -6.360  0.00  0.00    +0.005 A 
ATOM     34  C   UNL     1       7.460  -4.213  -7.715  0.00  0.00    +0.000 A 
ATOM     35  C   UNL     1       7.641  -2.937  -8.213  0.00  0.00    +0.000 A 
ATOM     36  C   UNL     1       7.628  -1.852  -7.355  0.00  0.00    +0.000 A 
ATOM     37  C   UNL     1       7.429  -2.044  -6.001  0.00  0.00    +0.005 A 
ENDBRANCH  31  32
ENDBRANCH   5  31
TORSDOF 7
