REMARK  Name = ZINC31804242
REMARK  7 active torsions:
REMARK  status: ('A' for Active; 'I' for Inactive)
REMARK    1  A    between atoms: C_1  and  C_2
REMARK    2  A    between atoms: C_5  and  N_8
REMARK    3  A    between atoms: C_9  and  C_11
REMARK    4  A    between atoms: C_14  and  N_20
REMARK    5  A    between atoms: C_15  and  N_17
REMARK    6  A    between atoms: N_20  and  C_21
REMARK    7  A    between atoms: N_20  and  C_22
REMARK                            x       y       z     vdW  Elec       q    Type
REMARK                         _______ _______ _______ _____ _____    ______ ____
ROOT
ATOM      1  C   UNL     1      -0.058   0.513  -4.806  0.00  0.00    +0.039 A 
ATOM      2  C   UNL     1       1.303   0.198  -4.759  0.00  0.00    +0.015 A 
ATOM      3  C   UNL     1       1.945  -0.245  -5.893  0.00  0.00    +0.026 A 
ATOM      4  C   UNL     1       1.239  -0.381  -7.086  0.00  0.00    +0.060 A 
ATOM      5  C   UNL     1      -0.117  -0.069  -7.135  0.00  0.00    +0.148 A 
ATOM      6  C   UNL     1      -0.765   0.370  -6.003  0.00  0.00    +0.047 A 
ENDROOT
BRANCH   1   8
ATOM      7  N   UNL     1      -0.067   1.120  -2.437  0.00  0.00    -0.308 N 
ATOM      8  C   UNL     1      -0.749   0.989  -3.592  0.00  0.00    +0.244 C 
ATOM      9  O   UNL     1      -1.933   1.262  -3.634  0.00  0.00    -0.270 OA
ATOM     10  H   UNL     1       1.004   0.873  -2.399  0.00  0.00    +0.149 HD
BRANCH   7  15
ATOM     11  C   UNL     1      -1.466   3.603   2.534  0.00  0.00    +0.007 C 
ATOM     12  C   UNL     1      -0.750   3.109   1.275  0.00  0.00    -0.014 C 
ATOM     13  C   UNL     1      -0.729   1.579   1.267  0.00  0.00    +0.005 C 
ATOM     14  C   UNL     1      -0.013   1.086   0.008  0.00  0.00    +0.022 C 
ATOM     15  C   UNL     1      -0.753   1.593  -1.232  0.00  0.00    +0.073 C 
ATOM     16  C   UNL     1      -0.773   3.123  -1.223  0.00  0.00    +0.022 C 
ATOM     17  C   UNL     1      -1.490   3.616   0.036  0.00  0.00    +0.005 C 
ENDBRANCH   7  15
ENDBRANCH   1   8
BRANCH   5  18
ATOM     18  N   UNL     1      -0.863  -0.215  -8.405  0.00  0.00    +0.058 N 
ATOM     19  O   UNL     1      -2.049   0.058  -8.449  0.00  0.00    -0.126 OA
ATOM     20  O   UNL     1      -0.291  -0.608  -9.406  0.00  0.00    -0.126 OA
ENDBRANCH   5  18
BRANCH   4  21
ATOM     21  N   UNL     1       1.890  -0.830  -8.230  0.00  0.00    -0.334 N 
ATOM     22  C   UNL     1       2.991   0.071  -8.597  0.00  0.00    +0.129 C 
ATOM     23  C   UNL     1       2.372  -2.207  -8.055  0.00  0.00    +0.129 C 
ENDBRANCH   4  21
TORSDOF 4
