REMARK  Name = ZINC21663934
REMARK  2 active torsions:
REMARK  status: ('A' for Active; 'I' for Inactive)
REMARK    1  A    between atoms: N_4  and  C_7
REMARK    2  A    between atoms: C_13  and  C_15
REMARK                            x       y       z     vdW  Elec       q    Type
REMARK                         _______ _______ _______ _____ _____    ______ ____
ROOT
ATOM      1  C   UNL     1      -0.920   2.707  -3.306  0.00  0.00    +0.092 C 
ATOM      2  C   UNL     1      -0.032   3.410  -4.337  0.00  0.00    +0.016 C 
ATOM      3  C   UNL     1      -0.884   3.807  -5.546  0.00  0.00    +0.020 C 
ATOM      4  C   UNL     1      -1.546   2.557  -6.130  0.00  0.00    +0.107 C 
ATOM      5  N   UNL     1      -2.385   1.922  -5.106  0.00  0.00    -0.307 N 
ATOM      6  C   UNL     1      -1.582   1.489  -3.955  0.00  0.00    +0.119 C 
ATOM      7  C   UNL     1      -3.100   0.863  -5.637  0.00  0.00    +0.184 A 
ATOM      8  N   UNL     1      -3.119   0.419  -6.865  0.00  0.00    -0.139 NA
ATOM      9  N   UNL     1      -3.906  -0.670  -7.231  0.00  0.00    -0.169 N 
ATOM     10  C   UNL     1      -4.019  -1.228  -8.470  0.00  0.00    +0.279 A 
ATOM     11  O   UNL     1      -3.382  -0.766  -9.404  0.00  0.00    -0.265 OA
ATOM     12  C   UNL     1      -4.862  -2.328  -8.676  0.00  0.00    +0.040 A 
ATOM     13  C   UNL     1      -5.567  -2.842  -7.618  0.00  0.00    +0.053 A 
ATOM     14  N   UNL     1      -5.435  -2.270  -6.419  0.00  0.00    -0.226 NA
ATOM     15  C   UNL     1      -4.649  -1.242  -6.237  0.00  0.00    +0.201 A 
ATOM     16  S   UNL     1      -4.229  -0.253  -4.819  0.00  0.00    -0.013 S 
ATOM     17  C   UNL     1      -6.481  -4.030  -7.745  0.00  0.00    +0.056 C 
ATOM     18  C   UNL     1      -6.843  -4.272  -9.210  0.00  0.00    +0.006 C 
ATOM     19  C   UNL     1      -5.548  -4.307 -10.029  0.00  0.00    +0.005 C 
ATOM     20  C   UNL     1      -4.961  -2.897 -10.067  0.00  0.00    +0.042 C 
ENDROOT
BRANCH   1  27
ATOM     21  C   UNL     1       1.144   4.975   0.692  0.00  0.00    -0.066 C 
ATOM     22  C   UNL     1       1.812   3.605   0.525  0.00  0.00    +0.004 C 
ATOM     23  C   UNL     1       0.747   2.570   0.145  0.00  0.00    +0.106 C 
ATOM     24  N   UNL     1       0.029   3.042  -1.046  0.00  0.00    -0.301 N 
ATOM     25  C   UNL     1      -0.573   4.383  -1.024  0.00  0.00    +0.106 C 
ATOM     26  C   UNL     1       0.505   5.400  -0.632  0.00  0.00    +0.004 C 
ATOM     27  C   UNL     1      -0.078   2.260  -2.139  0.00  0.00    +0.220 C 
ATOM     28  O   UNL     1       0.504   1.197  -2.183  0.00  0.00    -0.275 OA
BRANCH  21  32
ATOM     29  C   UNL     1       4.774   6.927   1.829  0.00  0.00    -0.004 C 
ATOM     30  C   UNL     1       3.644   6.781   2.852  0.00  0.00    -0.019 C 
ATOM     31  C   UNL     1       2.707   5.655   2.411  0.00  0.00    -0.078 C 
ATOM     32  N   UNL     1       2.155   5.966   1.087  0.00  0.00    +0.382 N 
ATOM     33  C   UNL     1       3.217   6.064   0.078  0.00  0.00    -0.078 C 
ATOM     34  C   UNL     1       4.171   7.202   0.449  0.00  0.00    -0.019 C 
ATOM     35  H   UNL     1       1.661   6.947   1.151  0.00  0.00    -0.081 HD
ENDBRANCH  21  32
ENDBRANCH   1  27
TORSDOF 2
