REMARK  Name = ZINC13986268
REMARK  4 active torsions:
REMARK  status: ('A' for Active; 'I' for Inactive)
REMARK    1  A    between atoms: C_4  and  C_7
REMARK    2  A    between atoms: C_8  and  C_9
REMARK    3  A    between atoms: C_14  and  C_17
REMARK    4  A    between atoms: N_19  and  N_20
REMARK                            x       y       z     vdW  Elec       q    Type
REMARK                         _______ _______ _______ _____ _____    ______ ____
ROOT
ATOM      1  C   UNL     1      -4.168   3.896   2.252  0.00  0.00    +0.233 C 
ATOM      2  O   UNL     1      -4.600   3.172   3.125  0.00  0.00    -0.274 OA
ATOM      3  N   UNL     1      -4.405   5.222   2.298  0.00  0.00    -0.223 N 
ATOM      4  H   UNL     1      -4.060   5.800   1.600  0.00  0.00    +0.174 HD
ENDROOT
BRANCH   3   5
ATOM      5  N   UNL     1      -5.151   5.764   3.353  0.00  0.00    -0.137 N 
ATOM      6  C   UNL     1      -6.428   6.184   3.241  0.00  0.00    +0.263 C 
ATOM      7  O   UNL     1      -7.123   6.164   2.248  0.00  0.00    -0.271 OA
ATOM      8  C   UNL     1      -6.811   6.681   4.616  0.00  0.00    +0.114 C 
ATOM      9  C   UNL     1      -7.172   8.161   4.561  0.00  0.00    +0.035 C 
ATOM     10  C   UNL     1      -7.520   8.655   5.967  0.00  0.00    +0.003 C 
ATOM     11  C   UNL     1      -8.697   7.846   6.514  0.00  0.00    +0.000 C 
ATOM     12  C   UNL     1      -8.314   6.366   6.584  0.00  0.00    +0.003 C 
ATOM     13  C   UNL     1      -7.969   5.863   5.180  0.00  0.00    +0.035 C 
ATOM     14  N   UNL     1      -5.599   6.477   5.420  0.00  0.00    -0.284 N 
ATOM     15  C   UNL     1      -4.682   5.936   4.595  0.00  0.00    +0.326 C 
ATOM     16  O   UNL     1      -3.555   5.638   4.939  0.00  0.00    -0.251 OA
ATOM     17  H   UNL     1      -5.482   6.689   6.359  0.00  0.00    +0.151 HD
ENDBRANCH   3   5
BRANCH   1  23
ATOM     18  C   UNL     1      -0.014   1.213   0.009  0.00  0.00    +0.239 C 
ATOM     19  O   UNL     1      -0.032  -0.004  -0.006  0.00  0.00    -0.271 OA
ATOM     20  N   UNL     1      -1.172   1.903   0.022  0.00  0.00    -0.298 N 
ATOM     21  C   UNL     1      -1.170   3.370  -0.066  0.00  0.00    +0.109 C 
ATOM     22  C   UNL     1      -1.971   3.939   1.104  0.00  0.00    +0.032 C 
ATOM     23  C   UNL     1      -3.366   3.312   1.118  0.00  0.00    +0.079 C 
ATOM     24  C   UNL     1      -3.245   1.798   1.305  0.00  0.00    +0.032 C 
ATOM     25  C   UNL     1      -2.459   1.203   0.132  0.00  0.00    +0.109 C 
BRANCH  18  27
ATOM     26  C   UNL     1       2.420   1.240   0.094  0.00  0.00    +0.013 C 
ATOM     27  C   UNL     1       1.264   1.927   0.005  0.00  0.00    +0.068 C 
BRANCH  26  31
ATOM     28  C   UNL     1       6.123   3.309   0.082  0.00  0.00    +0.000 A 
ATOM     29  C   UNL     1       6.107   1.928   0.177  0.00  0.00    +0.001 A 
ATOM     30  C   UNL     1       4.907   1.248   0.182  0.00  0.00    +0.008 A 
ATOM     31  C   UNL     1       3.705   1.958   0.090  0.00  0.00    -0.025 A 
ATOM     32  C   UNL     1       3.731   3.352  -0.011  0.00  0.00    +0.008 A 
ATOM     33  C   UNL     1       4.938   4.018  -0.009  0.00  0.00    +0.001 A 
ENDBRANCH  26  31
ENDBRANCH  18  27
ENDBRANCH   1  23
TORSDOF 4
