REMARK  Name = ZINC01080225
REMARK  10 active torsions:
REMARK  status: ('A' for Active; 'I' for Inactive)
REMARK    1  A    between atoms: C_1  and  C_2
REMARK    2  A    between atoms: C_6  and  C_34
REMARK    3  A    between atoms: C_7  and  N_8
REMARK    4  A    between atoms: C_9  and  C_11
REMARK    5  A    between atoms: C_11  and  S_12
REMARK    6  A    between atoms: S_12  and  C_13
REMARK    7  A    between atoms: N_17  and  C_18
REMARK    8  A    between atoms: N_21  and  C_26
REMARK    9  A    between atoms: N_24  and  C_25
REMARK   10  A    between atoms: C_26  and  C_27
REMARK                            x       y       z     vdW  Elec       q    Type
REMARK                         _______ _______ _______ _____ _____    ______ ____
ROOT
ATOM      1  C   UNL     1       0.107  -0.525  -2.367  0.00  0.00    +0.172 A 
ATOM      2  N   UNL     1       1.420  -0.511  -2.243  0.00  0.00    -0.204 NA
ATOM      3  C   UNL     1       1.988  -0.944  -3.369  0.00  0.00    +0.169 A 
ATOM      4  C   UNL     1       0.968  -1.252  -4.263  0.00  0.00    +0.152 A 
ATOM      5  N   UNL     1      -0.225  -0.983  -3.604  0.00  0.00    -0.316 N 
ATOM      6  C   UNL     1      -1.577  -1.157  -4.138  0.00  0.00    +0.151 C 
ATOM      7  C   UNL     1       1.298  -1.735  -5.542  0.00  0.00    +0.283 A 
ATOM      8  O   UNL     1       0.421  -2.010  -6.341  0.00  0.00    -0.265 OA
ATOM      9  N   UNL     1       2.596  -1.891  -5.873  0.00  0.00    -0.255 N 
ATOM     10  C   UNL     1       3.575  -1.591  -5.002  0.00  0.00    +0.334 A 
ATOM     11  O   UNL     1       4.734  -1.743  -5.336  0.00  0.00    -0.246 OA
ATOM     12  N   UNL     1       3.303  -1.125  -3.768  0.00  0.00    -0.280 N 
ATOM     13  C   UNL     1       4.397  -0.809  -2.847  0.00  0.00    +0.155 C 
ENDROOT
BRANCH   1  14
ATOM     14  S   UNL     1      -1.039  -0.035  -1.121  0.00  0.00    -0.078 S 
BRANCH  14  15
ATOM     15  C   UNL     1       0.110   0.428   0.198  0.00  0.00    +0.173 C 
BRANCH  15  17
ATOM     16  N   UNL     1      -0.017   1.292   2.513  0.00  0.00    -0.284 N 
ATOM     17  C   UNL     1      -0.668   0.894   1.402  0.00  0.00    +0.228 C 
ATOM     18  O   UNL     1      -1.880   0.912   1.370  0.00  0.00    -0.275 OA
ATOM     19  H   UNL     1       0.951   1.356   2.511  0.00  0.00    +0.155 HD
BRANCH  16  26
ATOM     20  C   UNL     1      -2.020   3.305   2.333  0.00  0.00    +0.045 C 
ATOM     21  C   UNL     1      -1.724   2.589   3.626  0.00  0.00    -0.029 A 
ATOM     22  C   UNL     1      -2.436   2.899   4.767  0.00  0.00    +0.005 A 
ATOM     23  C   UNL     1      -2.161   2.246   5.955  0.00  0.00    +0.001 A 
ATOM     24  C   UNL     1      -1.176   1.278   6.002  0.00  0.00    +0.005 A 
ATOM     25  C   UNL     1      -0.463   0.959   4.863  0.00  0.00    -0.029 A 
ATOM     26  C   UNL     1      -0.737   1.613   3.669  0.00  0.00    +0.039 A 
ATOM     27  C   UNL     1       0.611  -0.097   4.916  0.00  0.00    +0.045 C 
ENDBRANCH  16  26
ENDBRANCH  15  17
ENDBRANCH  14  15
ENDBRANCH   1  14
BRANCH   9  28
ATOM     28  C   UNL     1       2.945  -2.394  -7.204  0.00  0.00    +0.166 C 
BRANCH  28  29
ATOM     29  C   UNL     1       3.126  -3.889  -7.144  0.00  0.00    -0.009 A 
ATOM     30  C   UNL     1       2.838  -4.574  -5.979  0.00  0.00    +0.007 A 
ATOM     31  C   UNL     1       3.004  -5.945  -5.923  0.00  0.00    +0.000 A 
ATOM     32  C   UNL     1       3.456  -6.633  -7.034  0.00  0.00    +0.001 A 
ATOM     33  C   UNL     1       3.744  -5.949  -8.200  0.00  0.00    +0.020 A 
ATOM     34  C   UNL     1       3.574  -4.577  -8.258  0.00  0.00    +0.046 A 
ATOM     35 CL   UNL     1       3.928  -3.718  -9.725  0.00  0.00    -0.083 Cl
ENDBRANCH  28  29
ENDBRANCH   9  28
TORSDOF 6
