REMARK  Name = ZINC02707337
REMARK  9 active torsions:
REMARK  status: ('A' for Active; 'I' for Inactive)
REMARK    1  A    between atoms: C_1  and  C_2
REMARK    2  A    between atoms: C_2  and  O_3
REMARK    3  A    between atoms: O_3  and  C_4
REMARK    4  A    between atoms: C_7  and  C_12
REMARK    5  A    between atoms: C_9  and  O_10
REMARK    6  A    between atoms: O_10  and  C_11
REMARK    7  A    between atoms: C_29  and  C_31
REMARK    8  A    between atoms: C_36  and  O_37
REMARK    9  A    between atoms: O_37  and  C_38
REMARK                            x       y       z     vdW  Elec       q    Type
REMARK                         _______ _______ _______ _____ _____    ______ ____
ROOT
ATOM      1  C   UNL     1      -0.048   5.727   2.596  0.00  0.00    +0.234 C 
ATOM      2  C   UNL     1       0.836   5.938   1.384  0.00  0.00    +0.025 C 
ATOM      3  C   UNL     1       2.052   6.454   1.550  0.00  0.00    +0.050 C 
ATOM      4  C   UNL     1       2.509   6.759   2.927  0.00  0.00    +0.038 A 
ATOM      5  C   UNL     1       3.605   7.580   3.163  0.00  0.00    +0.013 A 
ATOM      6  C   UNL     1       3.997   7.837   4.463  0.00  0.00    +0.001 A 
ATOM      7  C   UNL     1       3.304   7.280   5.524  0.00  0.00    +0.004 A 
ATOM      8  C   UNL     1       2.212   6.461   5.298  0.00  0.00    +0.046 A 
ATOM      9  C   UNL     1       1.809   6.197   4.002  0.00  0.00    +0.131 A 
ATOM     10  O   UNL     1       0.742   5.400   3.739  0.00  0.00    -0.479 OA
ATOM     11  N   UNL     1       2.909   6.704   0.472  0.00  0.00    -0.283 N 
ATOM     12  C   UNL     1       2.360   6.660  -0.800  0.00  0.00    +0.219 A 
ATOM     13  N   UNL     1       2.837   7.069  -1.943  0.00  0.00    -0.201 NA
ATOM     14  C   UNL     1       1.945   6.830  -2.910  0.00  0.00    +0.247 A 
ATOM     15  N   UNL     1       0.887   6.261  -2.389  0.00  0.00    -0.156 NA
ATOM     16  N   UNL     1       1.129   6.135  -1.022  0.00  0.00    -0.221 N 
ATOM     17  C   UNL     1       0.291   5.566   0.027  0.00  0.00    +0.176 C 
ATOM     18  H   UNL     1       3.849   6.901   0.610  0.00  0.00    +0.155 HD
ENDROOT
BRANCH   1  22
ATOM     19  C   UNL     1      -2.244   9.311   3.385  0.00  0.00    +0.162 A 
ATOM     20  C   UNL     1      -0.904   9.226   3.728  0.00  0.00    +0.050 A 
ATOM     21  C   UNL     1      -0.198   8.064   3.477  0.00  0.00    +0.011 A 
ATOM     22  C   UNL     1      -0.823   6.989   2.873  0.00  0.00    +0.001 A 
ATOM     23  C   UNL     1      -2.160   7.067   2.528  0.00  0.00    +0.057 A 
ATOM     24  C   UNL     1      -2.874   8.227   2.782  0.00  0.00    +0.162 A 
BRANCH  24  25
ATOM     25  O   UNL     1      -4.189   8.305   2.442  0.00  0.00    -0.491 OA
ATOM     26  C   UNL     1      -4.770   7.154   1.827  0.00  0.00    +0.277 C 
ENDBRANCH  24  25
BRANCH  19  27
ATOM     27  O   UNL     1      -2.941  10.451   3.636  0.00  0.00    -0.489 OA
BRANCH  27  29
ATOM     28  C   UNL     1      -3.171  12.712   4.459  0.00  0.00    +0.048 C 
ATOM     29  C   UNL     1      -2.229  11.524   4.257  0.00  0.00    +0.226 C 
ENDBRANCH  27  29
ENDBRANCH  19  27
ENDBRANCH   1  22
BRANCH  17  30
ATOM     30  C   UNL     1       0.271   4.065  -0.108  0.00  0.00    +0.023 A 
ATOM     31  C   UNL     1       1.448   3.347  -0.016  0.00  0.00    +0.009 A 
ATOM     32  C   UNL     1       1.430   1.970  -0.141  0.00  0.00    +0.001 A 
ATOM     33  C   UNL     1       0.235   1.309  -0.359  0.00  0.00    +0.004 A 
ATOM     34  C   UNL     1      -0.943   2.022  -0.456  0.00  0.00    +0.046 A 
ATOM     35  C   UNL     1      -0.929   3.404  -0.326  0.00  0.00    +0.126 A 
BRANCH  35  36
ATOM     36  O   UNL     1      -2.087   4.108  -0.416  0.00  0.00    -0.495 OA
ATOM     37  C   UNL     1      -3.285   3.361  -0.641  0.00  0.00    +0.277 C 
ENDBRANCH  35  36
ENDBRANCH  17  30
TORSDOF 6
