REMARK  Name = ZINC14013066
REMARK  12 active torsions:
REMARK  status: ('A' for Active; 'I' for Inactive)
REMARK    1  A    between atoms: C_1  and  C_2
REMARK    2  A    between atoms: C_2  and  N_62
REMARK    3  A    between atoms: C_3  and  C_4
REMARK    4  A    between atoms: C_3  and  N_62
REMARK    5  A    between atoms: C_5  and  C_6
REMARK    6  A    between atoms: C_5  and  N_62
REMARK    7  A    between atoms: C_6  and  N_7
REMARK    8  A    between atoms: C_8  and  C_10
REMARK    9  A    between atoms: C_10  and  C_11
REMARK   10  A    between atoms: N_22  and  C_25
REMARK   11  A    between atoms: C_28  and  C_32
REMARK   12  A    between atoms: C_29  and  C_31
REMARK                            x       y       z     vdW  Elec       q    Type
REMARK                         _______ _______ _______ _____ _____    ______ ____
ROOT
ATOM      1  C   UNL     1       1.155  -1.980  -0.098  0.00  0.00    +0.112 C 
ATOM      2  C   UNL     1       2.647  -2.335  -0.163  0.00  0.00    +0.103 C 
ATOM      3  S   UNL     1       3.406  -0.669  -0.141  0.00  0.00    -0.085 S 
ATOM      4  C   UNL     1       1.928   0.321  -0.057  0.00  0.00    +0.174 A 
ATOM      5  N   UNL     1       0.874  -0.546  -0.044  0.00  0.00    -0.283 N 
ATOM      6  C   UNL     1      -0.386  -0.005   0.018  0.00  0.00    +0.266 A 
ATOM      7  O   UNL     1      -1.363  -0.733   0.033  0.00  0.00    -0.267 OA
ATOM      8  C   UNL     1      -0.547   1.396   0.066  0.00  0.00    +0.103 A 
ATOM      9  C   UNL     1      -1.665   2.256   0.127  0.00  0.00    +0.150 A 
ATOM     10  N   UNL     1      -1.238   3.488   0.153  0.00  0.00    -0.172 NA
ATOM     11  N   UNL     1       0.162   3.500   0.102  0.00  0.00    -0.214 N 
ATOM     12  C   UNL     1       0.597   2.211   0.048  0.00  0.00    +0.171 A 
ATOM     13  N   UNL     1       1.798   1.628  -0.014  0.00  0.00    -0.203 NA
ENDROOT
BRANCH  11  14
ATOM     14  C   UNL     1       0.974   4.641   0.107  0.00  0.00    +0.068 A 
ATOM     15  C   UNL     1       2.201   4.619   0.757  0.00  0.00    +0.028 A 
ATOM     16  C   UNL     1       3.002   5.744   0.755  0.00  0.00    +0.006 A 
ATOM     17  C   UNL     1       2.578   6.896   0.117  0.00  0.00    -0.047 A 
ATOM     18  C   UNL     1       1.354   6.923  -0.526  0.00  0.00    -0.046 A 
ATOM     19  C   UNL     1       0.551   5.799  -0.533  0.00  0.00    +0.031 A 
ATOM     20  C   UNL     1       0.896   8.179  -1.221  0.00  0.00    +0.044 C 
ATOM     21  C   UNL     1       3.452   8.124   0.122  0.00  0.00    +0.044 C 
ENDBRANCH  11  14
BRANCH   1  22
ATOM     22  C   UNL     1       0.463  -2.565  -1.331  0.00  0.00    +0.121 C 
BRANCH  22  24
ATOM     23  N   UNL     1       0.180  -4.787  -2.380  0.00  0.00    -0.317 N 
ATOM     24  C   UNL     1       0.610  -4.064  -1.326  0.00  0.00    +0.215 C 
ATOM     25  O   UNL     1       1.114  -4.621  -0.374  0.00  0.00    -0.276 OA
ATOM     26  H   UNL     1      -0.223  -4.342  -3.141  0.00  0.00    +0.149 HD
BRANCH  23  27
ATOM     27  C   UNL     1       0.323  -6.245  -2.375  0.00  0.00    +0.085 C 
BRANCH  27  28
ATOM     28  C   UNL     1      -0.239  -6.817  -3.678  0.00  0.00    -0.060 C 
BRANCH  28  29
ATOM     29  N   UNL     1      -0.068  -8.285  -3.668  0.00  0.00    +0.380 N 
ATOM     30  H   UNL     1       0.911  -8.505  -3.450  0.00  0.00    -0.082 HD
BRANCH  29  32
ATOM     31  C   UNL     1      -2.410  -8.633  -2.956  0.00  0.00    -0.017 C 
ATOM     32  C   UNL     1      -0.936  -8.887  -2.634  0.00  0.00    -0.082 C 
ENDBRANCH  29  32
BRANCH  29  33
ATOM     33  C   UNL     1      -0.402  -8.842  -4.995  0.00  0.00    -0.082 C 
ATOM     34  C   UNL     1       0.110 -10.282  -5.067  0.00  0.00    -0.017 C 
ENDBRANCH  29  33
ENDBRANCH  28  29
ENDBRANCH  27  28
ENDBRANCH  23  27
ENDBRANCH  22  24
ENDBRANCH   1  22
TORSDOF 8
