REMARK  Name = ZINC39914971
REMARK  17 active torsions:
REMARK  status: ('A' for Active; 'I' for Inactive)
REMARK    1  A    between atoms: C_1  and  C_2
REMARK    2  A    between atoms: C_2  and  O_3
REMARK    3  A    between atoms: O_3  and  C_4
REMARK    4  A    between atoms: C_7  and  C_13
REMARK    5  A    between atoms: C_9  and  O_10
REMARK    6  A    between atoms: O_10  and  C_11
REMARK    7  A    between atoms: C_11  and  C_12
REMARK    8  A    between atoms: C_16  and  C_31
REMARK    9  A    between atoms: N_23  and  C_24
REMARK   10  A    between atoms: C_24  and  C_25
REMARK   11  A    between atoms: C_25  and  C_26
REMARK   12  A    between atoms: C_26  and  O_27
REMARK   13  A    between atoms: O_27  and  C_28
REMARK   14  A    between atoms: C_28  and  C_29
REMARK   15  A    between atoms: C_28  and  C_30
REMARK   16  A    between atoms: C_34  and  C_38
REMARK   17  A    between atoms: C_36  and  O_37
REMARK                            x       y       z     vdW  Elec       q    Type
REMARK                         _______ _______ _______ _____ _____    ______ ____
ROOT
ATOM      1  C   UNL     1       1.813  -5.911  -1.291  0.00  0.00    +0.141 C 
ATOM      2  C   UNL     1       2.996  -6.216  -0.414  0.00  0.00    +0.035 A 
ATOM      3  C   UNL     1       4.352  -5.999  -0.145  0.00  0.00    +0.102 A 
ATOM      4  N   UNL     1       4.663  -6.718   0.916  0.00  0.00    -0.173 NA
ATOM      5  N   UNL     1       3.639  -7.366   1.343  0.00  0.00    -0.272 N 
ATOM      6  H   UNL     1       3.635  -7.958   2.111  0.00  0.00    +0.189 HD
ATOM      7  C   UNL     1       2.556  -7.098   0.554  0.00  0.00    +0.126 A 
ATOM      8  C   UNL     1       1.132  -7.368   0.327  0.00  0.00    +0.265 C 
ATOM      9  O   UNL     1       0.448  -8.106   1.010  0.00  0.00    -0.268 OA
ATOM     10  N   UNL     1       0.690  -6.683  -0.745  0.00  0.00    -0.285 N 
ENDROOT
BRANCH   3  11
ATOM     11  C   UNL     1       5.271  -5.123  -0.913  0.00  0.00    +0.045 A 
ATOM     12  C   UNL     1       4.840  -4.521  -2.092  0.00  0.00    +0.034 A 
ATOM     13  C   UNL     1       5.699  -3.706  -2.804  0.00  0.00    +0.045 A 
ATOM     14  C   UNL     1       6.988  -3.486  -2.348  0.00  0.00    -0.029 A 
ATOM     15  C   UNL     1       7.425  -4.080  -1.179  0.00  0.00    +0.050 A 
ATOM     16  C   UNL     1       6.571  -4.894  -0.453  0.00  0.00    +0.126 A 
ATOM     17  C   UNL     1       7.919  -2.596  -3.130  0.00  0.00    +0.045 C 
ATOM     18 CL   UNL     1       5.162  -2.956  -4.274  0.00  0.00    -0.083 Cl
BRANCH  16  19
ATOM     19  O   UNL     1       6.997  -5.474   0.700  0.00  0.00    -0.506 OA
ATOM     20  H   UNL     1       7.406  -6.342   0.576  0.00  0.00    +0.292 HD
ENDBRANCH  16  19
ENDBRANCH   3  11
BRANCH   1  24
ATOM     21  C   UNL     1       0.926  -1.729  -1.170  0.00  0.00    +0.162 A 
ATOM     22  C   UNL     1       1.433  -2.299  -2.327  0.00  0.00    +0.050 A 
ATOM     23  C   UNL     1       1.719  -3.651  -2.363  0.00  0.00    +0.009 A 
ATOM     24  C   UNL     1       1.500  -4.437  -1.247  0.00  0.00    -0.019 A 
ATOM     25  C   UNL     1       0.995  -3.874  -0.090  0.00  0.00    +0.055 A 
ATOM     26  C   UNL     1       0.712  -2.519  -0.045  0.00  0.00    +0.162 A 
BRANCH  21  27
ATOM     27  O   UNL     1       0.645  -0.399  -1.133  0.00  0.00    -0.489 OA
BRANCH  27  29
ATOM     28  C   UNL     1       0.517   1.815  -2.093  0.00  0.00    +0.048 C 
ATOM     29  C   UNL     1       0.891   0.350  -2.325  0.00  0.00    +0.226 C 
ENDBRANCH  27  29
ENDBRANCH  21  27
BRANCH  26  30
ATOM     30  O   UNL     1       0.220  -1.962   1.094  0.00  0.00    -0.489 OA
BRANCH  30  31
ATOM     31  C   UNL     1       0.069  -2.824   2.224  0.00  0.00    +0.226 C 
ATOM     32  C   UNL     1      -0.435  -2.013   3.420  0.00  0.00    +0.048 C 
ENDBRANCH  30  31
ENDBRANCH  26  30
ENDBRANCH   1  24
BRANCH  10  33
ATOM     33  C   UNL     1      -0.676  -6.703  -1.274  0.00  0.00    +0.111 C 
BRANCH  33  34
ATOM     34  C   UNL     1      -0.804  -7.820  -2.312  0.00  0.00    +0.047 C 
BRANCH  34  35
ATOM     35  C   UNL     1      -2.231  -7.841  -2.865  0.00  0.00    +0.161 C 
BRANCH  35  36
ATOM     36  O   UNL     1      -2.351  -8.884  -3.834  0.00  0.00    -0.377 OA
BRANCH  36  37
ATOM     37  C   UNL     1      -3.652  -8.990  -4.416  0.00  0.00    +0.112 C 
ATOM     38  C   UNL     1      -3.530  -9.524  -5.845  0.00  0.00    +0.037 C 
ATOM     39  C   UNL     1      -4.505  -9.949  -3.584  0.00  0.00    +0.037 C 
ENDBRANCH  36  37
ENDBRANCH  35  36
ENDBRANCH  34  35
ENDBRANCH  33  34
ENDBRANCH  10  33
TORSDOF 12
