REMARK  Name = ZINC01242616
REMARK  4 active torsions:
REMARK  status: ('A' for Active; 'I' for Inactive)
REMARK    1  A    between atoms: C_5  and  O_25
REMARK    2  A    between atoms: C_6  and  C_7
REMARK    3  A    between atoms: N_8  and  N_9
REMARK    4  A    between atoms: C_10  and  C_16
REMARK                            x       y       z     vdW  Elec       q    Type
REMARK                         _______ _______ _______ _____ _____    ______ ____
ROOT
ATOM      1  N   UNL     1      -4.073   3.182   2.992  0.00  0.00    -0.186 N 
ATOM      2  C   UNL     1      -3.180   3.233   1.937  0.00  0.00    +0.201 A 
ATOM      3  N   UNL     1      -3.844   3.074   0.824  0.00  0.00    -0.150 NA
ATOM      4  N   UNL     1      -5.197   2.906   1.148  0.00  0.00    -0.252 N 
ATOM      5  H   UNL     1      -5.923   2.765   0.520  0.00  0.00    +0.191 HD
ATOM      6  C   UNL     1      -5.308   2.981   2.490  0.00  0.00    +0.197 A 
ATOM      7  S   UNL     1      -6.755   2.844   3.393  0.00  0.00    -0.010 S 
ENDROOT
BRANCH   2   8
ATOM      8  C   UNL     1      -1.724   3.439   2.050  0.00  0.00    +0.108 A 
ATOM      9  C   UNL     1      -0.821   3.492   1.009  0.00  0.00    +0.004 A 
ATOM     10  C   UNL     1       0.447   3.701   1.556  0.00  0.00    +0.067 A 
ATOM     11  N   UNL     1       0.334   3.775   2.861  0.00  0.00    -0.178 NA
ATOM     12  N   UNL     1      -1.013   3.615   3.208  0.00  0.00    -0.273 N 
ATOM     13  H   UNL     1      -1.389   3.628   4.134  0.00  0.00    +0.189 HD
ATOM     14  C   UNL     1       1.471   3.764   0.442  0.00  0.00    +0.058 C 
ATOM     15  C   UNL     1       0.657   4.013  -0.845  0.00  0.00    +0.011 C 
ATOM     16  C   UNL     1      -0.718   3.404  -0.498  0.00  0.00    +0.039 C 
ENDBRANCH   2   8
BRANCH   1  18
ATOM     17  C   UNL     1      -3.454   4.486   4.832  0.00  0.00    +0.145 C 
ATOM     18  N   UNL     1      -3.751   3.318   4.348  0.00  0.00    -0.170 NA
BRANCH  17  24
ATOM     19  C   UNL     1      -4.022   5.692   2.731  0.00  0.00    +0.028 A 
ATOM     20  C   UNL     1      -3.879   6.777   1.890  0.00  0.00    +0.020 A 
ATOM     21  C   UNL     1      -3.028   7.815   2.228  0.00  0.00    +0.034 A 
ATOM     22  C   UNL     1      -2.313   7.776   3.412  0.00  0.00    +0.061 A 
ATOM     23  C   UNL     1      -2.449   6.697   4.270  0.00  0.00    +0.139 A 
ATOM     24  C   UNL     1      -3.305   5.641   3.929  0.00  0.00    +0.038 A 
ATOM     25 BR   UNL     1      -1.154   9.201   3.862  0.00  0.00    -0.046 Br
ATOM     26 BR   UNL     1      -4.850   6.845   0.268  0.00  0.00    -0.050 Br
BRANCH  23  27
ATOM     27  O   UNL     1      -1.751   6.659   5.435  0.00  0.00    -0.505 OA
ATOM     28  H   UNL     1      -0.915   6.178   5.377  0.00  0.00    +0.292 HD
ENDBRANCH  23  27
ENDBRANCH  17  24
ENDBRANCH   1  18
TORSDOF 4
