REMARK  Name = ZINC63127445
REMARK  4 active torsions:
REMARK  status: ('A' for Active; 'I' for Inactive)
REMARK    1  A    between atoms: C_7  and  C_10
REMARK    2  A    between atoms: C_16  and  C_18
REMARK    3  A    between atoms: C_21  and  N_24
REMARK    4  A    between atoms: C_25  and  C_27
REMARK                            x       y       z     vdW  Elec       q    Type
REMARK                         _______ _______ _______ _____ _____    ______ ____
ROOT
ATOM      1  C   UNL     1       2.778  -4.035   0.491  0.00  0.00    +0.020 C 
ATOM      2  C   UNL     1       2.122  -4.771   1.662  0.00  0.00    +0.027 C 
ATOM      3  C   UNL     1       0.723  -5.237   1.247  0.00  0.00    +0.108 C 
ATOM      4  N   UNL     1       0.835  -6.035   0.018  0.00  0.00    -0.297 N 
ATOM      5  C   UNL     1       1.528  -5.455  -1.140  0.00  0.00    +0.108 C 
ATOM      6  C   UNL     1       2.918  -4.987  -0.698  0.00  0.00    +0.027 C 
ATOM      7  C   UNL     1       0.311  -7.276  -0.045  0.00  0.00    +0.253 C 
ATOM      8  O   UNL     1      -0.164  -7.786   0.951  0.00  0.00    -0.269 OA
ENDROOT
BRANCH   1  15
ATOM      9  C   UNL     1       4.626   0.158   0.732  0.00  0.00    +0.001 A 
ATOM     10  C   UNL     1       5.955   0.162   1.179  0.00  0.00    +0.002 A 
ATOM     11  C   UNL     1       6.617  -0.968   1.505  0.00  0.00    +0.026 A 
ATOM     12  C   UNL     1       5.975  -2.232   1.405  0.00  0.00    +0.043 A 
ATOM     13  N   UNL     1       6.396  -3.448   1.657  0.00  0.00    -0.380 N 
ATOM     14  C   UNL     1       5.306  -4.389   1.375  0.00  0.00    +0.145 C 
ATOM     15  C   UNL     1       4.141  -3.546   0.907  0.00  0.00    -0.038 C 
ATOM     16  C   UNL     1       4.571  -2.264   0.935  0.00  0.00    -0.001 A 
ATOM     17  C   UNL     1       3.923  -0.990   0.600  0.00  0.00    +0.010 A 
ATOM     18  H   UNL     1       7.281  -3.686   1.976  0.00  0.00    +0.160 HD
ENDBRANCH   1  15
BRANCH   7  19
ATOM     19  C   UNL     1       0.316  -8.014  -1.323  0.00  0.00    +0.068 C 
ATOM     20  C   UNL     1       0.429  -9.333  -1.490  0.00  0.00    -0.004 C 
ATOM     21  C   UNL     1       0.425  -9.902  -2.872  0.00  0.00    +0.062 C 
ATOM     22  C   UNL     1      -0.164  -8.887  -3.886  0.00  0.00    +0.140 C 
ATOM     23  S   UNL     1       0.163  -7.329  -2.962  0.00  0.00    -0.098 S 
BRANCH  22  24
ATOM     24  N   UNL     1      -1.600  -9.098  -4.082  0.00  0.00    -0.303 N 
ATOM     25  C   UNL     1      -2.441  -8.045  -4.092  0.00  0.00    +0.217 C 
ATOM     26  O   UNL     1      -2.009  -6.923  -3.937  0.00  0.00    -0.275 OA
ATOM     27  H   UNL     1      -1.946  -9.996  -4.206  0.00  0.00    +0.150 HD
BRANCH  25  28
ATOM     28  C   UNL     1      -3.919  -8.262  -4.294  0.00  0.00    +0.075 C 
ATOM     29  C   UNL     1      -4.533  -7.764  -5.604  0.00  0.00    +0.013 C 
ATOM     30  C   UNL     1      -4.821  -7.027  -4.294  0.00  0.00    +0.013 C 
ENDBRANCH  25  28
ENDBRANCH  22  24
ENDBRANCH   7  19
TORSDOF 4
