REMARK  Name = ZINC08977886
REMARK  4 active torsions:
REMARK  status: ('A' for Active; 'I' for Inactive)
REMARK    1  A    between atoms: C_6  and  S_7
REMARK    2  A    between atoms: S_7  and  N_10
REMARK    3  A    between atoms: C_14  and  C_16
REMARK    4  A    between atoms: C_22  and  C_24
REMARK                            x       y       z     vdW  Elec       q    Type
REMARK                         _______ _______ _______ _____ _____    ______ ____
ROOT
ATOM      1  C   UNL     1       3.543   0.465  -0.586  0.00  0.00    +0.239 C 
ATOM      2  O   UNL     1       3.893  -0.639  -0.228  0.00  0.00    -0.274 OA
ATOM      3  N   UNL     1       4.452   1.451  -0.719  0.00  0.00    -0.237 N 
ATOM      4  C   UNL     1       5.788   1.202  -0.446  0.00  0.00    +0.314 A 
ATOM      5  N   UNL     1       6.300   0.060  -0.053  0.00  0.00    -0.092 NA
ATOM      6  N   UNL     1       7.570   0.192   0.104  0.00  0.00    -0.106 NA
ATOM      7  C   UNL     1       7.919   1.424  -0.182  0.00  0.00    +0.250 A 
ATOM      8  O   UNL     1       6.798   2.087  -0.542  0.00  0.00    -0.405 OA
ATOM      9  H   UNL     1       4.172   2.334  -1.006  0.00  0.00    +0.159 HD
ENDROOT
BRANCH   7  10
ATOM     10  C   UNL     1       9.286   1.981  -0.128  0.00  0.00    +0.039 A 
ATOM     11  C   UNL     1       9.516   3.316  -0.468  0.00  0.00    +0.013 A 
ATOM     12  C   UNL     1      10.795   3.822  -0.410  0.00  0.00    +0.004 A 
ATOM     13  C   UNL     1      11.862   3.016  -0.029  0.00  0.00    -0.044 A 
ATOM     14  C   UNL     1      11.642   1.698   0.308  0.00  0.00    -0.043 A 
ATOM     15  C   UNL     1      10.357   1.178   0.256  0.00  0.00    +0.017 A 
ATOM     16  C   UNL     1      12.751   0.777   0.747  0.00  0.00    +0.035 C 
ATOM     17  C   UNL     1      14.110   1.342   0.342  0.00  0.00    +0.005 C 
ATOM     18  C   UNL     1      14.195   2.794   0.826  0.00  0.00    +0.005 C 
ATOM     19  C   UNL     1      13.234   3.638  -0.010  0.00  0.00    +0.035 C 
ENDBRANCH   7  10
BRANCH   1  24
ATOM     20  N   UNL     1       1.478  -0.427  -1.551  0.00  0.00    -0.165 NA
ATOM     21  C   UNL     1       0.098  -0.577  -1.066  0.00  0.00    +0.110 C 
ATOM     22  C   UNL     1      -0.145   0.536  -0.025  0.00  0.00    +0.019 C 
ATOM     23  C   UNL     1       1.291   0.903   0.434  0.00  0.00    +0.031 C 
ATOM     24  C   UNL     1       2.090   0.735  -0.883  0.00  0.00    +0.166 C 
BRANCH  20  25
ATOM     25  S   UNL     1       2.222  -1.404  -2.663  0.00  0.00    +0.062 S 
ATOM     26  O   UNL     1       3.617  -1.163  -2.546  0.00  0.00    -0.153 OA
ATOM     27  O   UNL     1       1.657  -2.698  -2.508  0.00  0.00    -0.153 OA
BRANCH  25  33
ATOM     28  C   UNL     1       0.617  -1.351  -4.870  0.00  0.00    +0.030 A 
ATOM     29  C   UNL     1       0.239  -0.900  -6.121  0.00  0.00    +0.022 A 
ATOM     30  C   UNL     1       0.995   0.062  -6.766  0.00  0.00    +0.041 A 
ATOM     31  C   UNL     1       2.125   0.577  -6.157  0.00  0.00    +0.022 A 
ATOM     32  C   UNL     1       2.499   0.130  -4.904  0.00  0.00    +0.030 A 
ATOM     33  C   UNL     1       1.744  -0.833  -4.260  0.00  0.00    +0.106 A 
ATOM     34 CL   UNL     1       0.525   0.624  -8.340  0.00  0.00    -0.084 Cl
ENDBRANCH  25  33
ENDBRANCH  20  25
ENDBRANCH   1  24
TORSDOF 4
