REMARK  Name = ZINC05958203
REMARK  8 active torsions:
REMARK  status: ('A' for Active; 'I' for Inactive)
REMARK    1  A    between atoms: C_1  and  C_2
REMARK    2  A    between atoms: C_2  and  C_3
REMARK    3  A    between atoms: C_2  and  N_4
REMARK    4  A    between atoms: N_4  and  C_5
REMARK    5  A    between atoms: C_11  and  C_13
REMARK    6  A    between atoms: C_13  and  N_14
REMARK    7  A    between atoms: C_17  and  C_21
REMARK    8  A    between atoms: C_17  and  C_22
REMARK                            x       y       z     vdW  Elec       q    Type
REMARK                         _______ _______ _______ _____ _____    ______ ____
ROOT
ATOM      1  N   UNL     1       1.189   2.275   0.792  0.00  0.00    -0.215 N 
ATOM      2  C   UNL     1       2.354   2.325   0.116  0.00  0.00    +0.251 C 
ATOM      3  O   UNL     1       2.565   1.927  -1.009  0.00  0.00    -0.272 OA
ATOM      4  C   UNL     1       3.345   2.980   1.057  0.00  0.00    +0.135 C 
ATOM      5  N   UNL     1       2.549   3.249   2.267  0.00  0.00    -0.281 N 
ATOM      6  C   UNL     1       1.304   2.806   2.014  0.00  0.00    +0.310 C 
ATOM      7  O   UNL     1       0.387   2.879   2.808  0.00  0.00    -0.252 OA
ATOM      8  C   UNL     1       4.499   2.027   1.373  0.00  0.00    +0.047 C 
ATOM      9  H   UNL     1       2.860   3.666   3.086  0.00  0.00    +0.152 HD
ENDROOT
BRANCH   4  10
ATOM     10  C   UNL     1       3.867   4.265   0.467  0.00  0.00    -0.012 A 
ATOM     11  C   UNL     1       3.963   4.404  -0.906  0.00  0.00    +0.010 A 
ATOM     12  C   UNL     1       4.441   5.580  -1.452  0.00  0.00    +0.050 A 
ATOM     13  C   UNL     1       4.824   6.624  -0.625  0.00  0.00    +0.166 A 
ATOM     14  C   UNL     1       4.728   6.483   0.757  0.00  0.00    +0.167 A 
ATOM     15  C   UNL     1       4.243   5.303   1.298  0.00  0.00    +0.055 A 
ATOM     16  O   UNL     1       5.161   7.637   1.344  0.00  0.00    -0.453 OA
ATOM     17  C   UNL     1       5.907   8.330   0.325  0.00  0.00    +0.466 C 
ATOM     18  O   UNL     1       5.319   7.865  -0.904  0.00  0.00    -0.453 OA
ENDBRANCH   4  10
BRANCH   1  19
ATOM     19  C   UNL     1      -0.052   1.713   0.252  0.00  0.00    +0.214 C 
BRANCH  19  21
ATOM     20  N   UNL     1      -1.185  -0.485   0.183  0.00  0.00    -0.268 N 
ATOM     21  C   UNL     1      -0.124   0.244   0.582  0.00  0.00    +0.238 C 
ATOM     22  O   UNL     1       0.773  -0.282   1.207  0.00  0.00    -0.273 OA
BRANCH  20  23
ATOM     23  C   UNL     1      -1.202  -1.868   0.394  0.00  0.00    +0.037 A 
ATOM     24  C   UNL     1      -0.548  -2.716  -0.491  0.00  0.00    +0.023 A 
ATOM     25  C   UNL     1      -0.562  -4.080  -0.277  0.00  0.00    +0.002 A 
ATOM     26  C   UNL     1      -1.235  -4.603   0.811  0.00  0.00    +0.000 A 
ATOM     27  C   UNL     1      -1.892  -3.763   1.692  0.00  0.00    +0.002 A 
ATOM     28  C   UNL     1      -1.877  -2.397   1.486  0.00  0.00    +0.023 A 
ENDBRANCH  20  23
BRANCH  20  30
ATOM     29  C   UNL     1      -2.541  -0.452  -1.851  0.00  0.00    +0.028 C 
ATOM     30  C   UNL     1      -2.320   0.170  -0.471  0.00  0.00    +0.075 C 
ATOM     31  C   UNL     1      -3.577  -0.017   0.380  0.00  0.00    +0.028 C 
ENDBRANCH  20  30
ENDBRANCH  19  21
ENDBRANCH   1  19
TORSDOF 5
