REMARK  Name = ZINC12637415
REMARK  7 active torsions:
REMARK  status: ('A' for Active; 'I' for Inactive)
REMARK    1  A    between atoms: C_1  and  C_2
REMARK    2  A    between atoms: N_8  and  S_9
REMARK    3  A    between atoms: S_9  and  C_12
REMARK    4  A    between atoms: C_15  and  S_18
REMARK    5  A    between atoms: S_18  and  N_21
REMARK    6  A    between atoms: C_26  and  C_27
REMARK    7  A    between atoms: C_26  and  N_66
REMARK                            x       y       z     vdW  Elec       q    Type
REMARK                         _______ _______ _______ _____ _____    ______ ____
ROOT
ATOM      1  S   UNL     1       8.479  -5.617  -1.737  0.00  0.00    +0.061 S 
ATOM      2  O   UNL     1       7.896  -6.756  -2.355  0.00  0.00    -0.153 OA
ATOM      3  O   UNL     1       9.685  -5.030  -2.205  0.00  0.00    -0.153 OA
ENDROOT
BRANCH   1   4
ATOM      4  N   UNL     1       7.330  -4.424  -1.766  0.00  0.00    -0.180 NA
ATOM      5  C   UNL     1       7.713  -3.005  -1.704  0.00  0.00    +0.091 C 
ATOM      6  C   UNL     1       6.899  -2.330  -0.595  0.00  0.00    -0.061 C 
ATOM      7  C   UNL     1       5.157  -4.011  -0.742  0.00  0.00    -0.061 C 
ATOM      8  C   UNL     1       5.900  -4.755  -1.857  0.00  0.00    +0.091 C 
ATOM      9  N   UNL     1       5.462  -2.567  -0.851  0.00  0.00    +0.384 N 
ATOM     10  H   UNL     1       5.235  -2.250  -1.800  0.00  0.00    -0.081 HD
BRANCH   9  11
ATOM     11  C   UNL     1       4.645  -1.806   0.117  0.00  0.00    -0.043 C 
BRANCH  11  12
ATOM     12  C   UNL     1       3.199  -1.889  -0.297  0.00  0.00    -0.060 A 
ATOM     13  C   UNL     1       2.398  -2.904   0.194  0.00  0.00    +0.005 A 
ATOM     14  C   UNL     1       1.071  -2.985  -0.184  0.00  0.00    +0.050 A 
ATOM     15  C   UNL     1       0.539  -2.048  -1.055  0.00  0.00    +0.166 A 
ATOM     16  C   UNL     1       1.345  -1.025  -1.549  0.00  0.00    +0.166 A 
ATOM     17  C   UNL     1       2.675  -0.950  -1.166  0.00  0.00    +0.051 A 
ATOM     18  O   UNL     1       0.597  -0.241  -2.379  0.00  0.00    -0.453 OA
ATOM     19  C   UNL     1      -0.774  -0.553  -2.068  0.00  0.00    +0.466 C 
ATOM     20  O   UNL     1      -0.715  -1.904  -1.575  0.00  0.00    -0.453 OA
ENDBRANCH  11  12
ENDBRANCH   9  11
ENDBRANCH   1   4
BRANCH   1  24
ATOM     21  C   UNL     1       9.166  -6.707   2.602  0.00  0.00    +0.106 A 
ATOM     22  C   UNL     1       8.201  -7.370   1.867  0.00  0.00    +0.030 A 
ATOM     23  C   UNL     1       7.991  -7.037   0.542  0.00  0.00    +0.030 A 
ATOM     24  C   UNL     1       8.746  -6.041  -0.048  0.00  0.00    +0.106 A 
ATOM     25  C   UNL     1       9.715  -5.382   0.685  0.00  0.00    +0.030 A 
ATOM     26  C   UNL     1       9.922  -5.712   2.011  0.00  0.00    +0.030 A 
BRANCH  21  27
ATOM     27  S   UNL     1       9.434  -7.132   4.291  0.00  0.00    +0.061 S 
ATOM     28  O   UNL     1      10.017  -5.992   4.909  0.00  0.00    -0.153 OA
ATOM     29  O   UNL     1       8.227  -7.717   4.759  0.00  0.00    -0.153 OA
BRANCH  27  36
ATOM     30  C   UNL     1       8.680  -9.851   4.072  0.00  0.00    +0.026 C 
ATOM     31  C   UNL     1      10.204  -9.731   4.122  0.00  0.00    +0.077 C 
ATOM     32  C   UNL     1      10.743 -10.560   5.287  0.00  0.00    +0.020 C 
ATOM     33  C   UNL     1      12.249 -10.326   5.422  0.00  0.00    +0.003 C 
ATOM     34  C   UNL     1      12.513  -8.848   5.716  0.00  0.00    +0.017 C 
ATOM     35  C   UNL     1      11.995  -7.999   4.551  0.00  0.00    +0.110 C 
ATOM     36  N   UNL     1      10.581  -8.325   4.320  0.00  0.00    -0.174 NA
ENDBRANCH  27  36
ENDBRANCH  21  27
ENDBRANCH   1  24
TORSDOF 6
