REMARK  Name = ZINC17747142
REMARK  5 active torsions:
REMARK  status: ('A' for Active; 'I' for Inactive)
REMARK    1  A    between atoms: C_1  and  C_2
REMARK    2  A    between atoms: C_6  and  N_8
REMARK    3  A    between atoms: C_13  and  C_27
REMARK    4  A    between atoms: N_15  and  C_21
REMARK    5  A    between atoms: C_30  and  C_32
REMARK                            x       y       z     vdW  Elec       q    Type
REMARK                         _______ _______ _______ _____ _____    ______ ____
ROOT
ATOM      1  N   UNL     1       0.050  -2.798   2.395  0.00  0.00    -0.208 N 
ATOM      2  C   UNL     1      -0.025  -4.133   2.452  0.00  0.00    +0.235 C 
ATOM      3  O   UNL     1      -0.123  -4.871   1.495  0.00  0.00    -0.274 OA
ATOM      4  C   UNL     1       0.030  -4.577   3.895  0.00  0.00    +0.148 C 
ATOM      5  C   UNL     1      -1.339  -5.168   4.302  0.00  0.00    +0.193 C 
ATOM      6  N   UNL     1      -1.619  -4.486   5.590  0.00  0.00    -0.241 N 
ATOM      7  O   UNL     1      -1.150  -3.150   5.397  0.00  0.00    -0.257 OA
ATOM      8  C   UNL     1       0.117  -3.241   4.681  0.00  0.00    +0.249 C 
ATOM      9  C   UNL     1       0.147  -2.196   3.586  0.00  0.00    +0.259 C 
ATOM     10  O   UNL     1       0.241  -1.001   3.761  0.00  0.00    -0.272 OA
ENDROOT
BRANCH   1  16
ATOM     11  C   UNL     1       2.193  -1.692  -1.892  0.00  0.00    +0.044 C 
ATOM     12  C   UNL     1       1.061  -1.534  -0.909  0.00  0.00    -0.049 A 
ATOM     13  C   UNL     1       0.006  -0.688  -1.200  0.00  0.00    +0.003 A 
ATOM     14  C   UNL     1      -1.033  -0.540  -0.300  0.00  0.00    +0.002 A 
ATOM     15  C   UNL     1      -1.021  -1.238   0.892  0.00  0.00    +0.024 A 
ATOM     16  C   UNL     1       0.035  -2.089   1.186  0.00  0.00    +0.044 A 
ATOM     17  C   UNL     1       1.075  -2.239   0.279  0.00  0.00    +0.027 A 
ENDBRANCH   1  16
BRANCH   6  18
ATOM     18  C   UNL     1      -2.209  -5.028   6.733  0.00  0.00    +0.065 A 
ATOM     19  C   UNL     1      -2.605  -6.360   6.748  0.00  0.00    +0.028 A 
ATOM     20  C   UNL     1      -3.188  -6.893   7.880  0.00  0.00    +0.002 A 
ATOM     21  C   UNL     1      -3.379  -6.103   8.999  0.00  0.00    +0.000 A 
ATOM     22  C   UNL     1      -2.986  -4.777   8.988  0.00  0.00    +0.002 A 
ATOM     23  C   UNL     1      -2.397  -4.239   7.861  0.00  0.00    +0.028 A 
ENDBRANCH   6  18
BRANCH   5  24
ATOM     24  C   UNL     1      -2.391  -4.834   3.276  0.00  0.00    +0.131 A 
ATOM     25  C   UNL     1      -2.841  -5.662   2.314  0.00  0.00    +0.047 A 
ATOM     26  C   UNL     1      -3.814  -4.953   1.581  0.00  0.00    +0.050 A 
ATOM     27  C   UNL     1      -3.905  -3.719   2.143  0.00  0.00    +0.137 A 
ATOM     28  O   UNL     1      -3.041  -3.662   3.174  0.00  0.00    -0.457 OA
BRANCH  27  29
ATOM     29  C   UNL     1      -4.801  -2.630   1.702  0.00  0.00    +0.037 A 
ATOM     30  C   UNL     1      -4.850  -2.264   0.356  0.00  0.00    +0.033 A 
ATOM     31  C   UNL     1      -5.690  -1.246  -0.050  0.00  0.00    +0.042 A 
ATOM     32  C   UNL     1      -6.483  -0.588   0.876  0.00  0.00    +0.021 A 
ATOM     33  C   UNL     1      -6.439  -0.945   2.212  0.00  0.00    +0.022 A 
ATOM     34  C   UNL     1      -5.607  -1.966   2.629  0.00  0.00    +0.052 A 
ATOM     35 CL   UNL     1      -5.559  -2.417   4.305  0.00  0.00    -0.083 Cl
ATOM     36 CL   UNL     1      -5.753  -0.789  -1.723  0.00  0.00    -0.084 Cl
ENDBRANCH  27  29
ENDBRANCH   5  24
TORSDOF 4
