REMARK  Name = ZINC58404312
REMARK  5 active torsions:
REMARK  status: ('A' for Active; 'I' for Inactive)
REMARK    1  A    between atoms: C_1  and  C_2
REMARK    2  A    between atoms: C_2  and  C_21
REMARK    3  A    between atoms: N_5  and  C_9
REMARK    4  A    between atoms: C_9  and  C_10
REMARK    5  A    between atoms: C_18  and  C_19
REMARK                            x       y       z     vdW  Elec       q    Type
REMARK                         _______ _______ _______ _____ _____    ______ ____
ROOT
ATOM      1  C   UNL     1      -0.019   1.526   0.010  0.00  0.00    +0.047 C 
ATOM      2  C   UNL     1       0.002  -0.004   0.002  0.00  0.00    +0.136 C 
ATOM      3  C   UNL     1      -1.403  -0.557   0.139  0.00  0.00    +0.251 C 
ATOM      4  O   UNL     1      -2.332  -0.392  -0.621  0.00  0.00    -0.272 OA
ATOM      5  N   UNL     1      -1.403  -1.272   1.282  0.00  0.00    -0.219 N 
ATOM      6  C   UNL     1      -0.206  -1.247   1.879  0.00  0.00    +0.310 C 
ATOM      7  O   UNL     1       0.040  -1.819   2.924  0.00  0.00    -0.252 OA
ATOM      8  N   UNL     1       0.695  -0.520   1.195  0.00  0.00    -0.281 N 
ATOM      9  H   UNL     1       1.621  -0.365   1.440  0.00  0.00    +0.152 HD
ENDROOT
BRANCH   2  10
ATOM     10  C   UNL     1       0.657  -0.517  -1.255  0.00  0.00    -0.001 A 
ATOM     11  C   UNL     1       1.795  -1.298  -1.171  0.00  0.00    +0.010 A 
ATOM     12  C   UNL     1       2.396  -1.769  -2.323  0.00  0.00    +0.039 A 
ATOM     13  C   UNL     1       1.859  -1.459  -3.561  0.00  0.00    +0.124 A 
ATOM     14  C   UNL     1       0.720  -0.677  -3.644  0.00  0.00    +0.054 A 
ATOM     15  C   UNL     1       0.116  -0.211  -2.490  0.00  0.00    +0.026 A 
ATOM     16 BR   UNL     1      -1.444   0.852  -2.602  0.00  0.00    -0.050 Br
ATOM     17  F   UNL     1       2.446  -1.919  -4.687  0.00  0.00    -0.205 F 
ENDBRANCH   2  10
BRANCH   5  18
ATOM     18  C   UNL     1      -2.569  -1.986   1.805  0.00  0.00    +0.156 C 
BRANCH  18  19
ATOM     19  C   UNL     1      -2.585  -3.391   1.260  0.00  0.00    +0.006 A 
ATOM     20  C   UNL     1      -3.326  -3.833   0.227  0.00  0.00    +0.097 A 
ATOM     21  N   UNL     1      -3.077  -5.162   0.018  0.00  0.00    -0.321 N 
ATOM     22  C   UNL     1      -3.578  -6.044  -0.900  0.00  0.00    +0.091 A 
ATOM     23  C   UNL     1      -3.174  -7.331  -0.912  0.00  0.00    +0.018 A 
ATOM     24  C   UNL     1      -2.230  -7.789   0.020  0.00  0.00    +0.003 A 
ATOM     25  C   UNL     1      -1.721  -6.921   0.940  0.00  0.00    +0.027 A 
ATOM     26  C   UNL     1      -2.153  -5.586   0.938  0.00  0.00    +0.064 A 
ATOM     27  C   UNL     1      -1.816  -4.481   1.738  0.00  0.00    +0.082 A 
BRANCH  27  28
ATOM     28  C   UNL     1      -0.883  -4.461   2.825  0.00  0.00    +0.102 C 
ATOM     29  N   UNL     1      -0.143  -4.445   3.686  0.00  0.00    -0.191 NA
ENDBRANCH  27  28
ENDBRANCH  18  19
ENDBRANCH   5  18
TORSDOF 4
