REMARK  Name = ZINC44165377
REMARK  4 active torsions:
REMARK  status: ('A' for Active; 'I' for Inactive)
REMARK    1  A    between atoms: C_6  and  C_7
REMARK    2  A    between atoms: C_12  and  C_15
REMARK    3  A    between atoms: N_17  and  C_18
REMARK    4  A    between atoms: C_18  and  C_19
REMARK                            x       y       z     vdW  Elec       q    Type
REMARK                         _______ _______ _______ _____ _____    ______ ____
ROOT
ATOM      1  C   UNL     1      -1.294  -0.773   0.010  0.00  0.00    -0.030 C 
ATOM      2  C   UNL     1      -1.845  -0.828   1.440  0.00  0.00    +0.058 C 
ATOM      3  S   UNL     1      -3.372  -1.818   1.426  0.00  0.00    -0.163 S 
ATOM      4  C   UNL     1      -4.315  -1.077   0.057  0.00  0.00    +0.062 C 
ATOM      5  C   UNL     1      -3.394  -0.985  -1.166  0.00  0.00    +0.027 C 
ATOM      6  N   UNL     1      -2.259  -0.108  -0.868  0.00  0.00    +0.392 N 
ATOM      7  H   UNL     1      -2.596   0.729  -0.416  0.00  0.00    -0.084 HD
ATOM      8  H   UNL     1      -1.802   0.144  -1.731  0.00  0.00    -0.084 HD
ENDROOT
BRANCH   1  14
ATOM      9  C   UNL     1      -0.017   1.378   0.010  0.00  0.00    +0.006 A 
ATOM     10  C   UNL     1       1.170   2.091   0.002  0.00  0.00    +0.049 A 
ATOM     11  C   UNL     1       2.377   1.413  -0.013  0.00  0.00    +0.162 A 
ATOM     12  C   UNL     1       2.396   0.025  -0.020  0.00  0.00    +0.162 A 
ATOM     13  C   UNL     1       1.207  -0.684  -0.013  0.00  0.00    +0.051 A 
ATOM     14  C   UNL     1       0.002  -0.004   0.002  0.00  0.00    -0.057 A 
ATOM     15  O   UNL     1       3.591  -0.632  -0.034  0.00  0.00    -0.488 OA
ATOM     16  C   UNL     1       4.358  -0.510  -1.234  0.00  0.00    +0.232 C 
ATOM     17  C   UNL     1       5.186   0.764  -1.217  0.00  0.00    +0.082 C 
ATOM     18  C   UNL     1       4.323   2.016  -1.220  0.00  0.00    +0.232 C 
ATOM     19  O   UNL     1       3.554   2.104  -0.019  0.00  0.00    -0.488 OA
ENDBRANCH   1  14
BRANCH   5  20
ATOM     20  C   UNL     1      -4.166  -0.423  -2.332  0.00  0.00    +0.200 C 
ATOM     21  O   UNL     1      -3.806   0.610  -2.857  0.00  0.00    -0.278 OA
ATOM     22  N   UNL     1      -5.257  -1.067  -2.792  0.00  0.00    -0.314 N 
ATOM     23  H   UNL     1      -5.545  -1.893  -2.372  0.00  0.00    +0.149 HD
BRANCH  22  24
ATOM     24  C   UNL     1      -6.007  -0.521  -3.926  0.00  0.00    +0.135 C 
BRANCH  24  25
ATOM     25  C   UNL     1      -7.190  -1.438  -4.244  0.00  0.00    +0.135 C 
ATOM     26  C   UNL     1      -7.915  -0.937  -5.511  0.00  0.00    +0.035 C 
ATOM     27  C   UNL     1      -9.407  -1.171  -5.151  0.00  0.00    +0.031 C 
ATOM     28  C   UNL     1      -9.390  -0.892  -3.627  0.00  0.00    +0.160 C 
ATOM     29  O   UNL     1      -8.131  -1.410  -3.165  0.00  0.00    -0.375 OA
ENDBRANCH  24  25
ENDBRANCH  22  24
ENDBRANCH   5  20
TORSDOF 4
