REMARK  Name = ZINC59023138
REMARK  9 active torsions:
REMARK  status: ('A' for Active; 'I' for Inactive)
REMARK    1  A    between atoms: C_1  and  C_2
REMARK    2  A    between atoms: C_5  and  N_9
REMARK    3  A    between atoms: C_10  and  C_12
REMARK    4  A    between atoms: C_12  and  S_13
REMARK    5  A    between atoms: S_13  and  C_14
REMARK    6  A    between atoms: N_19  and  N_20
REMARK    7  A    between atoms: C_21  and  C_22
REMARK    8  A    between atoms: C_21  and  C_23
REMARK    9  A    between atoms: C_24  and  C_25
REMARK                            x       y       z     vdW  Elec       q    Type
REMARK                         _______ _______ _______ _____ _____    ______ ____
ROOT
ATOM      1  C   UNL     1      -0.352  -8.692  -2.732  0.00  0.00    +0.211 A 
ATOM      2  N   UNL     1      -0.453  -9.564  -3.741  0.00  0.00    -0.186 NA
ATOM      3  C   UNL     1      -0.506 -10.789  -3.264  0.00  0.00    +0.232 A 
ATOM      4  N   UNL     1      -0.439 -10.715  -1.917  0.00  0.00    -0.245 N 
ATOM      5  N   UNL     1      -0.335  -9.352  -1.599  0.00  0.00    -0.144 NA
ATOM      6  N   UNL     1      -0.613 -11.948  -4.010  0.00  0.00    -0.205 N 
ATOM      7  H   UNL     1      -0.646 -12.810  -3.565  0.00  0.00    +0.177 HD
ATOM      8  H   UNL     1      -0.457 -11.458  -1.293  0.00  0.00    +0.192 HD
ENDROOT
BRANCH   6   9
ATOM      9  N   UNL     1      -0.674 -11.879  -5.407  0.00  0.00    -0.185 NA
ATOM     10  C   UNL     1      -0.873 -12.961  -6.106  0.00  0.00    +0.056 C 
ATOM     11  C   UNL     1      -1.051 -12.871  -7.599  0.00  0.00    +0.067 C 
BRANCH  10  12
ATOM     12  C   UNL     1      -0.921 -14.222  -5.460  0.00  0.00    +0.025 C 
ATOM     13  C   UNL     1      -1.024 -15.350  -6.192  0.00  0.00    +0.010 C 
BRANCH  13  14
ATOM     14  C   UNL     1      -1.187 -16.650  -5.521  0.00  0.00    -0.025 A 
ATOM     15  C   UNL     1      -1.241 -16.719  -4.125  0.00  0.00    +0.008 A 
ATOM     16  C   UNL     1      -1.394 -17.940  -3.504  0.00  0.00    +0.001 A 
ATOM     17  C   UNL     1      -1.494 -19.097  -4.258  0.00  0.00    +0.000 A 
ATOM     18  C   UNL     1      -1.441 -19.037  -5.640  0.00  0.00    +0.001 A 
ATOM     19  C   UNL     1      -1.293 -17.823  -6.276  0.00  0.00    +0.008 A 
ENDBRANCH  13  14
ENDBRANCH  10  12
ENDBRANCH   6   9
BRANCH   1  20
ATOM     20  S   UNL     1      -0.250  -6.941  -2.899  0.00  0.00    -0.075 S 
BRANCH  20  21
ATOM     21  C   UNL     1      -0.126  -6.343  -1.191  0.00  0.00    +0.173 C 
BRANCH  21  23
ATOM     22  N   UNL     1       0.070  -4.171  -0.024  0.00  0.00    -0.284 N 
ATOM     23  C   UNL     1      -0.031  -4.840  -1.190  0.00  0.00    +0.228 C 
ATOM     24  O   UNL     1      -0.046  -4.230  -2.239  0.00  0.00    -0.275 OA
ATOM     25  H   UNL     1       0.164  -4.660   0.809  0.00  0.00    +0.155 HD
BRANCH  22  30
ATOM     26  C   UNL     1      -0.050   1.501   0.016  0.00  0.00    +0.044 C 
ATOM     27  C   UNL     1      -0.018  -0.005   0.005  0.00  0.00    -0.049 A 
ATOM     28  C   UNL     1      -0.611  -0.701  -1.032  0.00  0.00    +0.005 A 
ATOM     29  C   UNL     1      -0.583  -2.082  -1.045  0.00  0.00    +0.024 A 
ATOM     30  C   UNL     1       0.041  -2.772  -0.014  0.00  0.00    +0.047 A 
ATOM     31  C   UNL     1       0.637  -2.071   1.027  0.00  0.00    +0.039 A 
ATOM     32  C   UNL     1       0.610  -0.689   1.030  0.00  0.00    +0.020 A 
ATOM     33 BR   UNL     1       1.488  -3.005   2.433  0.00  0.00    -0.048 Br
ENDBRANCH  22  30
ENDBRANCH  21  23
ENDBRANCH  20  21
ENDBRANCH   1  20
TORSDOF 7
