REMARK  Name = ZINC21529486
REMARK  8 active torsions:
REMARK  status: ('A' for Active; 'I' for Inactive)
REMARK    1  A    between atoms: C_1  and  C_2
REMARK    2  A    between atoms: C_2  and  C_3
REMARK    3  A    between atoms: C_2  and  C_4
REMARK    4  A    between atoms: C_4  and  C_5
REMARK    5  A    between atoms: C_5  and  C_7
REMARK    6  A    between atoms: C_5  and  N_26
REMARK    7  A    between atoms: N_16  and  C_19
REMARK    8  A    between atoms: C_19  and  C_20
REMARK                            x       y       z     vdW  Elec       q    Type
REMARK                         _______ _______ _______ _____ _____    ______ ____
ROOT
ATOM      1  C   UNL     1      -2.819  -2.590   0.013  0.00  0.00    +0.240 C 
ATOM      2  O   UNL     1      -3.320  -3.216  -0.898  0.00  0.00    -0.273 OA
ATOM      3  N   UNL     1      -3.518  -2.371   1.144  0.00  0.00    -0.263 N 
ATOM      4  C   UNL     1      -4.813  -2.862   1.267  0.00  0.00    +0.165 A 
ATOM      5  N   UNL     1      -5.509  -3.559   0.396  0.00  0.00    -0.229 NA
ATOM      6  C   UNL     1      -6.746  -3.965   0.652  0.00  0.00    +0.050 A 
ATOM      7  C   UNL     1      -7.228  -3.603   1.871  0.00  0.00    -0.002 A 
ATOM      8  S   UNL     1      -5.869  -2.714   2.573  0.00  0.00    -0.059 S 
ATOM      9  C   UNL     1      -8.575  -3.909   2.428  0.00  0.00    -0.033 C 
ATOM     10  N   UNL     1      -9.444  -4.347   1.318  0.00  0.00    +0.386 N 
ATOM     11  C   UNL     1      -8.761  -5.389   0.540  0.00  0.00    -0.072 C 
ATOM     12  C   UNL     1      -7.625  -4.779  -0.288  0.00  0.00    +0.038 C 
ATOM     13  H   UNL     1      -3.118  -1.870   1.872  0.00  0.00    +0.157 HD
ATOM     14  H   UNL     1      -9.648  -3.560   0.720  0.00  0.00    -0.081 HD
ENDROOT
BRANCH   1  15
ATOM     15  C   UNL     1      -1.416  -2.058  -0.121  0.00  0.00    +0.170 C 
BRANCH  15  16
ATOM     16  N   UNL     1      -0.876  -2.426  -1.433  0.00  0.00    -0.230 N 
ATOM     17  C   UNL     1      -1.438  -2.038  -2.594  0.00  0.00    +0.227 C 
ATOM     18  O   UNL     1      -2.302  -1.198  -2.729  0.00  0.00    -0.275 OA
ATOM     19  C   UNL     1      -0.777  -2.857  -3.715  0.00  0.00    +0.091 C 
ATOM     20  C   UNL     1      -1.620  -4.131  -3.818  0.00  0.00    +0.040 C 
ATOM     21  C   UNL     1      -0.822  -5.340  -4.162  0.00  0.00    -0.030 C 
ATOM     22  C   UNL     1       0.461  -5.436  -4.049  0.00  0.00    -0.030 C 
ATOM     23  C   UNL     1       1.331  -4.307  -3.596  0.00  0.00    +0.040 C 
ATOM     24  C   UNL     1       0.580  -3.129  -3.047  0.00  0.00    +0.091 C 
ATOM     25  C   UNL     1       0.233  -3.183  -1.588  0.00  0.00    +0.227 C 
ATOM     26  O   UNL     1       0.828  -3.787  -0.722  0.00  0.00    -0.275 OA
ENDBRANCH  15  16
BRANCH  15  27
ATOM     27  C   UNL     1      -1.433  -0.534   0.013  0.00  0.00    +0.035 C 
BRANCH  27  29
ATOM     28  C   UNL     1      -0.019   1.526   0.010  0.00  0.00    +0.007 C 
ATOM     29  C   UNL     1       0.002  -0.004   0.002  0.00  0.00    -0.015 C 
ATOM     30  C   UNL     1       0.742  -0.511   1.242  0.00  0.00    +0.007 C 
ENDBRANCH  27  29
ENDBRANCH  15  27
ENDBRANCH   1  15
BRANCH  10  31
ATOM     31  C   UNL     1     -10.698  -4.885   1.861  0.00  0.00    -0.043 C 
BRANCH  31  32
ATOM     32  C   UNL     1     -11.460  -3.784   2.553  0.00  0.00    -0.064 A 
ATOM     33  C   UNL     1     -11.248  -3.536   3.897  0.00  0.00    +0.002 A 
ATOM     34  C   UNL     1     -11.946  -2.526   4.531  0.00  0.00    +0.000 A 
ATOM     35  C   UNL     1     -12.856  -1.764   3.823  0.00  0.00    +0.000 A 
ATOM     36  C   UNL     1     -13.068  -2.011   2.479  0.00  0.00    +0.000 A 
ATOM     37  C   UNL     1     -12.366  -3.019   1.843  0.00  0.00    +0.002 A 
ENDBRANCH  31  32
ENDBRANCH  10  31
TORSDOF 6
