REMARK  Name = ZINC37538763
REMARK  15 active torsions:
REMARK  status: ('A' for Active; 'I' for Inactive)
REMARK    1  A    between atoms: C_1  and  C_2
REMARK    2  A    between atoms: C_4  and  O_20
REMARK    3  A    between atoms: C_6  and  C_17
REMARK    4  A    between atoms: C_10  and  C_16
REMARK    5  A    between atoms: C_11  and  O_15
REMARK    6  A    between atoms: C_17  and  C_18
REMARK    7  A    between atoms: C_17  and  C_19
REMARK    8  A    between atoms: O_20  and  C_21
REMARK    9  A    between atoms: C_23  and  O_39
REMARK   10  A    between atoms: C_25  and  O_38
REMARK   11  A    between atoms: C_27  and  O_37
REMARK   12  A    between atoms: C_29  and  C_32
REMARK   13  A    between atoms: C_32  and  O_33
REMARK   14  A    between atoms: O_33  and  C_34
REMARK   15  A    between atoms: C_34  and  C_36
REMARK                            x       y       z     vdW  Elec       q    Type
REMARK                         _______ _______ _______ _____ _____    ______ ____
ROOT
ATOM      1  O   UNL     1       0.318  -0.840  -3.414  0.00  0.00    -0.341 OA
ENDROOT
BRANCH   1   5
ATOM      2  C   UNL     1      -0.018   1.494   0.010  0.00  0.00    +0.039 C 
ATOM      3  C   UNL     1       0.002  -0.004   0.002  0.00  0.00    -0.074 C 
ATOM      4  C   UNL     1      -0.116  -0.752  -1.049  0.00  0.00    +0.003 C 
ATOM      5  C   UNL     1      -0.536  -0.282  -2.413  0.00  0.00    +0.148 C 
ATOM      6  C   UNL     1      -1.973  -0.836  -2.591  0.00  0.00    +0.028 C 
ATOM      7  C   UNL     1      -2.787  -0.446  -1.359  0.00  0.00    +0.034 C 
ATOM      8  C   UNL     1      -3.539  -1.583  -0.752  0.00  0.00    -0.025 C 
ATOM      9  C   UNL     1      -3.114  -2.407   0.163  0.00  0.00    -0.048 C 
ATOM     10  C   UNL     1      -1.750  -2.416   0.780  0.00  0.00    +0.140 C 
ATOM     11  C   UNL     1      -1.434  -1.171   1.598  0.00  0.00    +0.040 C 
ATOM     12  C   UNL     1       0.025  -0.741   1.336  0.00  0.00    +0.033 C 
ATOM     13  C   UNL     1      -4.107  -3.457   0.645  0.00  0.00    +0.041 C 
BRANCH   6  14
ATOM     14  C   UNL     1      -2.601  -0.228  -3.846  0.00  0.00    -0.011 C 
ATOM     15  C   UNL     1      -1.757  -0.596  -5.068  0.00  0.00    +0.007 C 
ATOM     16  C   UNL     1      -4.019  -0.774  -4.022  0.00  0.00    +0.007 C 
ENDBRANCH   6  14
BRANCH  10  17
ATOM     17  O   UNL     1      -1.660  -3.557   1.649  0.00  0.00    -0.388 OA
ATOM     18  H   UNL     1      -1.790  -4.404   1.200  0.00  0.00    +0.210 HD
ENDBRANCH  10  17
ENDBRANCH   1   5
BRANCH   1  19
ATOM     19  C   UNL     1       1.463  -0.038  -3.713  0.00  0.00    +0.282 C 
ATOM     20  C   UNL     1       2.165  -0.594  -4.955  0.00  0.00    +0.201 C 
ATOM     21  C   UNL     1       3.424   0.234  -5.233  0.00  0.00    +0.179 C 
ATOM     22  C   UNL     1       4.324   0.206  -3.994  0.00  0.00    +0.178 C 
ATOM     23  C   UNL     1       3.538   0.731  -2.790  0.00  0.00    +0.190 C 
ATOM     24  O   UNL     1       2.365  -0.064  -2.605  0.00  0.00    -0.339 OA
BRANCH  22  25
ATOM     25  O   UNL     1       4.748  -1.135  -3.742  0.00  0.00    -0.386 OA
ATOM     26  H   UNL     1       5.249  -1.533  -4.468  0.00  0.00    +0.210 HD
ENDBRANCH  22  25
BRANCH  21  27
ATOM     27  O   UNL     1       4.124  -0.322  -6.348  0.00  0.00    -0.386 OA
ATOM     28  H   UNL     1       3.609  -0.341  -7.166  0.00  0.00    +0.210 HD
ENDBRANCH  21  27
BRANCH  20  29
ATOM     29  O   UNL     1       2.529  -1.957  -4.728  0.00  0.00    -0.384 OA
ATOM     30  H   UNL     1       1.779  -2.538  -4.540  0.00  0.00    +0.210 HD
ENDBRANCH  20  29
BRANCH  23  31
ATOM     31  C   UNL     1       4.412   0.650  -1.536  0.00  0.00    +0.266 C 
BRANCH  31  32
ATOM     32  O   UNL     1       3.722   1.246  -0.436  0.00  0.00    -0.462 OA
BRANCH  32  33
ATOM     33  C   UNL     1       4.356   1.257   0.747  0.00  0.00    +0.304 C 
ATOM     34  O   UNL     1       5.460   0.776   0.845  0.00  0.00    -0.251 OA
ATOM     35  C   UNL     1       3.691   1.869   1.953  0.00  0.00    +0.136 C 
ENDBRANCH  32  33
ENDBRANCH  31  32
ENDBRANCH  23  31
ENDBRANCH   1  19
TORSDOF 10
