REMARK  Name = ZINC11124054
REMARK  13 active torsions:
REMARK  status: ('A' for Active; 'I' for Inactive)
REMARK    1  A    between atoms: C_1  and  C_2
REMARK    2  A    between atoms: C_2  and  O_3
REMARK    3  A    between atoms: O_3  and  C_4
REMARK    4  A    between atoms: C_4  and  C_5
REMARK    5  A    between atoms: C_5  and  C_6
REMARK    6  A    between atoms: C_6  and  N_7
REMARK    7  A    between atoms: C_11  and  C_35
REMARK    8  A    between atoms: C_12  and  C_34
REMARK    9  A    between atoms: C_16  and  S_17
REMARK   10  A    between atoms: S_17  and  C_18
REMARK   11  A    between atoms: C_18  and  C_19
REMARK   12  A    between atoms: N_24  and  C_25
REMARK   13  A    between atoms: C_31  and  C_33
REMARK                            x       y       z     vdW  Elec       q    Type
REMARK                         _______ _______ _______ _____ _____    ______ ____
ROOT
ATOM      1  N   UNL     1      -1.812  -1.238 -10.996  0.00  0.00    -0.287 N 
ATOM      2  C   UNL     1      -2.523  -0.657 -11.979  0.00  0.00    +0.263 A 
ATOM      3  O   UNL     1      -2.538  -1.140 -13.098  0.00  0.00    -0.267 OA
ATOM      4  C   UNL     1      -3.262   0.534 -11.694  0.00  0.00    +0.075 A 
ATOM      5  C   UNL     1      -4.094   1.334 -12.577  0.00  0.00    -0.026 A 
ATOM      6  C   UNL     1      -4.702   2.427 -12.092  0.00  0.00    -0.008 A 
ATOM      7  S   UNL     1      -4.192   2.461 -10.384  0.00  0.00    -0.073 S 
ATOM      8  C   UNL     1      -3.177   1.006 -10.370  0.00  0.00    +0.117 A 
ATOM      9  N   UNL     1      -2.459   0.381  -9.445  0.00  0.00    -0.216 NA
ATOM     10  C   UNL     1      -1.784  -0.712  -9.736  0.00  0.00    +0.173 A 
ATOM     11  C   UNL     1      -5.602   3.394 -12.818  0.00  0.00    +0.052 C 
ATOM     12  C   UNL     1      -4.271   0.940 -14.021  0.00  0.00    +0.045 C 
ENDROOT
BRANCH   1  13
ATOM     13  C   UNL     1      -1.053  -2.458 -11.282  0.00  0.00    +0.129 C 
BRANCH  13  14
ATOM     14  C   UNL     1      -1.935  -3.680 -11.023  0.00  0.00    +0.050 C 
BRANCH  14  15
ATOM     15  C   UNL     1      -1.142  -4.954 -11.322  0.00  0.00    +0.161 C 
BRANCH  15  16
ATOM     16  O   UNL     1      -1.966  -6.096 -11.080  0.00  0.00    -0.380 OA
BRANCH  16  18
ATOM     17  C   UNL     1      -2.289  -8.491 -11.040  0.00  0.00    +0.034 C 
ATOM     18  C   UNL     1      -1.318  -7.345 -11.331  0.00  0.00    +0.156 C 
ENDBRANCH  16  18
ENDBRANCH  15  16
ENDBRANCH  14  15
ENDBRANCH  13  14
ENDBRANCH   1  13
BRANCH  10  19
ATOM     19  S   UNL     1      -0.837  -1.510  -8.482  0.00  0.00    -0.078 S 
BRANCH  19  20
ATOM     20  C   UNL     1      -1.169  -0.405  -7.088  0.00  0.00    +0.173 C 
BRANCH  20  21
ATOM     21  C   UNL     1      -0.441  -0.904  -5.867  0.00  0.00    +0.231 C 
ATOM     22  O   UNL     1       0.237  -1.907  -5.933  0.00  0.00    -0.274 OA
ATOM     23  N   UNL     1      -0.541  -0.235  -4.701  0.00  0.00    -0.239 N 
ATOM     24  C   UNL     1       0.111  -0.681  -3.609  0.00  0.00    +0.306 C 
ATOM     25  O   UNL     1       0.789  -1.687  -3.676  0.00  0.00    -0.252 OA
ATOM     26  N   UNL     1       0.010  -0.012  -2.444  0.00  0.00    -0.296 N 
ATOM     27  H   UNL     1      -1.083   0.568  -4.648  0.00  0.00    +0.159 HD
ATOM     28  H   UNL     1      -0.532   0.791  -2.391  0.00  0.00    +0.151 HD
BRANCH  26  29
ATOM     29  C   UNL     1       0.718  -0.497  -1.257  0.00  0.00    +0.077 C 
ATOM     30  C   UNL     1       2.154   0.032  -1.268  0.00  0.00    +0.022 C 
ATOM     31  C   UNL     1       2.133   1.562  -1.259  0.00  0.00    +0.002 C 
ATOM     32  C   UNL     1       1.417   2.055  -0.000  0.00  0.00    +0.000 C 
ATOM     33  C   UNL     1      -0.019   1.526   0.010  0.00  0.00    +0.005 C 
ATOM     34  C   UNL     1       0.002  -0.004   0.002  0.00  0.00    +0.006 C 
ATOM     35  C   UNL     1      -1.433  -0.534   0.013  0.00  0.00    +0.009 C 
ENDBRANCH  26  29
ENDBRANCH  20  21
ENDBRANCH  19  20
ENDBRANCH  10  19
TORSDOF 9
