REMARK  Name = ZINC12411716
REMARK  11 active torsions:
REMARK  status: ('A' for Active; 'I' for Inactive)
REMARK    1  A    between atoms: C_1  and  C_2
REMARK    2  A    between atoms: C_2  and  N_3
REMARK    3  A    between atoms: N_3  and  C_4
REMARK    4  A    between atoms: N_3  and  C_6
REMARK    5  A    between atoms: C_4  and  C_5
REMARK    6  A    between atoms: C_9  and  C_12
REMARK    7  A    between atoms: N_13  and  N_14
REMARK    8  A    between atoms: C_15  and  C_17
REMARK    9  A    between atoms: C_17  and  N_18
REMARK   10  A    between atoms: N_18  and  C_19
REMARK   11  A    between atoms: C_22  and  C_26
REMARK                            x       y       z     vdW  Elec       q    Type
REMARK                         _______ _______ _______ _____ _____    ______ ____
ROOT
ATOM      1  N   UNL     1      -0.016   1.344   0.009  0.00  0.00    -0.206 N 
ATOM      2  C   UNL     1       0.002  -0.004   0.002  0.00  0.00    +0.249 C 
ATOM      3  O   UNL     1       1.061  -0.596  -0.011  0.00  0.00    -0.272 OA
ATOM      4  H   UNL     1      -0.863   1.817   0.016  0.00  0.00    +0.177 HD
ENDROOT
BRANCH   1   6
ATOM      5  C   UNL     1       1.170   3.358   0.009  0.00  0.00    +0.138 C 
ATOM      6  N   UNL     1       1.187   2.061   0.002  0.00  0.00    -0.188 NA
BRANCH   5  10
ATOM      7  C   UNL     1       4.817   5.531  -0.014  0.00  0.00    +0.030 A 
ATOM      8  C   UNL     1       3.604   6.212   0.001  0.00  0.00    +0.024 A 
ATOM      9  C   UNL     1       2.419   5.510   0.009  0.00  0.00    +0.011 A 
ATOM     10  C   UNL     1       2.436   4.113   0.001  0.00  0.00    -0.005 A 
ATOM     11  C   UNL     1       3.657   3.432  -0.009  0.00  0.00    +0.011 A 
ATOM     12  C   UNL     1       4.838   4.140  -0.021  0.00  0.00    +0.024 A 
BRANCH   7  13
ATOM     13  N   UNL     1       6.016   6.245  -0.022  0.00  0.00    -0.330 N 
BRANCH  13  15
ATOM     14  C   UNL     1       7.725   5.288  -1.486  0.00  0.00    +0.024 C 
ATOM     15  C   UNL     1       7.294   5.530  -0.038  0.00  0.00    +0.102 C 
ENDBRANCH  13  15
BRANCH  13  16
ATOM     16  C   UNL     1       5.996   7.710  -0.014  0.00  0.00    +0.102 C 
ATOM     17  C   UNL     1       6.003   8.212   1.431  0.00  0.00    +0.024 C 
ENDBRANCH  13  16
ENDBRANCH   7  13
ENDBRANCH   5  10
ENDBRANCH   1   6
BRANCH   2  18
ATOM     18  C   UNL     1      -1.293  -0.775   0.010  0.00  0.00    +0.199 C 
BRANCH  18  19
ATOM     19  N   UNL     1      -1.005  -2.212  -0.000  0.00  0.00    -0.335 N 
ATOM     20  H   UNL     1      -0.087  -2.523  -0.011  0.00  0.00    +0.147 HD
BRANCH  19  21
ATOM     21  C   UNL     1      -2.055  -3.134   0.005  0.00  0.00    +0.030 A 
ATOM     22  C   UNL     1      -3.371  -2.690   0.025  0.00  0.00    +0.038 A 
ATOM     23  C   UNL     1      -4.407  -3.605   0.024  0.00  0.00    +0.024 A 
ATOM     24  C   UNL     1      -4.134  -4.961   0.015  0.00  0.00    -0.022 A 
ATOM     25  C   UNL     1      -2.824  -5.406  -0.000  0.00  0.00    +0.024 A 
ATOM     26  C   UNL     1      -1.784  -4.496  -0.005  0.00  0.00    +0.038 A 
ATOM     27 BR   UNL     1      -2.456  -7.261  -0.014  0.00  0.00    -0.050 Br
ATOM     28  C   UNL     1      -5.266  -5.956   0.020  0.00  0.00    +0.046 C 
ATOM     29 BR   UNL     1      -6.199  -3.002   0.044  0.00  0.00    -0.050 Br
ENDBRANCH  19  21
ENDBRANCH  18  19
ENDBRANCH   2  18
TORSDOF 8
