REMARK  Name = ZINC40377174
REMARK  7 active torsions:
REMARK  status: ('A' for Active; 'I' for Inactive)
REMARK    1  A    between atoms: C_1  and  C_2
REMARK    2  A    between atoms: C_3  and  S_9
REMARK    3  A    between atoms: C_4  and  C_8
REMARK    4  A    between atoms: S_9  and  N_12
REMARK    5  A    between atoms: N_12  and  C_13
REMARK    6  A    between atoms: C_13  and  C_18
REMARK    7  A    between atoms: N_19  and  O_20
REMARK                            x       y       z     vdW  Elec       q    Type
REMARK                         _______ _______ _______ _____ _____    ______ ____
ROOT
ATOM      1  N   UNL     1       1.613  -0.245  -3.783  0.00  0.00    -0.177 NA
ATOM      2  H   UNL     1       0.859  -0.116  -3.186  0.00  0.00    +0.149 HD
ENDROOT
BRANCH   1   3
ATOM      3  C   UNL     1       2.375  -1.495  -3.739  0.00  0.00    +0.098 C 
ATOM      4  C   UNL     1       2.354  -2.093  -2.310  0.00  0.00    +0.031 C 
ATOM      5  C   UNL     1       3.447  -1.273  -1.580  0.00  0.00    +0.002 C 
ATOM      6  C   UNL     1       4.551  -1.085  -2.642  0.00  0.00    +0.002 C 
ATOM      7  C   UNL     1       3.869  -1.226  -4.014  0.00  0.00    +0.031 C 
BRANCH   3   8
ATOM      8  C   UNL     1       1.825  -2.483  -4.735  0.00  0.00    +0.153 C 
ATOM      9  N   UNL     1       2.590  -2.965  -5.658  0.00  0.00    -0.075 NA
ATOM     10  N   UNL     1       0.506  -2.873  -4.662  0.00  0.00    -0.342 N 
ATOM     11  H   UNL     1      -0.088  -2.456  -4.018  0.00  0.00    +0.144 HD
ATOM     12  H   UNL     1       0.171  -3.563  -5.255  0.00  0.00    +0.144 HD
BRANCH   9  13
ATOM     13  O   UNL     1       2.073  -3.893  -6.594  0.00  0.00    -0.408 OA
ATOM     14  H   UNL     1       2.720  -4.197  -7.245  0.00  0.00    +0.328 HD
ENDBRANCH   9  13
ENDBRANCH   3   8
ENDBRANCH   1   3
BRANCH   1  15
ATOM     15  S   UNL     1       2.037   0.946  -4.852  0.00  0.00    +0.063 S 
ATOM     16  O   UNL     1       3.369   1.323  -4.533  0.00  0.00    -0.153 OA
ATOM     17  O   UNL     1       0.965   1.878  -4.868  0.00  0.00    -0.153 OA
BRANCH  15  20
ATOM     18  C   UNL     1      -0.421   0.201  -6.900  0.00  0.00    +0.067 C 
ATOM     19  C   UNL     1       1.024  -0.062  -7.239  0.00  0.00    +0.060 A 
ATOM     20  C   UNL     1       2.091   0.213  -6.454  0.00  0.00    +0.148 A 
ATOM     21  C   UNL     1       3.244  -0.185  -7.139  0.00  0.00    +0.086 A 
ATOM     22  N   UNL     1       2.882  -0.682  -8.293  0.00  0.00    -0.177 NA
ATOM     23  N   UNL     1       1.485  -0.621  -8.378  0.00  0.00    -0.280 N 
ATOM     24  H   UNL     1       0.945  -0.924  -9.124  0.00  0.00    +0.189 HD
ATOM     25  C   UNL     1       4.658  -0.062  -6.633  0.00  0.00    +0.069 C 
ENDBRANCH  15  20
ENDBRANCH   1  15
TORSDOF 5
