REMARK  Name = ZINC67035001
REMARK  7 active torsions:
REMARK  status: ('A' for Active; 'I' for Inactive)
REMARK    1  A    between atoms: C_1  and  C_2
REMARK    2  A    between atoms: C_2  and  C_4
REMARK    3  A    between atoms: C_2  and  N_13
REMARK    4  A    between atoms: N_13  and  C_14
REMARK    5  A    between atoms: C_15  and  C_17
REMARK    6  A    between atoms: N_20  and  C_22
REMARK    7  A    between atoms: C_25  and  N_28
REMARK                            x       y       z     vdW  Elec       q    Type
REMARK                         _______ _______ _______ _____ _____    ______ ____
ROOT
ATOM      1  N   UNL     1       0.702  -0.575   1.283  0.00  0.00    -0.289 N 
ATOM      2  C   UNL     1       2.087  -0.384   1.721  0.00  0.00    +0.133 C 
ATOM      3  C   UNL     1      -0.195  -1.145   2.112  0.00  0.00    +0.267 C 
ATOM      4  O   UNL     1      -1.317  -1.393   1.717  0.00  0.00    -0.268 OA
ENDROOT
BRANCH   3   5
ATOM      5  C   UNL     1       0.187  -1.470   3.502  0.00  0.00    +0.148 A 
ATOM      6  C   UNL     1      -0.600  -2.170   4.448  0.00  0.00    +0.054 A 
ATOM      7  C   UNL     1       0.152  -2.230   5.571  0.00  0.00    +0.115 A 
ATOM      8  N   UNL     1       1.324  -1.598   5.303  0.00  0.00    -0.239 N 
ATOM      9  N   UNL     1       1.326  -1.168   4.092  0.00  0.00    -0.162 NA
BRANCH   8  10
ATOM     10  C   UNL     1       2.380  -1.442   6.211  0.00  0.00    +0.065 A 
ATOM     11  C   UNL     1       2.273  -1.959   7.496  0.00  0.00    +0.030 A 
ATOM     12  C   UNL     1       3.315  -1.804   8.389  0.00  0.00    +0.035 A 
ATOM     13  C   UNL     1       4.463  -1.135   8.006  0.00  0.00    +0.126 A 
ATOM     14  C   UNL     1       4.572  -0.619   6.728  0.00  0.00    +0.035 A 
ATOM     15  C   UNL     1       3.536  -0.776   5.828  0.00  0.00    +0.030 A 
BRANCH  13  16
ATOM     16  N   UNL     1       5.577  -0.971   8.966  0.00  0.00    +0.056 N 
ATOM     17  O   UNL     1       5.483  -1.421  10.084  0.00  0.00    -0.126 OA
ATOM     18  O   UNL     1       6.582  -0.386   8.632  0.00  0.00    -0.126 OA
ENDBRANCH  13  16
ENDBRANCH   8  10
ENDBRANCH   3   5
BRANCH   1  20
ATOM     19  C   UNL     1       0.521   1.360  -0.202  0.00  0.00    +0.036 C 
ATOM     20  C   UNL     1       0.291  -0.146  -0.056  0.00  0.00    +0.139 C 
BRANCH  20  21
ATOM     21  C   UNL     1       1.105  -0.880  -1.090  0.00  0.00    +0.126 A 
ATOM     22  C   UNL     1       0.625  -1.357  -2.247  0.00  0.00    +0.055 A 
ATOM     23  C   UNL     1       1.759  -1.990  -2.931  0.00  0.00    +0.020 A 
ATOM     24  C   UNL     1       1.917  -2.655  -4.146  0.00  0.00    +0.011 A 
ATOM     25  C   UNL     1       3.146  -3.141  -4.497  0.00  0.00    +0.001 A 
ATOM     26  C   UNL     1       4.234  -2.977  -3.653  0.00  0.00    +0.004 A 
ATOM     27  C   UNL     1       4.097  -2.322  -2.448  0.00  0.00    +0.047 A 
ATOM     28  C   UNL     1       2.857  -1.820  -2.071  0.00  0.00    +0.135 A 
ATOM     29  O   UNL     1       2.418  -1.148  -0.989  0.00  0.00    -0.458 OA
ENDBRANCH  20  21
ENDBRANCH   1  20
TORSDOF 5
