REMARK  Name = ZINC09816772
REMARK  9 active torsions:
REMARK  status: ('A' for Active; 'I' for Inactive)
REMARK    1  A    between atoms: C_1  and  C_2
REMARK    2  A    between atoms: N_7  and  S_9
REMARK    3  A    between atoms: S_9  and  C_12
REMARK    4  A    between atoms: C_15  and  C_18
REMARK    5  A    between atoms: C_24  and  C_26
REMARK    6  A    between atoms: C_30  and  S_32
REMARK    7  A    between atoms: S_32  and  C_33
REMARK    8  A    between atoms: C_33  and  C_34
REMARK    9  A    between atoms: C_33  and  C_35
REMARK                            x       y       z     vdW  Elec       q    Type
REMARK                         _______ _______ _______ _____ _____    ______ ____
ROOT
ATOM      1  C   UNL     1      -0.344   9.938   0.337  0.00  0.00    +0.252 C 
ATOM      2  O   UNL     1       0.871   9.963   0.315  0.00  0.00    -0.270 OA
ATOM      3  N   UNL     1      -0.994   8.757   0.312  0.00  0.00    -0.234 N 
ATOM      4  C   UNL     1      -0.277   7.574   0.260  0.00  0.00    +0.315 A 
ATOM      5  N   UNL     1       1.029   7.458   0.232  0.00  0.00    -0.092 NA
ATOM      6  N   UNL     1       1.347   6.212   0.186  0.00  0.00    -0.106 NA
ATOM      7  C   UNL     1       0.257   5.484   0.183  0.00  0.00    +0.250 A 
ATOM      8  O   UNL     1      -0.794   6.331   0.224  0.00  0.00    -0.405 OA
ATOM      9  H   UNL     1      -1.963   8.737   0.330  0.00  0.00    +0.160 HD
ENDROOT
BRANCH   1  13
ATOM     10  C   UNL     1      -2.541  13.569   0.496  0.00  0.00    +0.106 A 
ATOM     11  C   UNL     1      -1.158  13.601   0.470  0.00  0.00    +0.029 A 
ATOM     12  C   UNL     1      -0.438  12.426   0.419  0.00  0.00    +0.015 A 
ATOM     13  C   UNL     1      -1.108  11.201   0.393  0.00  0.00    +0.037 A 
ATOM     14  C   UNL     1      -2.504  11.176   0.412  0.00  0.00    +0.015 A 
ATOM     15  C   UNL     1      -3.212  12.359   0.470  0.00  0.00    +0.029 A 
BRANCH  10  16
ATOM     16  S   UNL     1      -3.453  15.075   0.562  0.00  0.00    +0.061 S 
ATOM     17  O   UNL     1      -4.718  14.760   1.127  0.00  0.00    -0.153 OA
ATOM     18  O   UNL     1      -2.587  16.049   1.129  0.00  0.00    -0.153 OA
BRANCH  16  24
ATOM     19  C   UNL     1      -5.784  14.104  -3.841  0.00  0.00    +0.009 C 
ATOM     20  C   UNL     1      -4.533  14.450  -3.030  0.00  0.00    +0.002 C 
ATOM     21  C   UNL     1      -3.662  15.425  -3.825  0.00  0.00    +0.006 C 
ATOM     22  C   UNL     1      -2.395  15.745  -3.029  0.00  0.00    +0.017 C 
ATOM     23  C   UNL     1      -2.786  16.417  -1.704  0.00  0.00    +0.109 C 
ATOM     24  N   UNL     1      -3.736  15.545  -1.000  0.00  0.00    -0.176 NA
ATOM     25  C   UNL     1      -4.946  15.103  -1.707  0.00  0.00    +0.112 C 
ENDBRANCH  16  24
ENDBRANCH  10  16
ENDBRANCH   1  13
BRANCH   7  26
ATOM     26  C   UNL     1       0.191   4.008   0.137  0.00  0.00    +0.040 A 
ATOM     27  C   UNL     1      -1.048   3.363   0.139  0.00  0.00    +0.013 A 
ATOM     28  C   UNL     1      -1.108   1.985   0.090  0.00  0.00    +0.002 A 
ATOM     29  C   UNL     1       0.055   1.238   0.051  0.00  0.00    +0.015 A 
ATOM     30  C   UNL     1       1.293   1.871   0.049  0.00  0.00    +0.009 A 
ATOM     31  C   UNL     1       1.364   3.256   0.092  0.00  0.00    +0.028 A 
BRANCH  30  32
ATOM     32  S   UNL     1       2.772   0.915  -0.010  0.00  0.00    -0.122 S 
BRANCH  32  33
ATOM     33  C   UNL     1       3.010   0.583  -1.777  0.00  0.00    +0.045 C 
ATOM     34  C   UNL     1       3.329   1.892  -2.503  0.00  0.00    +0.019 C 
ATOM     35  C   UNL     1       4.171  -0.397  -1.960  0.00  0.00    +0.019 C 
ENDBRANCH  32  33
ENDBRANCH  30  32
ENDBRANCH   7  26
TORSDOF 6
