REMARK  Name = ZINC60240521
REMARK  9 active torsions:
REMARK  status: ('A' for Active; 'I' for Inactive)
REMARK    1  A    between atoms: C_1  and  C_2
REMARK    2  A    between atoms: C_2  and  C_3
REMARK    3  A    between atoms: C_2  and  C_4
REMARK    4  A    between atoms: C_2  and  C_5
REMARK    5  A    between atoms: N_13  and  C_17
REMARK    6  A    between atoms: C_17  and  C_18
REMARK    7  A    between atoms: N_20  and  C_21
REMARK    8  A    between atoms: C_26  and  C_27
REMARK    9  A    between atoms: C_27  and  N_28
REMARK                            x       y       z     vdW  Elec       q    Type
REMARK                         _______ _______ _______ _____ _____    ______ ____
ROOT
ATOM      1  C   UNL     1       5.695  -3.532  -0.777  0.00  0.00    +0.214 C 
ENDROOT
BRANCH   1  10
ATOM      2  C   UNL     1       0.627  -0.210  -0.503  0.00  0.00    -0.005 C 
ATOM      3  C   UNL     1       0.679  -1.726  -0.704  0.00  0.00    +0.006 C 
ATOM      4  C   UNL     1       1.423  -2.042  -2.003  0.00  0.00    +0.035 C 
ATOM      5  C   UNL     1       2.836  -1.473  -1.935  0.00  0.00    +0.113 C 
ATOM      6  C   UNL     1       2.801   0.035  -1.710  0.00  0.00    +0.035 C 
ATOM      7  C   UNL     1       2.051   0.342  -0.411  0.00  0.00    +0.006 C 
ATOM      8  C   UNL     1       3.627  -2.152  -0.840  0.00  0.00    +0.247 C 
ATOM      9  O   UNL     1       3.381  -2.157   0.347  0.00  0.00    -0.273 OA
ATOM     10  N   UNL     1       4.663  -2.751  -1.463  0.00  0.00    -0.215 N 
ATOM     11  C   UNL     1       4.631  -2.543  -2.785  0.00  0.00    +0.310 C 
ATOM     12  O   UNL     1       5.459  -2.983  -3.558  0.00  0.00    -0.252 OA
ATOM     13  N   UNL     1       3.579  -1.792  -3.161  0.00  0.00    -0.285 N 
ATOM     14  H   UNL     1       3.355  -1.516  -4.064  0.00  0.00    +0.151 HD
BRANCH   2  16
ATOM     15  C   UNL     1      -0.180   1.624   0.990  0.00  0.00    +0.011 C 
ATOM     16  C   UNL     1      -0.127   0.108   0.790  0.00  0.00    -0.035 C 
ATOM     17  C   UNL     1       0.595  -0.538   1.974  0.00  0.00    +0.011 C 
ATOM     18  C   UNL     1      -1.551  -0.444   0.698  0.00  0.00    +0.011 C 
ENDBRANCH   2  16
ENDBRANCH   1  10
BRANCH   1  19
ATOM     19  C   UNL     1       5.269  -4.976  -0.707  0.00  0.00    +0.235 C 
ATOM     20  O   UNL     1       4.208  -5.319  -1.183  0.00  0.00    -0.274 OA
ATOM     21  N   UNL     1       6.068  -5.886  -0.115  0.00  0.00    -0.284 N 
ATOM     22  H   UNL     1       6.946  -5.627   0.203  0.00  0.00    +0.155 HD
BRANCH  21  23
ATOM     23  C   UNL     1       5.629  -7.206   0.040  0.00  0.00    +0.035 A 
ATOM     24  C   UNL     1       4.814  -7.786  -0.923  0.00  0.00    +0.023 A 
ATOM     25  C   UNL     1       4.383  -9.089  -0.767  0.00  0.00    +0.002 A 
ATOM     26  C   UNL     1       4.762  -9.816   0.346  0.00  0.00    +0.000 A 
ATOM     27  C   UNL     1       5.574  -9.241   1.307  0.00  0.00    +0.003 A 
ATOM     28  C   UNL     1       6.013  -7.941   1.154  0.00  0.00    -0.043 A 
BRANCH  28  29
ATOM     29  C   UNL     1       6.904  -7.317   2.198  0.00  0.00    -0.041 C 
BRANCH  29  30
ATOM     30  N   UNL     1       6.107  -6.427   3.052  0.00  0.00    +0.383 N 
ATOM     31  C   UNL     1       7.005  -5.682   3.937  0.00  0.00    -0.068 C 
ATOM     32  C   UNL     1       6.256  -4.498   4.562  0.00  0.00    +0.050 C 
ATOM     33  S   UNL     1       4.888  -5.156   5.567  0.00  0.00    -0.164 S 
ATOM     34  C   UNL     1       4.075  -6.316   4.424  0.00  0.00    +0.050 C 
ATOM     35  C   UNL     1       5.150  -7.227   3.820  0.00  0.00    -0.068 C 
ATOM     36  H   UNL     1       5.602  -5.775   2.470  0.00  0.00    -0.081 HD
ENDBRANCH  29  30
ENDBRANCH  28  29
ENDBRANCH  21  23
ENDBRANCH   1  19
TORSDOF 6
