REMARK  Name = ZINC65387745
REMARK  8 active torsions:
REMARK  status: ('A' for Active; 'I' for Inactive)
REMARK    1  A    between atoms: C_1  and  C_2
REMARK    2  A    between atoms: C_2  and  N_3
REMARK    3  A    between atoms: N_3  and  C_4
REMARK    4  A    between atoms: N_3  and  C_13
REMARK    5  A    between atoms: C_4  and  C_5
REMARK    6  A    between atoms: C_6  and  C_12
REMARK    7  A    between atoms: N_8  and  C_11
REMARK    8  A    between atoms: C_13  and  C_14
REMARK                            x       y       z     vdW  Elec       q    Type
REMARK                         _______ _______ _______ _____ _____    ______ ____
ROOT
ATOM      1  N   UNL     1      -1.445  -0.913  -0.108  0.00  0.00    +0.382 N 
ATOM      2  H   UNL     1      -1.824  -0.293   0.593  0.00  0.00    -0.081 HD
ENDROOT
BRANCH   1   4
ATOM      3  C   UNL     1       0.764  -0.109   0.577  0.00  0.00    -0.017 C 
ATOM      4  C   UNL     1      -0.173  -0.372  -0.604  0.00  0.00    -0.082 C 
ENDBRANCH   1   4
BRANCH   1   5
ATOM      5  C   UNL     1      -2.395  -1.029  -1.223  0.00  0.00    -0.038 C 
BRANCH   5   6
ATOM      6  C   UNL     1      -2.744   0.346  -1.731  0.00  0.00    -0.005 A 
ATOM      7  C   UNL     1      -3.706   1.204  -1.189  0.00  0.00    +0.063 A 
ATOM      8  N   UNL     1      -3.721   2.303  -1.900  0.00  0.00    -0.175 NA
ATOM      9  N   UNL     1      -2.767   2.180  -2.918  0.00  0.00    -0.256 N 
ATOM     10  C   UNL     1      -2.176   0.973  -2.790  0.00  0.00    +0.128 A 
ATOM     11 CL   UNL     1      -0.919   0.335  -3.803  0.00  0.00    -0.062 Cl
ATOM     12  C   UNL     1      -2.460   3.186  -3.938  0.00  0.00    +0.174 C 
ATOM     13  C   UNL     1      -4.577   0.914   0.006  0.00  0.00    +0.068 C 
ENDBRANCH   5   6
ENDBRANCH   1   5
BRANCH   1  14
ATOM     14  C   UNL     1      -1.218  -2.239   0.481  0.00  0.00    -0.075 C 
BRANCH  14  15
ATOM     15  C   UNL     1      -2.514  -2.743   1.119  0.00  0.00    -0.023 C 
ATOM     16  C   UNL     1      -2.897  -1.831   2.289  0.00  0.00    +0.030 C 
ATOM     17  C   UNL     1      -4.150  -2.388   2.970  0.00  0.00    +0.160 C 
ATOM     18  O   UNL     1      -3.900  -3.726   3.405  0.00  0.00    -0.380 OA
ATOM     19  C   UNL     1      -3.583  -4.634   2.348  0.00  0.00    +0.160 C 
ATOM     20  C   UNL     1      -2.307  -4.167   1.643  0.00  0.00    +0.030 C 
ENDBRANCH  14  15
ENDBRANCH   1  14
TORSDOF 5
