REMARK  Name = ZINC59844918
REMARK  8 active torsions:
REMARK  status: ('A' for Active; 'I' for Inactive)
REMARK    1  A    between atoms: C_1  and  C_2
REMARK    2  A    between atoms: C_2  and  C_4
REMARK    3  A    between atoms: C_2  and  S_14
REMARK    4  A    between atoms: N_6  and  N_7
REMARK    5  A    between atoms: C_8  and  C_10
REMARK    6  A    between atoms: S_14  and  C_15
REMARK    7  A    between atoms: C_18  and  C_26
REMARK    8  A    between atoms: N_19  and  C_20
REMARK                            x       y       z     vdW  Elec       q    Type
REMARK                         _______ _______ _______ _____ _____    ______ ____
ROOT
ATOM      1  C   UNL     1      -2.385  -0.100   1.551  0.00  0.00    +0.197 A 
ATOM      2  N   UNL     1      -1.655   0.452   2.494  0.00  0.00    -0.122 NA
ATOM      3  N   UNL     1      -2.378   0.697   3.528  0.00  0.00    -0.128 NA
ATOM      4  C   UNL     1      -3.615   0.317   3.311  0.00  0.00    +0.170 A 
ATOM      5  N   UNL     1      -3.661  -0.201   2.035  0.00  0.00    -0.270 N 
ENDROOT
BRANCH   4   6
ATOM      6  C   UNL     1      -4.747   0.428   4.255  0.00  0.00    +0.034 A 
ATOM      7  C   UNL     1      -5.581  -0.668   4.482  0.00  0.00    +0.013 A 
ATOM      8  C   UNL     1      -6.636  -0.558   5.365  0.00  0.00    +0.001 A 
ATOM      9  C   UNL     1      -6.869   0.637   6.024  0.00  0.00    +0.001 A 
ATOM     10  C   UNL     1      -6.047   1.727   5.803  0.00  0.00    +0.016 A 
ATOM     11  C   UNL     1      -4.984   1.629   4.928  0.00  0.00    +0.029 A 
ATOM     12 BR   UNL     1      -3.856   3.118   4.634  0.00  0.00    -0.050 Br
ENDBRANCH   4   6
BRANCH   5  13
ATOM     13  C   UNL     1      -4.780  -0.725   1.372  0.00  0.00    +0.051 A 
ATOM     14  C   UNL     1      -5.833   0.108   1.020  0.00  0.00    +0.026 A 
ATOM     15  C   UNL     1      -6.933  -0.411   0.366  0.00  0.00    +0.002 A 
ATOM     16  C   UNL     1      -6.987  -1.760   0.063  0.00  0.00    +0.000 A 
ATOM     17  C   UNL     1      -5.940  -2.592   0.413  0.00  0.00    +0.002 A 
ATOM     18  C   UNL     1      -4.834  -2.078   1.062  0.00  0.00    +0.026 A 
ENDBRANCH   5  13
BRANCH   1  19
ATOM     19  S   UNL     1      -1.827  -0.607  -0.041  0.00  0.00    -0.073 S 
BRANCH  19  21
ATOM     20  C   UNL     1       0.111   1.320   0.056  0.00  0.00    +0.029 C 
ATOM     21  C   UNL     1      -0.060  -0.197  -0.038  0.00  0.00    +0.138 C 
BRANCH  21  22
ATOM     22  C   UNL     1       0.573  -0.696  -1.312  0.00  0.00    +0.242 C 
ATOM     23  O   UNL     1      -0.104  -0.848  -2.307  0.00  0.00    -0.273 OA
ATOM     24  N   UNL     1       1.892  -0.973  -1.345  0.00  0.00    -0.233 N 
ATOM     25  H   UNL     1       2.433  -0.851  -0.549  0.00  0.00    +0.173 HD
BRANCH  24  26
ATOM     26  N   UNL     1       2.481  -1.436  -2.529  0.00  0.00    -0.234 N 
ATOM     27  C   UNL     1       3.799  -1.713  -2.562  0.00  0.00    +0.232 C 
ATOM     28  O   UNL     1       4.476  -1.561  -1.567  0.00  0.00    -0.274 OA
ATOM     29  H   UNL     1       1.939  -1.558  -3.324  0.00  0.00    +0.173 HD
BRANCH  27  30
ATOM     30  C   UNL     1       4.433  -2.212  -3.835  0.00  0.00    +0.076 C 
ATOM     31  C   UNL     1       4.795  -1.090  -4.823  0.00  0.00    +0.013 C 
ATOM     32  C   UNL     1       6.157  -1.013  -4.113  0.00  0.00    +0.001 C 
ATOM     33  C   UNL     1       5.941  -2.481  -3.708  0.00  0.00    +0.013 C 
ENDBRANCH  27  30
ENDBRANCH  24  26
ENDBRANCH  21  22
ENDBRANCH  19  21
ENDBRANCH   1  19
TORSDOF 7
