REMARK  Name = ZINC02407377
REMARK  8 active torsions:
REMARK  status: ('A' for Active; 'I' for Inactive)
REMARK    1  A    between atoms: C_1  and  C_2
REMARK    2  A    between atoms: C_2  and  C_31
REMARK    3  A    between atoms: C_6  and  C_24
REMARK    4  A    between atoms: C_13  and  S_19
REMARK    5  A    between atoms: C_15  and  S_17
REMARK    6  A    between atoms: S_17  and  C_18
REMARK    7  A    between atoms: S_19  and  C_20
REMARK    8  A    between atoms: C_20  and  C_21
REMARK                            x       y       z     vdW  Elec       q    Type
REMARK                         _______ _______ _______ _____ _____    ______ ____
ROOT
ATOM      1  C   UNL     1       4.378  -4.039   1.837  0.00  0.00    +0.041 C 
ATOM      2  C   UNL     1       4.530  -3.739   0.345  0.00  0.00    +0.068 C 
ATOM      3  C   UNL     1       3.572  -2.615  -0.055  0.00  0.00    +0.070 C 
ATOM      4  C   UNL     1       2.156  -3.124  -0.033  0.00  0.00    -0.025 A 
ATOM      5  C   UNL     1       1.868  -4.452  -0.034  0.00  0.00    +0.011 A 
ATOM      6  C   UNL     1       0.530  -4.878  -0.026  0.00  0.00    +0.113 A 
ATOM      7  N   UNL     1      -0.457  -3.988  -0.017  0.00  0.00    -0.236 NA
ATOM      8  C   UNL     1      -0.209  -2.697  -0.011  0.00  0.00    +0.112 A 
ATOM      9  C   UNL     1       1.100  -2.180  -0.019  0.00  0.00    +0.037 A 
ATOM     10  C   UNL     1       1.211  -0.710  -0.013  0.00  0.00    +0.093 A 
ATOM     11  C   UNL     1       0.002  -0.004   0.002  0.00  0.00    +0.072 A 
ATOM     12  S   UNL     1      -1.250  -1.258   0.005  0.00  0.00    -0.064 S 
ATOM     13  C   UNL     1      -0.017   1.385   0.010  0.00  0.00    +0.116 A 
ATOM     14  N   UNL     1       1.147   2.035   0.002  0.00  0.00    -0.214 NA
ATOM     15  C   UNL     1       2.286   1.355  -0.012  0.00  0.00    +0.190 A 
ATOM     16  N   UNL     1       2.338   0.039  -0.020  0.00  0.00    -0.221 NA
ATOM     17  C   UNL     1       2.958  -5.494  -0.038  0.00  0.00    +0.198 C 
ATOM     18  O   UNL     1       4.201  -4.906  -0.418  0.00  0.00    -0.369 OA
ATOM     19  C   UNL     1       5.971  -3.319   0.048  0.00  0.00    +0.041 C 
ENDROOT
BRANCH   6  20
ATOM     20  C   UNL     1       0.218  -6.320  -0.029  0.00  0.00    +0.153 A 
ATOM     21  C   UNL     1      -0.828  -6.912   0.607  0.00  0.00    +0.051 A 
ATOM     22  C   UNL     1      -0.741  -8.291   0.335  0.00  0.00    +0.042 A 
ATOM     23  C   UNL     1       0.344  -8.472  -0.446  0.00  0.00    +0.196 A 
ATOM     24  O   UNL     1       0.917  -7.279  -0.668  0.00  0.00    -0.461 OA
ENDBRANCH   6  20
BRANCH  15  25
ATOM     25  S   UNL     1       3.801   2.255  -0.022  0.00  0.00    -0.089 S 
ATOM     26  C   UNL     1       3.161   3.948  -0.007  0.00  0.00    +0.093 C 
ENDBRANCH  15  25
BRANCH  13  27
ATOM     27  S   UNL     1      -1.542   2.266   0.022  0.00  0.00    -0.095 S 
BRANCH  27  28
ATOM     28  C   UNL     1      -0.923   3.966   0.028  0.00  0.00    +0.171 C 
BRANCH  28  29
ATOM     29  C   UNL     1      -2.086   4.925   0.039  0.00  0.00    +0.221 C 
ATOM     30  O   UNL     1      -3.222   4.500   0.042  0.00  0.00    -0.275 OA
ATOM     31  N   UNL     1      -1.864   6.254   0.045  0.00  0.00    -0.329 N 
ATOM     32  H   UNL     1      -0.956   6.594   0.043  0.00  0.00    +0.145 HD
ATOM     33  H   UNL     1      -2.613   6.871   0.052  0.00  0.00    +0.145 HD
ENDBRANCH  28  29
ENDBRANCH  27  28
ENDBRANCH  13  27
TORSDOF 5
