REMARK  Name = ZINC15028756
REMARK  13 active torsions:
REMARK  status: ('A' for Active; 'I' for Inactive)
REMARK    1  A    between atoms: C_1  and  C_2
REMARK    2  A    between atoms: C_3  and  C_28
REMARK    3  A    between atoms: N_4  and  C_22
REMARK    4  A    between atoms: C_5  and  N_9
REMARK    5  A    between atoms: C_6  and  C_7
REMARK    6  A    between atoms: C_10  and  C_12
REMARK    7  A    between atoms: C_12  and  N_13
REMARK    8  A    between atoms: N_13  and  C_14
REMARK    9  A    between atoms: N_13  and  C_15
REMARK   10  A    between atoms: C_15  and  C_16
REMARK   11  A    between atoms: N_18  and  C_19
REMARK   12  A    between atoms: C_19  and  C_20
REMARK   13  A    between atoms: C_19  and  C_21
REMARK                            x       y       z     vdW  Elec       q    Type
REMARK                         _______ _______ _______ _____ _____    ______ ____
ROOT
ATOM      1  N   UNL     1      -1.595   4.582  -0.213  0.00  0.00    -0.272 N 
ATOM      2  C   UNL     1      -1.214   5.719  -0.829  0.00  0.00    +0.202 C 
ATOM      3  O   UNL     1      -0.048   5.894  -1.113  0.00  0.00    -0.278 OA
ATOM      4  H   UNL     1      -2.656   4.414   0.025  0.00  0.00    +0.156 HD
ENDROOT
BRANCH   1   9
ATOM      5  C   UNL     1       2.610   2.282   1.390  0.00  0.00    +0.047 C 
ATOM      6  C   UNL     1       1.234   2.556   0.838  0.00  0.00    -0.011 A 
ATOM      7  C   UNL     1       0.344   1.643   0.417  0.00  0.00    +0.022 A 
ATOM      8  N   UNL     1      -0.787   2.281  -0.019  0.00  0.00    -0.329 N 
ATOM      9  C   UNL     1      -0.649   3.625   0.123  0.00  0.00    +0.123 A 
ATOM     10  C   UNL     1       0.608   3.871   0.656  0.00  0.00    +0.095 A 
ATOM     11  C   UNL     1       0.557   0.151   0.418  0.00  0.00    +0.064 C 
BRANCH   8  12
ATOM     12  C   UNL     1      -1.974   1.612  -0.557  0.00  0.00    +0.089 C 
ATOM     13  C   UNL     1      -2.277   2.156  -1.954  0.00  0.00    +0.025 C 
ATOM     14  C   UNL     1      -3.517   1.457  -2.516  0.00  0.00    +0.002 C 
ATOM     15  C   UNL     1      -4.711   1.719  -1.596  0.00  0.00    +0.000 C 
ATOM     16  C   UNL     1      -4.407   1.175  -0.199  0.00  0.00    +0.002 C 
ATOM     17  C   UNL     1      -3.168   1.874   0.363  0.00  0.00    +0.025 C 
ENDBRANCH   8  12
BRANCH  10  18
ATOM     18  C   UNL     1       1.179   5.147   0.967  0.00  0.00    +0.103 C 
ATOM     19  N   UNL     1       1.631   6.160   1.213  0.00  0.00    -0.191 NA
ENDBRANCH  10  18
ENDBRANCH   1   9
BRANCH   2  20
ATOM     20  C   UNL     1      -2.238   6.772  -1.166  0.00  0.00    +0.019 C 
BRANCH  20  21
ATOM     21  N   UNL     1      -1.594   7.859  -1.916  0.00  0.00    +0.389 N 
ATOM     22  C   UNL     1      -1.190   7.407  -3.255  0.00  0.00    -0.095 C 
ATOM     23  H   UNL     1      -0.685   8.154  -1.371  0.00  0.00    -0.081 HD
BRANCH  21  24
ATOM     24  C   UNL     1      -2.472   9.034  -2.000  0.00  0.00    +0.019 C 
BRANCH  24  25
ATOM     25  C   UNL     1      -1.697  10.201  -2.554  0.00  0.00    +0.197 C 
ATOM     26  O   UNL     1      -0.528  10.068  -2.850  0.00  0.00    -0.278 OA
ATOM     27  N   UNL     1      -2.302  11.394  -2.720  0.00  0.00    -0.315 N 
ATOM     28  H   UNL     1      -3.362  11.515  -2.451  0.00  0.00    +0.149 HD
BRANCH  27  29
ATOM     29  C   UNL     1      -1.549  12.529  -3.259  0.00  0.00    +0.067 C 
ATOM     30  C   UNL     1      -2.515  13.514  -3.920  0.00  0.00    +0.027 C 
ATOM     31  C   UNL     1      -0.803  13.232  -2.122  0.00  0.00    +0.027 C 
ENDBRANCH  27  29
ENDBRANCH  24  25
ENDBRANCH  21  24
ENDBRANCH  20  21
ENDBRANCH   2  20
TORSDOF 8
