REMARK  Name = ZINC25111348
REMARK  5 active torsions:
REMARK  status: ('A' for Active; 'I' for Inactive)
REMARK    1  A    between atoms: C_1  and  N_2
REMARK    2  A    between atoms: N_7  and  C_10
REMARK    3  A    between atoms: N_11  and  C_15
REMARK    4  A    between atoms: C_15  and  C_16
REMARK    5  A    between atoms: C_22  and  C_24
REMARK                            x       y       z     vdW  Elec       q    Type
REMARK                         _______ _______ _______ _____ _____    ______ ____
ROOT
ATOM      1  C   UNL     1       3.299   3.079   2.201  0.00  0.00    +0.236 C 
ATOM      2  O   UNL     1       2.301   3.468   2.770  0.00  0.00    -0.274 OA
ATOM      3  N   UNL     1       3.435   3.269   0.874  0.00  0.00    -0.293 N 
ATOM      4  C   UNL     1       4.590   2.848   0.059  0.00  0.00    +0.108 C 
ATOM      5  C   UNL     1       4.573   3.791  -1.169  0.00  0.00    +0.021 C 
ATOM      6  C   UNL     1       3.051   3.942  -1.426  0.00  0.00    +0.029 C 
ATOM      7  C   UNL     1       2.457   3.931  -0.002  0.00  0.00    +0.106 C 
ENDROOT
BRANCH   7   8
ATOM      8  C   UNL     1       1.160   3.165   0.007  0.00  0.00    -0.023 A 
ATOM      9  C   UNL     1       1.175   1.782   0.000  0.00  0.00    +0.009 A 
ATOM     10  C   UNL     1      -0.013   1.076   0.008  0.00  0.00    +0.050 A 
ATOM     11  C   UNL     1      -1.223   1.752   0.017  0.00  0.00    +0.162 A 
ATOM     12  C   UNL     1      -1.239   3.142   0.033  0.00  0.00    +0.162 A 
ATOM     13  C   UNL     1      -0.043   3.845   0.024  0.00  0.00    +0.055 A 
ATOM     14  O   UNL     1      -2.416   3.825   0.057  0.00  0.00    -0.485 OA
ATOM     15  C   UNL     1      -3.590   3.095  -0.328  0.00  0.00    +0.270 C 
ATOM     16  C   UNL     1      -3.570   1.746   0.404  0.00  0.00    +0.270 C 
ATOM     17  O   UNL     1      -2.385   1.043   0.014  0.00  0.00    -0.485 OA
ENDBRANCH   7   8
BRANCH   1  18
ATOM     18  C   UNL     1       4.386   2.381   2.978  0.00  0.00    +0.220 C 
BRANCH  18  29
ATOM     19  C   UNL     1       3.273   2.971   8.961  0.00  0.00    +0.155 C 
ATOM     20  N   UNL     1       3.848   3.473   7.710  0.00  0.00    -0.280 N 
ATOM     21  C   UNL     1       3.722   2.733   6.545  0.00  0.00    +0.169 A 
ATOM     22  C   UNL     1       4.281   3.228   5.373  0.00  0.00    +0.153 A 
ATOM     23  C   UNL     1       4.949   4.470   5.401  0.00  0.00    +0.282 A 
ATOM     24  O   UNL     1       5.443   4.926   4.386  0.00  0.00    -0.265 OA
ATOM     25  N   UNL     1       5.039   5.144   6.567  0.00  0.00    -0.262 N 
ATOM     26  C   UNL     1       4.498   4.651   7.695  0.00  0.00    +0.333 A 
ATOM     27  O   UNL     1       4.599   5.287   8.727  0.00  0.00    -0.246 OA
ATOM     28  C   UNL     1       5.736   6.432   6.604  0.00  0.00    +0.157 C 
ATOM     29  N   UNL     1       4.002   2.299   4.389  0.00  0.00    -0.300 N 
ATOM     30  C   UNL     1       3.313   1.299   4.976  0.00  0.00    +0.206 A 
ATOM     31  N   UNL     1       3.151   1.563   6.249  0.00  0.00    -0.199 NA
ATOM     32 CL   UNL     1       2.727  -0.121   4.167  0.00  0.00    -0.043 Cl
ENDBRANCH  18  29
ENDBRANCH   1  18
TORSDOF 3
