REMARK  Name = ZINC63861926
REMARK  9 active torsions:
REMARK  status: ('A' for Active; 'I' for Inactive)
REMARK    1  A    between atoms: C_1  and  C_2
REMARK    2  A    between atoms: C_2  and  O_3
REMARK    3  A    between atoms: O_3  and  C_4
REMARK    4  A    between atoms: C_4  and  C_6
REMARK    5  A    between atoms: C_14  and  N_16
REMARK    6  A    between atoms: C_17  and  C_19
REMARK    7  A    between atoms: C_19  and  S_20
REMARK    8  A    between atoms: S_20  and  C_21
REMARK    9  A    between atoms: C_24  and  C_26
REMARK                            x       y       z     vdW  Elec       q    Type
REMARK                         _______ _______ _______ _____ _____    ______ ____
ROOT
ATOM      1  N   UNL     1       3.352  -0.859   3.043  0.00  0.00    -0.299 N 
ATOM      2  C   UNL     1       3.583   0.456   3.228  0.00  0.00    +0.224 C 
ATOM      3  O   UNL     1       2.757   1.144   3.790  0.00  0.00    -0.275 OA
ATOM      4  H   UNL     1       4.013  -1.409   2.593  0.00  0.00    +0.150 HD
ENDROOT
BRANCH   1  12
ATOM      5  C   UNL     1       1.499  -2.372   2.471  0.00  0.00    +0.067 C 
ATOM      6  C   UNL     1       1.615  -3.678   2.621  0.00  0.00    -0.044 C 
ATOM      7  C   UNL     1       1.047  -4.969   2.034  0.00  0.00    +0.032 C 
ATOM      8  C   UNL     1       1.245  -6.070   3.098  0.00  0.00    +0.006 C 
ATOM      9  C   UNL     1       1.574  -5.284   4.402  0.00  0.00    +0.019 C 
ATOM     10  C   UNL     1       2.441  -4.152   3.821  0.00  0.00    +0.075 C 
ATOM     11  S   UNL     1       2.416  -2.662   4.888  0.00  0.00    -0.126 S 
ATOM     12  C   UNL     1       2.103  -1.457   3.520  0.00  0.00    +0.169 C 
BRANCH   5  13
ATOM     13  C   UNL     1       0.801  -1.813   1.304  0.00  0.00    +0.338 C 
ATOM     14  O   UNL     1       0.321  -2.556   0.470  0.00  0.00    -0.245 OA
BRANCH  13  15
ATOM     15  O   UNL     1       0.693  -0.477   1.160  0.00  0.00    -0.462 OA
BRANCH  15  17
ATOM     16  C   UNL     1      -0.019   1.526   0.010  0.00  0.00    +0.048 C 
ATOM     17  C   UNL     1       0.002  -0.004   0.002  0.00  0.00    +0.229 C 
ENDBRANCH  15  17
ENDBRANCH  13  15
ENDBRANCH   5  13
ENDBRANCH   1  12
BRANCH   2  18
ATOM     18  C   UNL     1       4.868   1.072   2.738  0.00  0.00    +0.174 C 
BRANCH  18  19
ATOM     19  S   UNL     1       4.880   2.842   3.134  0.00  0.00    -0.056 S 
BRANCH  19  20
ATOM     20  C   UNL     1       6.425   3.409   2.505  0.00  0.00    +0.278 A 
ATOM     21  N   UNL     1       7.335   2.674   1.885  0.00  0.00    -0.101 NA
ATOM     22  N   UNL     1       8.337   3.415   1.564  0.00  0.00    -0.107 NA
ATOM     23  C   UNL     1       8.108   4.655   1.966  0.00  0.00    +0.248 A 
ATOM     24  O   UNL     1       6.892   4.669   2.562  0.00  0.00    -0.411 OA
BRANCH  23  25
ATOM     25  C   UNL     1       8.965   5.753   1.800  0.00  0.00    +0.044 C 
ATOM     26  C   UNL     1      10.214   5.762   1.179  0.00  0.00    +0.008 A 
ATOM     27  C   UNL     1      10.977   4.750   0.558  0.00  0.00    +0.010 A 
ATOM     28  C   UNL     1      12.189   5.051   0.025  0.00  0.00    +0.001 A 
ATOM     29  C   UNL     1      12.708   6.347   0.075  0.00  0.00    +0.002 A 
ATOM     30  C   UNL     1      12.030   7.368   0.655  0.00  0.00    +0.026 A 
ATOM     31  C   UNL     1      10.756   7.129   1.233  0.00  0.00    +0.043 A 
ATOM     32  N   UNL     1       9.912   7.936   1.845  0.00  0.00    -0.380 N 
ATOM     33  C   UNL     1       8.725   7.177   2.251  0.00  0.00    +0.154 C 
ATOM     34  H   UNL     1      10.052   8.883   2.001  0.00  0.00    +0.160 HD
ENDBRANCH  23  25
ENDBRANCH  19  20
ENDBRANCH  18  19
ENDBRANCH   2  18
TORSDOF 8
