REMARK  Name = ZINC34899992
REMARK  8 active torsions:
REMARK  status: ('A' for Active; 'I' for Inactive)
REMARK    1  A    between atoms: C_1  and  O_2
REMARK    2  A    between atoms: O_2  and  C_3
REMARK    3  A    between atoms: C_6  and  C_9
REMARK    4  A    between atoms: N_11  and  C_12
REMARK    5  A    between atoms: C_18  and  N_20
REMARK    6  A    between atoms: C_21  and  C_23
REMARK    7  A    between atoms: C_30  and  C_32
REMARK    8  A    between atoms: C_35  and  N_38
REMARK                            x       y       z     vdW  Elec       q    Type
REMARK                         _______ _______ _______ _____ _____    ______ ____
ROOT
ATOM      1  N   UNL     1       1.250  -5.517   5.601  0.00  0.00    -0.310 N 
ATOM      2  C   UNL     1       0.574  -6.621   5.975  0.00  0.00    +0.218 C 
ATOM      3  O   UNL     1       1.152  -7.683   6.073  0.00  0.00    -0.275 OA
ATOM      4  H   UNL     1       0.788  -4.668   5.524  0.00  0.00    +0.149 HD
ENDROOT
BRANCH   2   5
ATOM      5  C   UNL     1      -0.901  -6.537   6.272  0.00  0.00    +0.092 C 
ATOM      6  C   UNL     1      -1.422  -7.919   6.672  0.00  0.00    +0.016 C 
ATOM      7  C   UNL     1      -2.926  -7.842   6.941  0.00  0.00    +0.020 C 
ATOM      8  C   UNL     1      -3.184  -6.874   8.101  0.00  0.00    +0.108 C 
ATOM      9  N   UNL     1      -2.560  -5.582   7.786  0.00  0.00    -0.297 N 
ATOM     10  C   UNL     1      -1.136  -5.554   7.423  0.00  0.00    +0.120 C 
ATOM     11  C   UNL     1      -3.279  -4.443   7.828  0.00  0.00    +0.247 C 
ATOM     12  O   UNL     1      -2.736  -3.373   7.633  0.00  0.00    -0.270 OA
BRANCH  11  13
ATOM     13  C   UNL     1      -4.729  -4.495   8.112  0.00  0.00    +0.037 A 
ATOM     14  C   UNL     1      -5.202  -5.203   9.218  0.00  0.00    +0.015 A 
ATOM     15  C   UNL     1      -6.556  -5.247   9.478  0.00  0.00    +0.033 A 
ATOM     16  C   UNL     1      -7.445  -4.593   8.644  0.00  0.00    +0.126 A 
ATOM     17  C   UNL     1      -6.983  -3.890   7.545  0.00  0.00    +0.033 A 
ATOM     18  C   UNL     1      -5.631  -3.833   7.278  0.00  0.00    +0.015 A 
BRANCH  16  19
ATOM     19  N   UNL     1      -8.897  -4.645   8.928  0.00  0.00    +0.056 N 
ATOM     20  O   UNL     1      -9.304  -5.258   9.887  0.00  0.00    -0.126 OA
ATOM     21  O   UNL     1      -9.676  -4.074   8.201  0.00  0.00    -0.126 OA
ENDBRANCH  16  19
ENDBRANCH  11  13
ENDBRANCH   2   5
BRANCH   1  27
ATOM     22  C   UNL     1       3.327  -4.227   5.527  0.00  0.00    +0.093 C 
ATOM     23  C   UNL     1       4.824  -4.312   5.226  0.00  0.00    +0.024 C 
ATOM     24  C   UNL     1       5.029  -4.750   3.774  0.00  0.00    +0.002 C 
ATOM     25  C   UNL     1       4.386  -6.122   3.560  0.00  0.00    +0.002 C 
ATOM     26  C   UNL     1       2.889  -6.037   3.861  0.00  0.00    +0.024 C 
ATOM     27  C   UNL     1       2.684  -5.599   5.313  0.00  0.00    +0.093 C 
BRANCH  22  30
ATOM     28  C   UNL     1       2.711  -1.941   4.950  0.00  0.00    +0.244 C 
ATOM     29  O   UNL     1       3.235  -1.570   5.982  0.00  0.00    -0.270 OA
ATOM     30  N   UNL     1       2.703  -3.250   4.630  0.00  0.00    -0.307 N 
ATOM     31  H   UNL     1       2.285  -3.546   3.807  0.00  0.00    +0.149 HD
BRANCH  28  35
ATOM     32  C   UNL     1       0.905   0.889   2.349  0.00  0.00    +0.120 A 
ATOM     33  C   UNL     1       1.503   1.315   3.530  0.00  0.00    +0.046 A 
ATOM     34  C   UNL     1       2.089   0.401   4.376  0.00  0.00    +0.016 A 
ATOM     35  C   UNL     1       2.083  -0.957   4.046  0.00  0.00    +0.037 A 
ATOM     36  C   UNL     1       1.480  -1.381   2.859  0.00  0.00    +0.016 A 
ATOM     37  C   UNL     1       0.891  -0.461   2.021  0.00  0.00    +0.046 A 
BRANCH  32  39
ATOM     38  C   UNL     1       0.378   3.165   1.917  0.00  0.00    +0.277 C 
ATOM     39  O   UNL     1       0.328   1.794   1.519  0.00  0.00    -0.495 OA
ENDBRANCH  32  39
ENDBRANCH  28  35
ENDBRANCH  22  30
ENDBRANCH   1  27
TORSDOF 7
