REMARK  Name = ZINC00282973
REMARK  4 active torsions:
REMARK  status: ('A' for Active; 'I' for Inactive)
REMARK    1  A    between atoms: C_9  and  C_12
REMARK    2  A    between atoms: C_12  and  N_13
REMARK    3  A    between atoms: C_14  and  C_16
REMARK    4  A    between atoms: C_20  and  N_22
REMARK                            x       y       z     vdW  Elec       q    Type
REMARK                         _______ _______ _______ _____ _____    ______ ____
ROOT
ATOM      1  N   UNL     1      -2.407  -4.213   0.006  0.00  0.00    -0.308 N 
ATOM      2  C   UNL     1      -2.431  -2.865   0.012  0.00  0.00    +0.244 C 
ATOM      3  O   UNL     1      -3.494  -2.276   0.025  0.00  0.00    -0.270 OA
ATOM      4  H   UNL     1      -1.559  -4.683  -0.005  0.00  0.00    +0.149 HD
ENDROOT
BRANCH   2   5
ATOM      5  C   UNL     1      -1.163  -2.104   0.003  0.00  0.00    +0.039 A 
ATOM      6  C   UNL     1       0.059  -2.778  -0.012  0.00  0.00    +0.013 A 
ATOM      7  C   UNL     1       1.238  -2.061  -0.020  0.00  0.00    +0.003 A 
ATOM      8  C   UNL     1       1.210  -0.678  -0.013  0.00  0.00    +0.033 A 
ATOM      9  C   UNL     1       0.002  -0.004   0.002  0.00  0.00    +0.127 A 
ATOM     10  C   UNL     1      -1.184  -0.709   0.015  0.00  0.00    +0.045 A 
BRANCH   9  11
ATOM     11  N   UNL     1      -0.018   1.476   0.010  0.00  0.00    +0.056 N 
ATOM     12  O   UNL     1       1.028   2.099   0.004  0.00  0.00    -0.126 OA
ATOM     13  O   UNL     1      -1.081   2.071   0.018  0.00  0.00    -0.126 OA
ENDBRANCH   9  11
ENDBRANCH   2   5
BRANCH   1  14
ATOM     14  C   UNL     1      -3.663  -4.968   0.015  0.00  0.00    +0.152 C 
BRANCH  14  23
ATOM     15  C   UNL     1      -2.437 -10.861   2.097  0.00  0.00    +0.004 A 
ATOM     16  C   UNL     1      -1.610  -9.955   2.735  0.00  0.00    +0.004 A 
ATOM     17  C   UNL     1      -1.697  -8.608   2.438  0.00  0.00    +0.049 A 
ATOM     18  C   UNL     1      -2.615  -8.161   1.498  0.00  0.00    +0.163 A 
ATOM     19  C   UNL     1      -3.444  -9.072   0.855  0.00  0.00    +0.162 A 
ATOM     20  C   UNL     1      -3.353 -10.422   1.159  0.00  0.00    +0.049 A 
ATOM     21  O   UNL     1      -4.346  -8.657  -0.076  0.00  0.00    -0.485 OA
ATOM     22  C   UNL     1      -4.667  -7.261  -0.082  0.00  0.00    +0.275 C 
ATOM     23  C   UNL     1      -3.357  -6.467   0.004  0.00  0.00    +0.228 C 
ATOM     24  O   UNL     1      -2.691  -6.832   1.218  0.00  0.00    -0.480 OA
ENDBRANCH  14  23
ENDBRANCH   1  14
TORSDOF 4
