REMARK  Name = ZINC64352909
REMARK  6 active torsions:
REMARK  status: ('A' for Active; 'I' for Inactive)
REMARK    1  A    between atoms: C_1  and  C_2
REMARK    2  A    between atoms: C_2  and  C_4
REMARK    3  A    between atoms: C_2  and  S_18
REMARK    4  A    between atoms: N_10  and  C_11
REMARK    5  A    between atoms: S_18  and  C_19
REMARK    6  A    between atoms: C_23  and  C_25
REMARK                            x       y       z     vdW  Elec       q    Type
REMARK                         _______ _______ _______ _____ _____    ______ ____
ROOT
ATOM      1  C   UNL     1      -0.401   1.826   0.113  0.00  0.00    +0.027 C 
ATOM      2  C   UNL     1      -0.153   0.328  -0.069  0.00  0.00    +0.116 C 
ENDROOT
BRANCH   2   3
ATOM      3  C   UNL     1      -1.466  -0.410  -0.012  0.00  0.00    +0.149 A 
ATOM      4  N   UNL     1      -2.074  -0.585   1.149  0.00  0.00    -0.198 NA
ATOM      5  C   UNL     1      -3.234  -1.235   1.203  0.00  0.00    +0.217 A 
ATOM      6  N   UNL     1      -3.781  -1.708   0.088  0.00  0.00    -0.181 NA
ATOM      7  C   UNL     1      -3.167  -1.530  -1.076  0.00  0.00    +0.224 A 
ATOM      8  N   UNL     1      -2.010  -0.874  -1.123  0.00  0.00    -0.198 NA
ATOM      9  N   UNL     1      -3.732  -2.020  -2.238  0.00  0.00    -0.284 N 
ATOM     10  N   UNL     1      -3.868  -1.418   2.415  0.00  0.00    -0.327 N 
ATOM     11  H   UNL     1      -3.246  -1.962  -3.075  0.00  0.00    +0.155 HD
ATOM     12  H   UNL     1      -3.467  -1.073   3.228  0.00  0.00    +0.145 HD
ATOM     13  H   UNL     1      -4.713  -1.892   2.454  0.00  0.00    +0.145 HD
BRANCH   9  14
ATOM     14  C   UNL     1      -5.004  -2.599  -2.206  0.00  0.00    +0.034 A 
ATOM     15  C   UNL     1      -5.988  -2.074  -1.379  0.00  0.00    +0.023 A 
ATOM     16  C   UNL     1      -7.244  -2.648  -1.351  0.00  0.00    +0.002 A 
ATOM     17  C   UNL     1      -7.522  -3.746  -2.144  0.00  0.00    +0.000 A 
ATOM     18  C   UNL     1      -6.544  -4.272  -2.969  0.00  0.00    +0.002 A 
ATOM     19  C   UNL     1      -5.288  -3.699  -3.006  0.00  0.00    +0.023 A 
ENDBRANCH   9  14
ENDBRANCH   2   3
BRANCH   2  20
ATOM     20  S   UNL     1       0.934  -0.271   1.254  0.00  0.00    -0.085 S 
BRANCH  20  21
ATOM     21  C   UNL     1       2.502   0.592   0.958  0.00  0.00    +0.340 C 
ATOM     22  N   UNL     1       3.009   0.286  -0.391  0.00  0.00    -0.219 N 
ATOM     23  N   UNL     1       3.062   1.518  -1.060  0.00  0.00    -0.145 NA
ATOM     24  C   UNL     1       2.653   2.476  -0.271  0.00  0.00    +0.238 C 
ATOM     25  O   UNL     1       2.300   2.012   0.955  0.00  0.00    -0.443 OA
ATOM     26  H   UNL     1       3.256  -0.583  -0.742  0.00  0.00    +0.173 HD
BRANCH  24  27
ATOM     27  C   UNL     1       2.588   3.825  -0.646  0.00  0.00    +0.043 C 
ATOM     28  C   UNL     1       2.927   4.375  -1.883  0.00  0.00    +0.008 A 
ATOM     29  C   UNL     1       3.413   3.804  -3.079  0.00  0.00    +0.010 A 
ATOM     30  C   UNL     1       3.662   4.598  -4.152  0.00  0.00    +0.001 A 
ATOM     31  C   UNL     1       3.449   5.977  -4.106  0.00  0.00    +0.002 A 
ATOM     32  C   UNL     1       2.984   6.592  -2.991  0.00  0.00    +0.026 A 
ATOM     33  C   UNL     1       2.701   5.828  -1.830  0.00  0.00    +0.043 A 
ATOM     34  N   UNL     1       2.249   6.181  -0.642  0.00  0.00    -0.380 N 
ATOM     35  C   UNL     1       2.128   4.989   0.204  0.00  0.00    +0.154 C 
ATOM     36  H   UNL     1       2.029   7.086  -0.371  0.00  0.00    +0.160 HD
ENDBRANCH  24  27
ENDBRANCH  20  21
ENDBRANCH   2  20
TORSDOF 5
