REMARK  Name = ZINC09286852
REMARK  7 active torsions:
REMARK  status: ('A' for Active; 'I' for Inactive)
REMARK    1  A    between atoms: C_1  and  O_2
REMARK    2  A    between atoms: O_2  and  C_3
REMARK    3  A    between atoms: C_6  and  N_29
REMARK    4  A    between atoms: C_8  and  C_9
REMARK    5  A    between atoms: C_10  and  C_11
REMARK    6  A    between atoms: C_10  and  C_13
REMARK    7  A    between atoms: C_15  and  C_18
REMARK                            x       y       z     vdW  Elec       q    Type
REMARK                         _______ _______ _______ _____ _____    ______ ____
ROOT
ATOM      1  C   UNL     1      -3.716  -0.917   0.302  0.00  0.00    +0.119 A 
ATOM      2  N   UNL     1      -2.543  -0.282   0.370  0.00  0.00    -0.238 NA
ATOM      3  C   UNL     1      -2.486   0.994   0.623  0.00  0.00    +0.086 A 
ATOM      4  C   UNL     1      -3.779   1.691   0.816  0.00  0.00    +0.075 A 
ATOM      5  S   UNL     1      -4.902   0.381   0.609  0.00  0.00    -0.074 S 
ENDROOT
BRANCH   3   6
ATOM      6  C   UNL     1      -1.209   1.705   0.706  0.00  0.00    +0.086 A 
ATOM      7  C   UNL     1      -0.002   1.027   0.520  0.00  0.00    +0.028 A 
ATOM      8  C   UNL     1       1.203   1.757   0.604  0.00  0.00    +0.018 A 
ATOM      9  C   UNL     1       2.437   1.106   0.416  0.00  0.00    +0.011 A 
ATOM     10  C   UNL     1       3.598   1.816   0.499  0.00  0.00    +0.001 A 
ATOM     11  C   UNL     1       3.573   3.180   0.767  0.00  0.00    +0.004 A 
ATOM     12  C   UNL     1       2.376   3.839   0.954  0.00  0.00    +0.047 A 
ATOM     13  C   UNL     1       1.177   3.140   0.876  0.00  0.00    +0.139 A 
ATOM     14  O   UNL     1       0.009   3.791   1.061  0.00  0.00    -0.422 OA
ATOM     15  C   UNL     1      -1.170   3.151   0.993  0.00  0.00    +0.347 A 
ATOM     16  O   UNL     1      -2.206   3.764   1.164  0.00  0.00    -0.244 OA
ENDBRANCH   3   6
BRANCH   1  18
ATOM     17  C   UNL     1      -5.280  -2.763   0.009  0.00  0.00    +0.033 C 
ATOM     18  C   UNL     1      -3.959  -2.279   0.046  0.00  0.00    +0.084 C 
BRANCH  17  24
ATOM     19  C   UNL     1      -6.655  -4.618  -0.806  0.00  0.00    +0.127 A 
ATOM     20  C   UNL     1      -6.870  -5.984  -0.911  0.00  0.00    +0.048 A 
ATOM     21  C   UNL     1      -5.988  -6.869  -0.324  0.00  0.00    +0.036 A 
ATOM     22  C   UNL     1      -4.875  -6.407   0.371  0.00  0.00    +0.127 A 
ATOM     23  C   UNL     1      -4.635  -5.071   0.486  0.00  0.00    +0.044 A 
ATOM     24  C   UNL     1      -5.519  -4.144  -0.104  0.00  0.00    +0.020 A 
BRANCH  22  25
ATOM     25  N   UNL     1      -3.943  -7.375   0.992  0.00  0.00    +0.056 N 
ATOM     26  O   UNL     1      -2.888  -6.944   1.651  0.00  0.00    -0.126 OA
ATOM     27  O   UNL     1      -4.170  -8.668   0.885  0.00  0.00    -0.126 OA
ENDBRANCH  22  25
BRANCH  19  29
ATOM     28  C   UNL     1      -8.641  -4.300  -2.066  0.00  0.00    +0.277 C 
ATOM     29  O   UNL     1      -7.520  -3.745  -1.375  0.00  0.00    -0.495 OA
ENDBRANCH  19  29
ENDBRANCH  17  24
BRANCH  18  30
ATOM     30  C   UNL     1      -2.862  -3.172  -0.176  0.00  0.00    +0.102 C 
ATOM     31  N   UNL     1      -1.992  -3.881  -0.352  0.00  0.00    -0.191 NA
ENDBRANCH  18  30
ENDBRANCH   1  18
TORSDOF 6
