REMARK  Name = ZINC20801867
REMARK  3 active torsions:
REMARK  status: ('A' for Active; 'I' for Inactive)
REMARK    1  A    between atoms: C_2  and  C_3
REMARK    2  A    between atoms: C_3  and  N_4
REMARK    3  A    between atoms: C_24  and  C_29
REMARK                            x       y       z     vdW  Elec       q    Type
REMARK                         _______ _______ _______ _____ _____    ______ ____
ROOT
ATOM      1  N   UNL     1       2.705  10.054   0.970  0.00  0.00    -0.325 N 
ATOM      2  C   UNL     1       2.053   9.365  -0.028  0.00  0.00    +0.135 A 
ATOM      3  C   UNL     1       1.326  10.052  -1.025  0.00  0.00    +0.078 A 
ATOM      4  C   UNL     1       0.682   9.315  -2.022  0.00  0.00    +0.059 A 
ATOM      5  N   UNL     1       0.778   7.996  -1.994  0.00  0.00    -0.218 NA
ATOM      6  C   UNL     1       1.463   7.379  -1.039  0.00  0.00    +0.220 A 
ATOM      7  N   UNL     1       2.092   8.037  -0.077  0.00  0.00    -0.199 NA
ATOM      8  N   UNL     1       1.527   6.002  -1.053  0.00  0.00    -0.297 N 
ATOM      9  C   UNL     1       2.329   5.501   0.072  0.00  0.00    +0.127 C 
ATOM     10  C   UNL     1       2.442   3.978  -0.024  0.00  0.00    +0.127 C 
ATOM     11  N   UNL     1       1.097   3.388  -0.011  0.00  0.00    -0.297 N 
ATOM     12  C   UNL     1       0.294   3.889  -1.136  0.00  0.00    +0.127 C 
ATOM     13  C   UNL     1       0.181   5.412  -1.040  0.00  0.00    +0.127 C 
ATOM     14  C   UNL     1       1.161   2.005  -0.025  0.00  0.00    +0.218 A 
ATOM     15  N   UNL     1       0.036   1.305  -0.015  0.00  0.00    -0.223 NA
ATOM     16  C   UNL     1       0.062  -0.017  -0.028  0.00  0.00    +0.116 A 
ATOM     17  C   UNL     1       1.285  -0.669  -0.052  0.00  0.00    +0.039 A 
ATOM     18  C   UNL     1       2.442   0.094  -0.061  0.00  0.00    +0.116 A 
ATOM     19  N   UNL     1       2.346   1.413  -0.047  0.00  0.00    -0.223 NA
ATOM     20  C   UNL     1      -0.096   9.986  -3.119  0.00  0.00    +0.065 C 
ATOM     21  C   UNL     1      -0.540  11.386  -2.701  0.00  0.00    +0.032 C 
ATOM     22  C   UNL     1       0.680  12.195  -2.245  0.00  0.00    +0.088 C 
ATOM     23  C   UNL     1       1.242  11.515  -1.012  0.00  0.00    +0.169 C 
ATOM     24  O   UNL     1       1.609  12.158  -0.051  0.00  0.00    -0.292 OA
ATOM     25  H   UNL     1       2.740  11.153   0.948  0.00  0.00    +0.148 HD
ENDROOT
BRANCH  21  26
ATOM     26  C   UNL     1      -1.191  12.076  -3.872  0.00  0.00    -0.044 A 
ATOM     27  C   UNL     1      -0.474  12.291  -5.034  0.00  0.00    +0.004 A 
ATOM     28  C   UNL     1      -1.072  12.920  -6.110  0.00  0.00    +0.000 A 
ATOM     29  C   UNL     1      -2.385  13.343  -6.020  0.00  0.00    +0.000 A 
ATOM     30  C   UNL     1      -3.101  13.133  -4.857  0.00  0.00    +0.000 A 
ATOM     31  C   UNL     1      -2.504  12.499  -3.783  0.00  0.00    +0.004 A 
ENDBRANCH  21  26
BRANCH   1  32
ATOM     32  C   UNL     1       3.353   9.322   2.062  0.00  0.00    +0.130 C 
BRANCH  32  34
ATOM     33  C   UNL     1       3.686  10.268   4.288  0.00  0.00    +0.005 C 
ATOM     34  C   UNL     1       3.990  10.301   3.015  0.00  0.00    -0.016 C 
ENDBRANCH  32  34
ENDBRANCH   1  32
TORSDOF 3
