REMARK  Name = ZINC12702397
REMARK  8 active torsions:
REMARK  status: ('A' for Active; 'I' for Inactive)
REMARK    1  A    between atoms: C_4  and  N_7
REMARK    2  A    between atoms: N_7  and  C_8
REMARK    3  A    between atoms: C_8  and  C_10
REMARK    4  A    between atoms: C_8  and  C_17
REMARK    5  A    between atoms: N_19  and  C_20
REMARK    6  A    between atoms: C_25  and  C_27
REMARK    7  A    between atoms: C_28  and  N_35
REMARK    8  A    between atoms: C_29  and  C_32
REMARK                            x       y       z     vdW  Elec       q    Type
REMARK                         _______ _______ _______ _____ _____    ______ ____
ROOT
ATOM      1  N   UNL     1      -3.620   1.658   0.888  0.00  0.00    -0.251 N 
ATOM      2  C   UNL     1      -4.431   0.801   1.539  0.00  0.00    +0.262 C 
ATOM      3  O   UNL     1      -4.600  -0.325   1.108  0.00  0.00    -0.269 OA
ENDROOT
BRANCH   1   7
ATOM      4  C   UNL     1      -3.237   5.586   2.221  0.00  0.00    +0.000 A 
ATOM      5  C   UNL     1      -2.159   4.723   2.298  0.00  0.00    +0.002 A 
ATOM      6  C   UNL     1      -2.283   3.420   1.857  0.00  0.00    +0.023 A 
ATOM      7  C   UNL     1      -3.492   2.977   1.336  0.00  0.00    +0.038 A 
ATOM      8  C   UNL     1      -4.571   3.847   1.256  0.00  0.00    +0.023 A 
ATOM      9  C   UNL     1      -4.442   5.147   1.703  0.00  0.00    +0.002 A 
ENDBRANCH   1   7
BRANCH   2  10
ATOM     10  C   UNL     1      -5.109   1.224   2.766  0.00  0.00    +0.116 A 
ATOM     11  C   UNL     1      -6.074   0.553   3.520  0.00  0.00    +0.076 A 
ATOM     12  C   UNL     1      -6.484   1.284   4.635  0.00  0.00    +0.155 A 
ATOM     13  N   UNL     1      -5.955   2.467   4.858  0.00  0.00    -0.203 NA
ATOM     14  S   UNL     1      -4.918   2.728   3.700  0.00  0.00    +0.019 S 
BRANCH  12  15
ATOM     15  C   UNL     1      -7.500   0.737   5.552  0.00  0.00    +0.262 C 
ATOM     16  O   UNL     1      -7.985  -0.358   5.339  0.00  0.00    -0.269 OA
ATOM     17  N   UNL     1      -7.891   1.450   6.627  0.00  0.00    -0.324 N 
ATOM     18  H   UNL     1      -7.504   2.323   6.797  0.00  0.00    +0.145 HD
ATOM     19  H   UNL     1      -8.560   1.090   7.231  0.00  0.00    +0.145 HD
ENDBRANCH  12  15
BRANCH  11  20
ATOM     20  N   UNL     1      -6.570  -0.703   3.196  0.00  0.00    -0.355 N 
ATOM     21  H   UNL     1      -6.246  -1.164   2.407  0.00  0.00    +0.142 HD
ATOM     22  H   UNL     1      -7.241  -1.119   3.760  0.00  0.00    +0.142 HD
ENDBRANCH  11  20
ENDBRANCH   2  10
BRANCH   1  23
ATOM     23  C   UNL     1      -2.873   1.209  -0.290  0.00  0.00    +0.197 C 
BRANCH  23  24
ATOM     24  C   UNL     1      -1.903   2.282  -0.709  0.00  0.00    -0.018 A 
ATOM     25  C   UNL     1      -0.556   1.990  -0.823  0.00  0.00    +0.007 A 
ATOM     26  C   UNL     1       0.334   2.973  -1.213  0.00  0.00    +0.020 A 
ATOM     27  C   UNL     1      -0.122   4.250  -1.484  0.00  0.00    +0.041 A 
ATOM     28  C   UNL     1      -1.469   4.544  -1.364  0.00  0.00    +0.020 A 
ATOM     29  C   UNL     1      -2.358   3.560  -0.974  0.00  0.00    +0.007 A 
ATOM     30 CL   UNL     1       0.996   5.485  -1.975  0.00  0.00    -0.084 Cl
ENDBRANCH  23  24
BRANCH  23  31
ATOM     31  C   UNL     1      -3.833   0.931  -1.418  0.00  0.00    +0.239 C 
ATOM     32  O   UNL     1      -5.024   1.093  -1.254  0.00  0.00    -0.273 OA
ATOM     33  N   UNL     1      -3.369   0.503  -2.608  0.00  0.00    -0.311 N 
ATOM     34  H   UNL     1      -2.416   0.374  -2.739  0.00  0.00    +0.149 HD
BRANCH  33  35
ATOM     35  C   UNL     1      -4.302   0.234  -3.705  0.00  0.00    +0.073 C 
ATOM     36  C   UNL     1      -4.806  -1.222  -3.624  0.00  0.00    +0.022 C 
ATOM     37  C   UNL     1      -4.909  -1.671  -5.103  0.00  0.00    +0.002 C 
ATOM     38  C   UNL     1      -3.673  -1.000  -5.750  0.00  0.00    +0.002 C 
ATOM     39  C   UNL     1      -3.581   0.375  -5.057  0.00  0.00    +0.022 C 
ENDBRANCH  33  35
ENDBRANCH  23  31
ENDBRANCH   1  23
TORSDOF 8
