REMARK  Name = ZINC49300294
REMARK  5 active torsions:
REMARK  status: ('A' for Active; 'I' for Inactive)
REMARK    1  A    between atoms: C_2  and  C_3
REMARK    2  A    between atoms: C_3  and  N_4
REMARK    3  A    between atoms: N_7  and  C_8
REMARK    4  A    between atoms: C_13  and  O_14
REMARK    5  A    between atoms: O_14  and  C_15
REMARK                            x       y       z     vdW  Elec       q    Type
REMARK                         _______ _______ _______ _____ _____    ______ ____
ROOT
ATOM      1  C   UNL     1       3.808  -3.780   2.814  0.00  0.00    +0.079 A 
ATOM      2  C   UNL     1       4.838  -3.853   1.888  0.00  0.00    +0.047 A 
ATOM      3  C   UNL     1       5.912  -4.695   2.114  0.00  0.00    +0.044 A 
ATOM      4  C   UNL     1       5.961  -5.466   3.261  0.00  0.00    +0.039 A 
ATOM      5  C   UNL     1       4.937  -5.398   4.188  0.00  0.00    +0.063 A 
ATOM      6  C   UNL     1       3.860  -4.552   3.972  0.00  0.00    +0.162 A 
ATOM      7 BR   UNL     1       5.008  -6.455   5.755  0.00  0.00    -0.046 Br
ATOM      8 CL   UNL     1       7.200  -4.786   0.954  0.00  0.00    -0.083 Cl
ENDROOT
BRANCH   1  12
ATOM      9  N   UNL     1       1.169  -1.979   1.122  0.00  0.00    -0.295 N 
ATOM     10  C   UNL     1       2.270  -2.727   1.332  0.00  0.00    +0.304 C 
ATOM     11  O   UNL     1       2.858  -3.220   0.390  0.00  0.00    -0.252 OA
ATOM     12  N   UNL     1       2.719  -2.927   2.587  0.00  0.00    -0.266 N 
ATOM     13  H   UNL     1       0.699  -1.585   1.874  0.00  0.00    +0.151 HD
ATOM     14  H   UNL     1       2.288  -2.482   3.333  0.00  0.00    +0.156 HD
BRANCH   9  15
ATOM     15  C   UNL     1       0.681  -1.760  -0.242  0.00  0.00    +0.148 C 
BRANCH  15  17
ATOM     16  C   UNL     1      -0.535   0.299  -0.738  0.00  0.00    +0.021 C 
ATOM     17  C   UNL     1      -0.554  -0.897  -0.202  0.00  0.00    +0.006 C 
ATOM     18 BR   UNL     1      -2.130  -1.540   0.622  0.00  0.00    -0.054 Br
ENDBRANCH  15  17
ENDBRANCH   9  15
ENDBRANCH   1  12
BRANCH   6  19
ATOM     19  O   UNL     1       2.855  -4.480   4.885  0.00  0.00    -0.431 OA
BRANCH  19  20
ATOM     20  C   UNL     1       1.763  -5.386   4.721  0.00  0.00    +0.541 C 
ATOM     21  F   UNL     1       1.158  -5.168   3.479  0.00  0.00    -0.166 F 
ATOM     22  F   UNL     1       2.235  -6.702   4.785  0.00  0.00    -0.166 F 
ENDBRANCH  19  20
ENDBRANCH   6  19
TORSDOF 5
