REMARK  Name = ZINC39671297
REMARK  10 active torsions:
REMARK  status: ('A' for Active; 'I' for Inactive)
REMARK    1  A    between atoms: C_1  and  C_2
REMARK    2  A    between atoms: C_2  and  C_3
REMARK    3  A    between atoms: C_3  and  C_4
REMARK    4  A    between atoms: C_4  and  C_5
REMARK    5  A    between atoms: C_5  and  C_7
REMARK    6  A    between atoms: C_5  and  C_8
REMARK    7  A    between atoms: C_12  and  C_21
REMARK    8  A    between atoms: N_23  and  C_24
REMARK    9  A    between atoms: C_24  and  C_25
REMARK   10  A    between atoms: C_28  and  C_30
REMARK                            x       y       z     vdW  Elec       q    Type
REMARK                         _______ _______ _______ _____ _____    ______ ____
ROOT
ATOM      1  C   UNL     1       1.523  -3.766  -2.649  0.00  0.00    +0.218 C 
ATOM      2  O   UNL     1       1.026  -4.297  -1.679  0.00  0.00    -0.275 OA
ATOM      3  N   UNL     1       2.140  -4.515  -3.585  0.00  0.00    -0.300 N 
ATOM      4  C   UNL     1       2.806  -4.052  -4.824  0.00  0.00    +0.121 C 
ATOM      5  C   UNL     1       4.066  -4.938  -4.945  0.00  0.00    +0.100 C 
ATOM      6  C   UNL     1       3.731  -6.208  -4.145  0.00  0.00    -0.004 C 
ATOM      7  C   UNL     1       2.311  -5.988  -3.602  0.00  0.00    +0.115 C 
ATOM      8  C   UNL     1       3.765  -7.431  -5.056  0.00  0.00    -0.010 C 
ATOM      9  C   UNL     1       3.486  -8.688  -4.226  0.00  0.00    -0.082 C 
ATOM     10  N   UNL     1       4.496  -8.812  -3.168  0.00  0.00    +0.379 N 
ATOM     11  C   UNL     1       4.394  -7.677  -2.243  0.00  0.00    -0.082 C 
ATOM     12  C   UNL     1       4.711  -6.378  -2.989  0.00  0.00    -0.010 C 
ATOM     13  H   UNL     1       4.346  -9.672  -2.661  0.00  0.00    -0.086 HD
ATOM     14  H   UNL     1       5.416  -8.825  -3.582  0.00  0.00    -0.086 HD
ENDROOT
BRANCH   5  15
ATOM     15  C   UNL     1       5.259  -4.238  -4.348  0.00  0.00    +0.219 C 
ATOM     16  O   UNL     1       5.109  -3.460  -3.430  0.00  0.00    -0.275 OA
ATOM     17  N   UNL     1       6.494  -4.477  -4.833  0.00  0.00    -0.306 N 
ATOM     18  H   UNL     1       6.614  -5.100  -5.567  0.00  0.00    +0.149 HD
BRANCH  17  19
ATOM     19  C   UNL     1       7.654  -3.797  -4.252  0.00  0.00    +0.202 C 
BRANCH  19  20
ATOM     20  C   UNL     1       8.905  -4.236  -4.969  0.00  0.00    +0.234 A 
ATOM     21  N   UNL     1       9.430  -3.671  -6.018  0.00  0.00    -0.111 NA
ATOM     22  N   UNL     1      10.493  -4.310  -6.360  0.00  0.00    -0.113 NA
ATOM     23  C   UNL     1      10.682  -5.305  -5.540  0.00  0.00    +0.214 A 
ATOM     24  O   UNL     1       9.686  -5.278  -4.639  0.00  0.00    -0.423 OA
ATOM     25  C   UNL     1      11.813  -6.299  -5.590  0.00  0.00    +0.111 C 
ENDBRANCH  19  20
ENDBRANCH  17  19
ENDBRANCH   5  15
BRANCH   1  26
ATOM     26  C   UNL     1       1.451  -2.270  -2.809  0.00  0.00    +0.072 C 
ATOM     27  C   UNL     1       0.708  -1.930  -4.103  0.00  0.00    +0.017 C 
BRANCH  26  28
ATOM     28  C   UNL     1       0.704  -1.665  -1.619  0.00  0.00    +0.012 C 
BRANCH  28  29
ATOM     29  C   UNL     1       0.738  -0.139  -1.717  0.00  0.00    +0.000 C 
BRANCH  29  31
ATOM     30  C   UNL     1       0.026   1.993  -0.625  0.00  0.00    +0.004 C 
ATOM     31  C   UNL     1      -0.009   0.466  -0.527  0.00  0.00    -0.003 C 
ENDBRANCH  29  31
ENDBRANCH  28  29
ENDBRANCH  26  28
ENDBRANCH   1  26
TORSDOF 7
