REMARK  Name = ZINC39006651
REMARK  3 active torsions:
REMARK  status: ('A' for Active; 'I' for Inactive)
REMARK    1  A    between atoms: C_6  and  C_7
REMARK    2  A    between atoms: N_8  and  N_9
REMARK    3  A    between atoms: C_10  and  C_16
REMARK                            x       y       z     vdW  Elec       q    Type
REMARK                         _______ _______ _______ _____ _____    ______ ____
ROOT
ATOM      1  N   UNL     1      -2.438  -2.781   0.116  0.00  0.00    -0.172 N 
ATOM      2  C   UNL     1      -2.604  -4.241   0.235  0.00  0.00    +0.264 C 
ATOM      3  N   UNL     1      -4.061  -4.424   0.320  0.00  0.00    -0.189 NA
ATOM      4  N   UNL     1      -4.591  -3.312   0.262  0.00  0.00    -0.219 N 
ATOM      5  C   UNL     1      -3.697  -2.293   0.147  0.00  0.00    +0.174 C 
ATOM      6  S   UNL     1      -4.109  -0.634   0.052  0.00  0.00    -0.015 S 
ATOM      7  H   UNL     1      -5.551  -3.177   0.299  0.00  0.00    +0.176 HD
ENDROOT
BRANCH   2   8
ATOM      8  C   UNL     1      -1.930  -4.751   1.482  0.00  0.00    -0.002 A 
ATOM      9  C   UNL     1      -0.818  -4.098   1.982  0.00  0.00    +0.010 A 
ATOM     10  C   UNL     1      -0.199  -4.565   3.127  0.00  0.00    +0.039 A 
ATOM     11  C   UNL     1      -0.693  -5.686   3.772  0.00  0.00    +0.123 A 
ATOM     12  C   UNL     1      -1.806  -6.338   3.270  0.00  0.00    +0.039 A 
ATOM     13  C   UNL     1      -2.426  -5.867   2.129  0.00  0.00    +0.010 A 
ATOM     14  F   UNL     1      -0.088  -6.143   4.891  0.00  0.00    -0.205 F 
ENDBRANCH   2   8
BRANCH   1  16
ATOM     15  C   UNL     1      -1.273  -0.778  -0.201  0.00  0.00    +0.138 C 
ATOM     16  N   UNL     1      -1.242  -2.060   0.003  0.00  0.00    -0.183 NA
BRANCH  15  22
ATOM     17  C   UNL     1      -0.049   1.376  -0.435  0.00  0.00    +0.010 A 
ATOM     18  C   UNL     1       1.128   2.095  -0.447  0.00  0.00    +0.016 A 
ATOM     19  C   UNL     1       2.338   1.453  -0.242  0.00  0.00    +0.018 A 
ATOM     20  C   UNL     1       2.374   0.086  -0.024  0.00  0.00    +0.016 A 
ATOM     21  C   UNL     1       1.205  -0.645  -0.010  0.00  0.00    +0.010 A 
ATOM     22  C   UNL     1      -0.019  -0.003  -0.215  0.00  0.00    -0.005 A 
ATOM     23 BR   UNL     1       3.946   2.446  -0.261  0.00  0.00    -0.050 Br
ENDBRANCH  15  22
ENDBRANCH   1  16
TORSDOF 3
