REMARK  Name = ZINC36119369
REMARK  7 active torsions:
REMARK  status: ('A' for Active; 'I' for Inactive)
REMARK    1  A    between atoms: C_1  and  C_2
REMARK    2  A    between atoms: C_8  and  N_10
REMARK    3  A    between atoms: C_11  and  C_13
REMARK    4  A    between atoms: C_16  and  C_19
REMARK    5  A    between atoms: C_19  and  N_20
REMARK    6  A    between atoms: N_20  and  C_21
REMARK    7  A    between atoms: C_31  and  O_32
REMARK                            x       y       z     vdW  Elec       q    Type
REMARK                         _______ _______ _______ _____ _____    ______ ____
ROOT
ATOM      1  C   UNL     1       4.209   0.649   2.377  0.00  0.00    +0.075 C 
ATOM      2  C   UNL     1       5.088  -0.278   1.537  0.00  0.00    +0.013 C 
ATOM      3  C   UNL     1       6.524   0.251   1.526  0.00  0.00    +0.006 C 
ATOM      4  C   UNL     1       7.059   0.302   2.958  0.00  0.00    +0.006 C 
ATOM      5  C   UNL     1       6.180   1.230   3.799  0.00  0.00    +0.006 C 
ATOM      6  C   UNL     1       4.745   0.700   3.810  0.00  0.00    +0.013 C 
ENDROOT
BRANCH   1   8
ATOM      7  N   UNL     1       2.116  -0.004   1.231  0.00  0.00    -0.312 N 
ATOM      8  C   UNL     1       2.795   0.128   2.388  0.00  0.00    +0.216 C 
ATOM      9  O   UNL     1       2.268  -0.174   3.438  0.00  0.00    -0.276 OA
ATOM     10  H   UNL     1       2.538   0.237   0.392  0.00  0.00    +0.149 HD
BRANCH   7  17
ATOM     11  C   UNL     1      -0.019   1.526   0.010  0.00  0.00    +0.009 C 
ATOM     12  C   UNL     1       0.002  -0.004   0.002  0.00  0.00    +0.006 C 
ATOM     13  C   UNL     1       0.718  -0.497  -1.257  0.00  0.00    +0.005 C 
ATOM     14  C   UNL     1       0.739  -2.027  -1.265  0.00  0.00    +0.000 C 
ATOM     15  C   UNL     1       1.479  -2.534  -0.026  0.00  0.00    +0.002 C 
ATOM     16  C   UNL     1       0.763  -2.041   1.233  0.00  0.00    +0.022 C 
ATOM     17  C   UNL     1       0.742  -0.511   1.242  0.00  0.00    +0.076 C 
ENDBRANCH   7  17
ENDBRANCH   1   8
BRANCH   4  18
ATOM     18  C   UNL     1       8.495   0.832   2.947  0.00  0.00    +0.105 C 
BRANCH  18  19
ATOM     19  N   UNL     1       9.049   0.768   4.302  0.00  0.00    -0.339 N 
ATOM     20  H   UNL     1       8.509   0.426   5.031  0.00  0.00    +0.146 HD
BRANCH  19  21
ATOM     21  C   UNL     1      10.331   1.193   4.539  0.00  0.00    +0.101 C 
ATOM     22  C   UNL     1      11.183   1.262   5.740  0.00  0.00    +0.114 C 
ATOM     23  N   UNL     1      11.057   0.958   7.001  0.00  0.00    -0.366 N 
ATOM     24  C   UNL     1       9.804   0.385   7.511  0.00  0.00    +0.116 C 
ATOM     25  C   UNL     1      10.124  -0.916   8.255  0.00  0.00    +0.021 C 
ATOM     26  C   UNL     1      11.173  -0.638   9.334  0.00  0.00    +0.003 C 
ATOM     27  C   UNL     1      12.459  -0.128   8.678  0.00  0.00    +0.021 C 
ATOM     28  C   UNL     1      12.167   1.177   7.939  0.00  0.00    +0.116 C 
ATOM     29  C   UNL     1      12.247   1.831   4.878  0.00  0.00    +0.247 C 
ATOM     30  O   UNL     1      13.389   2.217   5.044  0.00  0.00    -0.282 OA
ATOM     31  C   UNL     1      11.336   1.720   3.740  0.00  0.00    +0.189 C 
BRANCH  31  32
ATOM     32  O   UNL     1      11.434   2.016   2.422  0.00  0.00    -0.502 OA
ATOM     33  H   UNL     1      12.291   2.381   2.164  0.00  0.00    +0.292 HD
ENDBRANCH  31  32
ENDBRANCH  19  21
ENDBRANCH  18  19
ENDBRANCH   4  18
TORSDOF 6
