REMARK  Name = ZINC09231629
REMARK  11 active torsions:
REMARK  status: ('A' for Active; 'I' for Inactive)
REMARK    1  A    between atoms: C_1  and  C_2
REMARK    2  A    between atoms: C_7  and  O_8
REMARK    3  A    between atoms: O_8  and  C_9
REMARK    4  A    between atoms: C_9  and  C_10
REMARK    5  A    between atoms: N_12  and  N_13
REMARK    6  A    between atoms: C_14  and  C_16
REMARK    7  A    between atoms: C_16  and  O_17
REMARK    8  A    between atoms: O_17  and  C_18
REMARK    9  A    between atoms: C_23  and  C_24
REMARK   10  A    between atoms: C_24  and  C_25
REMARK   11  A    between atoms: C_24  and  C_26
REMARK                            x       y       z     vdW  Elec       q    Type
REMARK                         _______ _______ _______ _____ _____    ______ ____
ROOT
ATOM      1  N   UNL     1       3.909  -2.192  -0.049  0.00  0.00    -0.231 N 
ATOM      2  C   UNL     1       3.713  -0.859  -0.040  0.00  0.00    +0.267 C 
ATOM      3  O   UNL     1       4.664  -0.106  -0.044  0.00  0.00    -0.271 OA
ATOM      4  H   UNL     1       3.149  -2.795  -0.045  0.00  0.00    +0.173 HD
ENDROOT
BRANCH   1   7
ATOM      5  C   UNL     1       5.408  -4.042  -0.074  0.00  0.00    +0.267 C 
ATOM      6  O   UNL     1       4.457  -4.795  -0.069  0.00  0.00    -0.271 OA
ATOM      7  N   UNL     1       5.212  -2.709  -0.065  0.00  0.00    -0.231 N 
ATOM      8  H   UNL     1       5.972  -2.106  -0.069  0.00  0.00    +0.173 HD
BRANCH   5   9
ATOM      9  C   UNL     1       6.809  -4.597  -0.091  0.00  0.00    +0.326 C 
BRANCH   9  10
ATOM     10  O   UNL     1       6.755  -6.025  -0.099  0.00  0.00    -0.482 OA
BRANCH  10  17
ATOM     11  C   UNL     1       6.671  -8.848  -0.102  0.00  0.00    +0.047 C 
ATOM     12  C   UNL     1       7.964  -8.074  -0.117  0.00  0.00    -0.008 A 
ATOM     13  C   UNL     1       9.171  -8.745  -0.138  0.00  0.00    +0.022 A 
ATOM     14  C   UNL     1      10.358  -8.035  -0.145  0.00  0.00    +0.018 A 
ATOM     15  C   UNL     1      10.339  -6.652  -0.138  0.00  0.00    +0.019 A 
ATOM     16  C   UNL     1       9.134  -5.977  -0.122  0.00  0.00    +0.047 A 
ATOM     17  C   UNL     1       7.942  -6.687  -0.114  0.00  0.00    +0.124 A 
ATOM     18 BR   UNL     1      12.010  -8.956  -0.167  0.00  0.00    -0.050 Br
ENDBRANCH  10  17
ENDBRANCH   9  10
ENDBRANCH   5   9
ENDBRANCH   1   7
BRANCH   2  19
ATOM     19  C   UNL     1       2.312  -0.304  -0.023  0.00  0.00    +0.326 C 
BRANCH  19  20
ATOM     20  O   UNL     1       2.366   1.124  -0.015  0.00  0.00    -0.482 OA
BRANCH  20  21
ATOM     21  C   UNL     1       1.179   1.786   0.000  0.00  0.00    +0.125 A 
ATOM     22  C   UNL     1      -0.013   1.076   0.008  0.00  0.00    +0.047 A 
ATOM     23  C   UNL     1      -1.218   1.751   0.017  0.00  0.00    +0.019 A 
ATOM     24  C   UNL     1      -1.237   3.134   0.030  0.00  0.00    +0.018 A 
ATOM     25  C   UNL     1      -0.050   3.844   0.023  0.00  0.00    +0.022 A 
ATOM     26  C   UNL     1       1.158   3.173   0.008  0.00  0.00    -0.002 A 
ATOM     27 BR   UNL     1      -2.888   4.055   0.050  0.00  0.00    -0.050 Br
BRANCH  26  28
ATOM     28  C   UNL     1       2.450   3.947   0.000  0.00  0.00    +0.016 C 
ATOM     29  C   UNL     1       2.506   4.835  -1.245  0.00  0.00    +0.012 C 
ATOM     30  C   UNL     1       2.529   4.822   1.254  0.00  0.00    +0.012 C 
ENDBRANCH  26  28
ENDBRANCH  20  21
ENDBRANCH  19  20
ENDBRANCH   2  19
TORSDOF 8
