REMARK  Name = ZINC39491741
REMARK  13 active torsions:
REMARK  status: ('A' for Active; 'I' for Inactive)
REMARK    1  A    between atoms: C_1  and  C_2
REMARK    2  A    between atoms: C_2  and  N_3
REMARK    3  A    between atoms: N_3  and  C_4
REMARK    4  A    between atoms: C_4  and  C_5
REMARK    5  A    between atoms: N_7  and  C_18
REMARK    6  A    between atoms: C_11  and  C_14
REMARK    7  A    between atoms: C_14  and  O_16
REMARK    8  A    between atoms: O_16  and  C_17
REMARK    9  A    between atoms: C_18  and  C_19
REMARK   10  A    between atoms: C_19  and  C_21
REMARK   11  A    between atoms: C_19  and  S_28
REMARK   12  A    between atoms: C_26  and  O_27
REMARK   13  A    between atoms: S_28  and  C_31
REMARK                            x       y       z     vdW  Elec       q    Type
REMARK                         _______ _______ _______ _____ _____    ______ ____
ROOT
ATOM      1  C   UNL     1       1.267  -2.615  -2.316  0.00  0.00    -0.039 A 
ATOM      2  C   UNL     1       0.729  -3.004  -3.482  0.00  0.00    +0.088 A 
ATOM      3  N   UNL     1       1.720  -3.297  -4.380  0.00  0.00    -0.344 N 
ATOM      4  C   UNL     1       2.951  -3.100  -3.801  0.00  0.00    +0.049 A 
ATOM      5  C   UNL     1       2.723  -2.658  -2.483  0.00  0.00    +0.002 A 
ATOM      6  C   UNL     1       3.800  -2.370  -1.649  0.00  0.00    +0.025 A 
ATOM      7  C   UNL     1       5.097  -2.519  -2.132  0.00  0.00    +0.060 A 
ATOM      8  C   UNL     1       5.310  -2.957  -3.447  0.00  0.00    +0.017 A 
ATOM      9  C   UNL     1       4.257  -3.248  -4.263  0.00  0.00    +0.027 A 
ENDROOT
BRANCH   7  10
ATOM     10  C   UNL     1       6.248  -2.217  -1.260  0.00  0.00    +0.339 C 
ATOM     11  O   UNL     1       6.064  -1.838  -0.121  0.00  0.00    -0.245 OA
BRANCH  10  12
ATOM     12  O   UNL     1       7.503  -2.362  -1.727  0.00  0.00    -0.464 OA
ATOM     13  C   UNL     1       8.570  -2.052  -0.828  0.00  0.00    +0.280 C 
ENDBRANCH  10  12
ENDBRANCH   7  10
BRANCH   1  14
ATOM     14  C   UNL     1       0.518  -2.207  -1.074  0.00  0.00    -0.045 C 
BRANCH  14  15
ATOM     15  N   UNL     1       0.471  -0.741  -0.990  0.00  0.00    +0.382 N 
ATOM     16  H   UNL     1       0.001  -0.373  -1.803  0.00  0.00    -0.085 HD
ATOM     17  H   UNL     1       1.411  -0.377  -0.951  0.00  0.00    -0.085 HD
BRANCH  15  19
ATOM     18  C   UNL     1      -0.308   1.183   0.308  0.00  0.00    -0.017 C 
ATOM     19  C   UNL     1      -0.260  -0.343   0.221  0.00  0.00    -0.086 C 
ENDBRANCH  15  19
ENDBRANCH  14  15
ENDBRANCH   1  14
BRANCH   3  20
ATOM     20  C   UNL     1       1.501  -3.754  -5.754  0.00  0.00    +0.153 C 
BRANCH  20  21
ATOM     21  C   UNL     1       1.555  -5.282  -5.798  0.00  0.00    +0.189 C 
BRANCH  21  22
ATOM     22  C   UNL     1       1.209  -5.758  -7.186  0.00  0.00    +0.020 A 
ATOM     23  C   UNL     1       2.205  -5.923  -8.129  0.00  0.00    +0.009 A 
ATOM     24  C   UNL     1       1.888  -6.358  -9.402  0.00  0.00    +0.001 A 
ATOM     25  C   UNL     1       0.574  -6.630  -9.735  0.00  0.00    +0.004 A 
ATOM     26  C   UNL     1      -0.426  -6.467  -8.796  0.00  0.00    +0.046 A 
ATOM     27  C   UNL     1      -0.110  -6.035  -7.516  0.00  0.00    +0.122 A 
BRANCH  27  28
ATOM     28  O   UNL     1      -1.091  -5.880  -6.588  0.00  0.00    -0.506 OA
ATOM     29  H   UNL     1      -1.486  -4.997  -6.578  0.00  0.00    +0.292 HD
ENDBRANCH  27  28
ENDBRANCH  21  22
BRANCH  21  30
ATOM     30  S   UNL     1       3.226  -5.841  -5.367  0.00  0.00    +0.006 S 
ATOM     31  O   UNL     1       4.168  -5.339  -6.306  0.00  0.00    -0.169 OA
ATOM     32  O   UNL     1       3.446  -5.694  -3.971  0.00  0.00    -0.169 OA
BRANCH  30  33
ATOM     33  C   UNL     1       3.205  -7.582  -5.638  0.00  0.00    +0.089 A 
ATOM     34  C   UNL     1       2.842  -8.437  -4.614  0.00  0.00    +0.027 A 
ATOM     35  C   UNL     1       2.826  -9.803  -4.827  0.00  0.00    +0.002 A 
ATOM     36  C   UNL     1       3.173 -10.314  -6.064  0.00  0.00    +0.000 A 
ATOM     37  C   UNL     1       3.535  -9.459  -7.088  0.00  0.00    +0.002 A 
ATOM     38  C   UNL     1       3.547  -8.093  -6.877  0.00  0.00    +0.027 A 
ENDBRANCH  30  33
ENDBRANCH  21  30
ENDBRANCH  20  21
ENDBRANCH   3  20
TORSDOF 11
