REMARK  Name = ZINC08991629
REMARK  9 active torsions:
REMARK  status: ('A' for Active; 'I' for Inactive)
REMARK    1  A    between atoms: C_1  and  C_2
REMARK    2  A    between atoms: C_2  and  C_3
REMARK    3  A    between atoms: C_3  and  C_4
REMARK    4  A    between atoms: C_4  and  N_54
REMARK    5  A    between atoms: C_5  and  N_54
REMARK    6  A    between atoms: C_6  and  C_7
REMARK    7  A    between atoms: C_6  and  N_54
REMARK    8  A    between atoms: C_8  and  O_29
REMARK    9  A    between atoms: C_15  and  C_16
REMARK                            x       y       z     vdW  Elec       q    Type
REMARK                         _______ _______ _______ _____ _____    ______ ____
ROOT
ATOM      1  C   UNL     1       3.073   4.736   0.873  0.00  0.00    +0.020 A 
ATOM      2  C   UNL     1       4.438   4.856   1.079  0.00  0.00    +0.122 A 
ATOM      3  C   UNL     1       5.258   3.732   1.062  0.00  0.00    +0.046 A 
ATOM      4  C   UNL     1       4.723   2.495   0.841  0.00  0.00    +0.019 A 
ATOM      5  C   UNL     1       3.350   2.358   0.632  0.00  0.00    +0.068 A 
ATOM      6  C   UNL     1       2.512   3.485   0.647  0.00  0.00    +0.144 A 
ATOM      7  O   UNL     1       1.236   3.106   0.417  0.00  0.00    -0.451 OA
ATOM      8  C   UNL     1       1.131   1.767   0.250  0.00  0.00    +0.176 C 
ATOM      9  C   UNL     1      -0.013   1.076   0.008  0.00  0.00    +0.061 C 
ATOM     10  C   UNL     1       2.480   1.197   0.373  0.00  0.00    +0.231 C 
ATOM     11  O   UNL     1       2.807   0.026   0.280  0.00  0.00    -0.283 OA
ENDROOT
BRANCH   9  12
ATOM     12  C   UNL     1      -1.308   1.764   0.050  0.00  0.00    +0.022 A 
ATOM     13  C   UNL     1      -1.366   3.161  -0.020  0.00  0.00    +0.027 A 
ATOM     14  C   UNL     1      -2.587   3.798   0.016  0.00  0.00    +0.019 A 
ATOM     15  C   UNL     1      -3.757   3.063   0.132  0.00  0.00    +0.024 A 
ATOM     16  C   UNL     1      -3.715   1.683   0.208  0.00  0.00    +0.022 A 
ATOM     17  C   UNL     1      -2.498   1.024   0.166  0.00  0.00    +0.136 A 
ATOM     18  O   UNL     1      -2.442  -0.331   0.232  0.00  0.00    -0.465 OA
ATOM     19  C   UNL     1      -3.612  -1.004   0.706  0.00  0.00    +0.395 C 
ATOM     20  O   UNL     1      -4.753  -0.470   0.025  0.00  0.00    -0.339 OA
ATOM     21  C   UNL     1      -5.000   0.904   0.338  0.00  0.00    +0.202 C 
ATOM     22 BR   UNL     1      -2.668   5.685  -0.087  0.00  0.00    -0.050 Br
ENDBRANCH   9  12
BRANCH   2  23
ATOM     23  O   UNL     1       4.979   6.082   1.300  0.00  0.00    -0.506 OA
ATOM     24  H   UNL     1       5.014   6.334   2.233  0.00  0.00    +0.292 HD
ENDBRANCH   2  23
BRANCH   1  25
ATOM     25  C   UNL     1       2.196   5.962   0.894  0.00  0.00    -0.036 C 
BRANCH  25  27
ATOM     26  C   UNL     1       2.834   6.551   3.155  0.00  0.00    -0.096 C 
ATOM     27  N   UNL     1       1.709   6.175   2.273  0.00  0.00    +0.381 N 
ATOM     28  H   UNL     1       1.292   5.303   2.618  0.00  0.00    -0.082 HD
BRANCH  27  29
ATOM     29  C   UNL     1       0.680   7.237   2.287  0.00  0.00    -0.079 C 
BRANCH  29  30
ATOM     30  C   UNL     1       0.036   7.283   3.674  0.00  0.00    -0.019 C 
BRANCH  30  32
ATOM     31  C   UNL     1      -1.691   8.409   5.085  0.00  0.00    +0.004 C 
ATOM     32  C   UNL     1      -1.047   8.363   3.698  0.00  0.00    -0.005 C 
ENDBRANCH  30  32
ENDBRANCH  29  30
ENDBRANCH  27  29
ENDBRANCH  25  27
ENDBRANCH   1  25
TORSDOF 7
