REMARK  Name = ZINC39604488
REMARK  11 active torsions:
REMARK  status: ('A' for Active; 'I' for Inactive)
REMARK    1  A    between atoms: C_1  and  C_2
REMARK    2  A    between atoms: C_2  and  O_3
REMARK    3  A    between atoms: O_3  and  C_4
REMARK    4  A    between atoms: C_4  and  C_5
REMARK    5  A    between atoms: C_5  and  C_6
REMARK    6  A    between atoms: C_6  and  N_7
REMARK    7  A    between atoms: C_8  and  C_10
REMARK    8  A    between atoms: C_21  and  C_23
REMARK    9  A    between atoms: C_29  and  O_31
REMARK   10  A    between atoms: O_31  and  C_32
REMARK   11  A    between atoms: C_32  and  C_33
REMARK                            x       y       z     vdW  Elec       q    Type
REMARK                         _______ _______ _______ _____ _____    ______ ____
ROOT
ATOM      1  C   UNL     1       3.170  -5.820  -5.499  0.00  0.00    +0.100 C 
ATOM      2  C   UNL     1       4.584  -5.197  -5.517  0.00  0.00    +0.121 C 
ATOM      3  N   UNL     1       5.470  -6.264  -4.996  0.00  0.00    -0.300 N 
ATOM      4  C   UNL     1       4.938  -7.511  -5.597  0.00  0.00    +0.115 C 
ATOM      5  C   UNL     1       3.407  -7.338  -5.555  0.00  0.00    -0.004 C 
ATOM      6  C   UNL     1       2.775  -7.926  -6.814  0.00  0.00    -0.010 C 
ATOM      7  C   UNL     1       2.973  -9.444  -6.818  0.00  0.00    -0.082 C 
ATOM      8  N   UNL     1       2.354 -10.023  -5.620  0.00  0.00    +0.379 N 
ATOM      9  C   UNL     1       3.030  -9.524  -4.416  0.00  0.00    -0.082 C 
ATOM     10  C   UNL     1       2.835  -8.009  -4.310  0.00  0.00    -0.010 C 
ATOM     11  C   UNL     1       6.522  -6.132  -4.164  0.00  0.00    +0.219 C 
ATOM     12  O   UNL     1       7.154  -7.109  -3.826  0.00  0.00    -0.275 OA
ATOM     13  H   UNL     1       1.379  -9.765  -5.588  0.00  0.00    -0.086 HD
ATOM     14  H   UNL     1       2.432 -11.029  -5.655  0.00  0.00    -0.086 HD
ENDROOT
BRANCH  11  15
ATOM     15  C   UNL     1       6.912  -4.768  -3.655  0.00  0.00    +0.078 C 
ATOM     16  C   UNL     1       7.258  -3.861  -4.838  0.00  0.00    +0.032 C 
ATOM     17  C   UNL     1       7.621  -2.467  -4.318  0.00  0.00    +0.112 C 
ATOM     18  N   UNL     1       8.695  -2.597  -3.324  0.00  0.00    -0.267 N 
ATOM     19  C   UNL     1       8.502  -3.514  -2.192  0.00  0.00    +0.112 C 
ATOM     20  C   UNL     1       8.129  -4.897  -2.735  0.00  0.00    +0.032 C 
ATOM     21  C   UNL     1       9.835  -1.889  -3.448  0.00  0.00    +0.403 C 
ATOM     22  O   UNL     1       9.983  -1.135  -4.389  0.00  0.00    -0.226 OA
BRANCH  21  23
ATOM     23  O   UNL     1      10.811  -2.019  -2.529  0.00  0.00    -0.445 OA
BRANCH  23  24
ATOM     24  C   UNL     1      11.992  -1.239  -2.723  0.00  0.00    +0.269 C 
BRANCH  24  25
ATOM     25  C   UNL     1      12.965  -1.513  -1.605  0.00  0.00    -0.010 A 
ATOM     26  C   UNL     1      12.924  -0.752  -0.452  0.00  0.00    +0.007 A 
ATOM     27  C   UNL     1      13.816  -1.003   0.574  0.00  0.00    +0.000 A 
ATOM     28  C   UNL     1      14.748  -2.016   0.446  0.00  0.00    +0.000 A 
ATOM     29  C   UNL     1      14.788  -2.777  -0.707  0.00  0.00    +0.000 A 
ATOM     30  C   UNL     1      13.894  -2.529  -1.731  0.00  0.00    +0.007 A 
ENDBRANCH  24  25
ENDBRANCH  23  24
ENDBRANCH  21  23
ENDBRANCH  11  15
BRANCH   1  32
ATOM     31  N   UNL     1       1.103  -5.368  -4.217  0.00  0.00    -0.315 N 
ATOM     32  C   UNL     1       2.449  -5.448  -4.229  0.00  0.00    +0.218 C 
ATOM     33  O   UNL     1       3.079  -5.221  -3.218  0.00  0.00    -0.275 OA
ATOM     34  H   UNL     1       0.599  -5.550  -5.026  0.00  0.00    +0.149 HD
BRANCH  31  35
ATOM     35  C   UNL     1       0.402  -5.006  -2.982  0.00  0.00    +0.106 C 
BRANCH  35  36
ATOM     36  C   UNL     1      -1.106  -4.987  -3.239  0.00  0.00    +0.047 C 
BRANCH  36  37
ATOM     37  C   UNL     1      -1.838  -4.609  -1.950  0.00  0.00    +0.161 C 
BRANCH  37  38
ATOM     38  O   UNL     1      -3.247  -4.591  -2.190  0.00  0.00    -0.380 OA
BRANCH  38  40
ATOM     39  C   UNL     1      -5.511  -4.260  -1.415  0.00  0.00    +0.034 C 
ATOM     40  C   UNL     1      -4.027  -4.248  -1.043  0.00  0.00    +0.156 C 
ENDBRANCH  38  40
ENDBRANCH  37  38
ENDBRANCH  36  37
ENDBRANCH  35  36
ENDBRANCH  31  35
ENDBRANCH   1  32
TORSDOF 10
