REMARK  Name = ZINC39488284
REMARK  12 active torsions:
REMARK  status: ('A' for Active; 'I' for Inactive)
REMARK    1  A    between atoms: C_1  and  C_2
REMARK    2  A    between atoms: C_2  and  C_3
REMARK    3  A    between atoms: C_2  and  S_4
REMARK    4  A    between atoms: S_4  and  N_7
REMARK    5  A    between atoms: C_10  and  C_13
REMARK    6  A    between atoms: C_10  and  C_30
REMARK    7  A    between atoms: C_13  and  N_14
REMARK    8  A    between atoms: N_17  and  S_28
REMARK    9  A    between atoms: C_19  and  C_20
REMARK   10  A    between atoms: C_19  and  C_21
REMARK   11  A    between atoms: C_26  and  O_27
REMARK   12  A    between atoms: S_28  and  C_29
REMARK                            x       y       z     vdW  Elec       q    Type
REMARK                         _______ _______ _______ _____ _____    ______ ____
ROOT
ATOM      1  N   UNL     1       0.034  -3.066  -0.434  0.00  0.00    -0.181 NA
ATOM      2  C   UNL     1       0.041  -4.353  -1.145  0.00  0.00    +0.109 C 
ATOM      3  C   UNL     1      -1.362  -4.965  -1.069  0.00  0.00    +0.026 C 
ATOM      4  C   UNL     1      -1.795  -5.057   0.396  0.00  0.00    -0.008 C 
ATOM      5  C   UNL     1      -1.847  -3.654   1.004  0.00  0.00    +0.026 C 
ATOM      6  C   UNL     1      -0.445  -3.028   0.954  0.00  0.00    +0.109 C 
ENDROOT
BRANCH   4   7
ATOM      7  C   UNL     1      -3.181  -5.700   0.478  0.00  0.00    -0.003 C 
ATOM      8  C   UNL     1      -3.188  -7.003  -0.324  0.00  0.00    +0.004 C 
ATOM      9  C   UNL     1      -4.574  -7.645  -0.242  0.00  0.00    +0.000 C 
ATOM     10  C   UNL     1      -5.616  -6.685  -0.820  0.00  0.00    +0.000 C 
ATOM     11  C   UNL     1      -5.609  -5.383  -0.018  0.00  0.00    +0.000 C 
ATOM     12  C   UNL     1      -4.223  -4.740  -0.100  0.00  0.00    +0.004 C 
ENDBRANCH   4   7
BRANCH   1  13
ATOM     13  S   UNL     1       0.563  -1.687  -1.183  0.00  0.00    +0.034 S 
ATOM     14  O   UNL     1      -0.002  -0.625  -0.427  0.00  0.00    -0.158 OA
ATOM     15  O   UNL     1       0.224  -1.864  -2.551  0.00  0.00    -0.158 OA
BRANCH  13  17
ATOM     16  C   UNL     1       2.968  -0.466  -1.637  0.00  0.00    +0.033 C 
ATOM     17  C   UNL     1       2.366  -1.708  -0.979  0.00  0.00    +0.142 C 
ATOM     18  C   UNL     1       2.710  -1.713   0.512  0.00  0.00    +0.033 C 
ENDBRANCH  13  17
ENDBRANCH   1  13
BRANCH   4  19
ATOM     19  C   UNL     1      -0.791  -5.912   1.171  0.00  0.00    +0.117 C 
BRANCH  19  20
ATOM     20  N   UNL     1      -1.199  -5.992   2.576  0.00  0.00    -0.273 N 
ATOM     21  C   UNL     1      -1.132  -4.990   3.462  0.00  0.00    +0.315 C 
ATOM     22  O   UNL     1      -0.714  -3.883   3.181  0.00  0.00    -0.252 OA
ATOM     23  N   UNL     1      -1.568  -5.317   4.686  0.00  0.00    -0.227 N 
ATOM     24  C   UNL     1      -2.001  -6.722   4.685  0.00  0.00    +0.153 C 
ATOM     25  C   UNL     1      -1.754  -7.184   3.236  0.00  0.00    +0.081 C 
ATOM     26  C   UNL     1      -3.067  -7.603   2.571  0.00  0.00    +0.039 C 
BRANCH  25  27
ATOM     27  C   UNL     1      -0.760  -8.316   3.206  0.00  0.00    +0.019 A 
ATOM     28  C   UNL     1       0.476  -8.136   2.615  0.00  0.00    +0.009 A 
ATOM     29  C   UNL     1       1.388  -9.174   2.587  0.00  0.00    +0.001 A 
ATOM     30  C   UNL     1       1.066 -10.395   3.150  0.00  0.00    +0.004 A 
ATOM     31  C   UNL     1      -0.168 -10.581   3.742  0.00  0.00    +0.046 A 
ATOM     32  C   UNL     1      -1.083  -9.539   3.776  0.00  0.00    +0.122 A 
BRANCH  32  33
ATOM     33  O   UNL     1      -2.296  -9.717   4.363  0.00  0.00    -0.506 OA
ATOM     34  H   UNL     1      -2.980 -10.040   3.761  0.00  0.00    +0.292 HD
ENDBRANCH  32  33
ENDBRANCH  25  27
BRANCH  23  35
ATOM     35  S   UNL     1      -1.611  -4.301   5.992  0.00  0.00    -0.059 S 
ATOM     36  C   UNL     1      -3.302  -3.645   5.982  0.00  0.00    +0.107 C 
ENDBRANCH  23  35
ENDBRANCH  19  20
ENDBRANCH   4  19
TORSDOF 8
