REMARK  Name = ZINC65409344
REMARK  6 active torsions:
REMARK  status: ('A' for Active; 'I' for Inactive)
REMARK    1  A    between atoms: C_1  and  C_2
REMARK    2  A    between atoms: C_6  and  C_8
REMARK    3  A    between atoms: C_10  and  C_25
REMARK    4  A    between atoms: N_13  and  C_14
REMARK    5  A    between atoms: C_14  and  C_15
REMARK    6  A    between atoms: C_17  and  C_20
REMARK                            x       y       z     vdW  Elec       q    Type
REMARK                         _______ _______ _______ _____ _____    ______ ____
ROOT
ATOM      1  C   UNL     1       1.282   1.697  -2.564  0.00  0.00    +0.156 C 
ATOM      2  C   UNL     1       2.061   2.831  -1.935  0.00  0.00    +0.068 C 
ATOM      3  N   UNL     1       2.410   3.671  -2.852  0.00  0.00    -0.270 NA
ATOM      4  C   UNL     1       1.929   3.231  -4.166  0.00  0.00    +0.229 C 
ATOM      5  N   UNL     1       1.585   1.794  -4.014  0.00  0.00    -0.264 NA
ENDROOT
BRANCH   1  11
ATOM      6  C   UNL     1      -0.949  -0.427  -3.120  0.00  0.00    +0.065 C 
ATOM      7  C   UNL     1      -1.151   0.958  -2.563  0.00  0.00    +0.035 A 
ATOM      8  N   UNL     1      -2.343   1.525  -2.198  0.00  0.00    -0.350 N 
ATOM      9  C   UNL     1      -2.073   2.770  -1.751  0.00  0.00    +0.171 A 
ATOM     10  N   UNL     1      -0.786   2.973  -1.831  0.00  0.00    -0.348 N 
ATOM     11  C   UNL     1      -0.194   1.874  -2.322  0.00  0.00    +0.060 A 
ATOM     12  H   UNL     1      -3.218   1.109  -2.250  0.00  0.00    +0.166 HD
ATOM     13  H   UNL     1      -0.329   3.789  -1.574  0.00  0.00    +0.166 HD
ENDBRANCH   1  11
BRANCH   2  14
ATOM     14  C   UNL     1       2.372   2.958  -0.498  0.00  0.00    -0.002 A 
ATOM     15  C   UNL     1       2.050   1.924   0.383  0.00  0.00    +0.010 A 
ATOM     16  C   UNL     1       2.344   2.050   1.725  0.00  0.00    +0.001 A 
ATOM     17  C   UNL     1       2.956   3.197   2.199  0.00  0.00    +0.000 A 
ATOM     18  C   UNL     1       3.277   4.226   1.331  0.00  0.00    +0.001 A 
ATOM     19  C   UNL     1       2.995   4.111  -0.015  0.00  0.00    +0.010 A 
ENDBRANCH   2  14
BRANCH   5  20
ATOM     20  C   UNL     1       2.724   0.938  -4.373  0.00  0.00    +0.146 C 
BRANCH  20  21
ATOM     21  C   UNL     1       2.847   0.870  -5.873  0.00  0.00    +0.098 A 
ATOM     22  C   UNL     1       3.680   1.671  -6.664  0.00  0.00    +0.080 A 
ATOM     23  C   UNL     1       3.505   1.303  -7.967  0.00  0.00    +0.202 A 
ATOM     24  O   UNL     1       2.597   0.308  -7.991  0.00  0.00    -0.351 OA
ATOM     25  N   UNL     1       2.201   0.050  -6.656  0.00  0.00    -0.081 NA
BRANCH  23  26
ATOM     26  C   UNL     1       4.184   1.886  -9.133  0.00  0.00    +0.172 A 
ATOM     27  C   UNL     1       4.002   1.518 -10.433  0.00  0.00    +0.053 A 
ATOM     28  C   UNL     1       4.848   2.334 -11.207  0.00  0.00    +0.042 A 
ATOM     29  C   UNL     1       5.499   3.152 -10.354  0.00  0.00    +0.196 A 
ATOM     30  O   UNL     1       5.092   2.883  -9.103  0.00  0.00    -0.460 OA
ENDBRANCH  23  26
ENDBRANCH  20  21
ENDBRANCH   5  20
TORSDOF 5
