REMARK  Name = ZINC38651812
REMARK  11 active torsions:
REMARK  status: ('A' for Active; 'I' for Inactive)
REMARK    1  A    between atoms: C_1  and  C_2
REMARK    2  A    between atoms: C_2  and  C_3
REMARK    3  A    between atoms: C_3  and  C_4
REMARK    4  A    between atoms: C_4  and  O_5
REMARK    5  A    between atoms: O_5  and  C_6
REMARK    6  A    between atoms: C_11  and  C_12
REMARK    7  A    between atoms: C_12  and  O_14
REMARK    8  A    between atoms: O_14  and  C_15
REMARK    9  A    between atoms: C_22  and  N_35
REMARK   10  A    between atoms: C_23  and  C_33
REMARK   11  A    between atoms: C_24  and  C_26
REMARK                            x       y       z     vdW  Elec       q    Type
REMARK                         _______ _______ _______ _____ _____    ______ ____
ROOT
ATOM      1  C   UNL     1      -7.621  -3.208   0.025  0.00  0.00    +0.135 A 
ATOM      2  C   UNL     1      -7.321  -1.855  -0.048  0.00  0.00    +0.047 A 
ATOM      3  C   UNL     1      -8.338  -0.922  -0.067  0.00  0.00    +0.012 A 
ATOM      4  C   UNL     1      -9.660  -1.330  -0.013  0.00  0.00    +0.008 A 
ATOM      5  C   UNL     1      -9.965  -2.680   0.059  0.00  0.00    +0.138 A 
ATOM      6  C   UNL     1      -8.943  -3.620   0.072  0.00  0.00    +0.093 A 
ATOM      7  O   UNL     1     -11.254  -3.099   0.112  0.00  0.00    -0.441 OA
ATOM      8  C   UNL     1     -12.242  -2.280  -0.285  0.00  0.00    +0.199 C 
ATOM      9  C   UNL     1     -12.070  -0.941  -0.375  0.00  0.00    +0.098 C 
ATOM     10  C   UNL     1     -10.755  -0.297  -0.035  0.00  0.00    +0.098 C 
ENDROOT
BRANCH  10  11
ATOM     11  C   UNL     1     -10.854   0.353   1.321  0.00  0.00    -0.035 A 
ATOM     12  C   UNL     1     -11.132  -0.415   2.437  0.00  0.00    +0.005 A 
ATOM     13  C   UNL     1     -11.223   0.181   3.681  0.00  0.00    +0.015 A 
ATOM     14  C   UNL     1     -11.036   1.546   3.809  0.00  0.00    +0.018 A 
ATOM     15  C   UNL     1     -10.759   2.313   2.693  0.00  0.00    +0.015 A 
ATOM     16  C   UNL     1     -10.663   1.716   1.450  0.00  0.00    +0.005 A 
ATOM     17 BR   UNL     1     -11.161   2.361   5.511  0.00  0.00    -0.050 Br
ENDBRANCH  10  11
BRANCH   8  18
ATOM     18  N   UNL     1     -13.463  -2.818  -0.607  0.00  0.00    -0.328 N 
ATOM     19  H   UNL     1     -13.602  -3.776  -0.547  0.00  0.00    +0.145 HD
ATOM     20  H   UNL     1     -14.187  -2.240  -0.896  0.00  0.00    +0.145 HD
ENDBRANCH   8  18
BRANCH   9  21
ATOM     21  C   UNL     1     -13.162  -0.120  -0.805  0.00  0.00    +0.101 C 
ATOM     22  N   UNL     1     -14.028   0.531  -1.146  0.00  0.00    -0.191 NA
ENDBRANCH   9  21
BRANCH   1  23
ATOM     23  O   UNL     1      -6.620  -4.127   0.044  0.00  0.00    -0.422 OA
BRANCH  23  24
ATOM     24  C   UNL     1      -6.362  -4.804  -1.093  0.00  0.00    +0.348 C 
ATOM     25  O   UNL     1      -7.072  -4.650  -2.067  0.00  0.00    -0.244 OA
BRANCH  24  31
ATOM     26  C   UNL     1      -4.946  -6.439  -2.333  0.00  0.00    +0.134 A 
ATOM     27  C   UNL     1      -3.863  -7.304  -2.381  0.00  0.00    +0.046 A 
ATOM     28  C   UNL     1      -3.062  -7.473  -1.270  0.00  0.00    +0.004 A 
ATOM     29  C   UNL     1      -3.331  -6.780  -0.100  0.00  0.00    +0.001 A 
ATOM     30  C   UNL     1      -4.402  -5.917  -0.034  0.00  0.00    +0.018 A 
ATOM     31  C   UNL     1      -5.218  -5.732  -1.154  0.00  0.00    +0.101 A 
BRANCH  26  32
ATOM     32  O   UNL     1      -5.734  -6.272  -3.425  0.00  0.00    -0.491 OA
BRANCH  32  33
ATOM     33  C   UNL     1      -5.395  -7.026  -4.591  0.00  0.00    +0.229 C 
BRANCH  33  34
ATOM     34  C   UNL     1      -6.389  -6.709  -5.710  0.00  0.00    +0.041 C 
BRANCH  34  36
ATOM     35  C   UNL     1      -7.020  -7.199  -8.077  0.00  0.00    +0.004 C 
ATOM     36  C   UNL     1      -6.026  -7.516  -6.958  0.00  0.00    -0.000 C 
ENDBRANCH  34  36
ENDBRANCH  33  34
ENDBRANCH  32  33
ENDBRANCH  26  32
ENDBRANCH  24  31
ENDBRANCH  23  24
ENDBRANCH   1  23
TORSDOF 10
