REMARK  Name = ZINC06194900
REMARK  13 active torsions:
REMARK  status: ('A' for Active; 'I' for Inactive)
REMARK    1  A    between atoms: C_1  and  C_2
REMARK    2  A    between atoms: C_6  and  C_15
REMARK    3  A    between atoms: C_13  and  C_14
REMARK    4  A    between atoms: C_15  and  C_17
REMARK    5  A    between atoms: C_15  and  N_68
REMARK    6  A    between atoms: N_21  and  C_22
REMARK    7  A    between atoms: C_22  and  C_23
REMARK    8  A    between atoms: C_22  and  C_24
REMARK    9  A    between atoms: C_22  and  C_25
REMARK   10  A    between atoms: C_26  and  C_27
REMARK   11  A    between atoms: C_26  and  N_68
REMARK   12  A    between atoms: C_33  and  C_34
REMARK   13  A    between atoms: C_33  and  N_68
REMARK                            x       y       z     vdW  Elec       q    Type
REMARK                         _______ _______ _______ _____ _____    ______ ____
ROOT
ATOM      1  C   UNL     1       1.776   3.116   0.231  0.00  0.00    +0.040 C 
ENDROOT
BRANCH   1   7
ATOM      2  C   UNL     1      -3.097   7.911  -2.749  0.00  0.00    +0.044 C 
ATOM      3  C   UNL     1      -2.096   6.794  -2.894  0.00  0.00    -0.047 A 
ATOM      4  C   UNL     1      -1.467   6.301  -1.786  0.00  0.00    +0.013 A 
ATOM      5  C   UNL     1      -0.538   5.264  -1.921  0.00  0.00    -0.001 A 
ATOM      6  C   UNL     1       0.152   4.708  -0.755  0.00  0.00    +0.017 A 
ATOM      7  C   UNL     1       1.046   3.707  -0.947  0.00  0.00    +0.011 A 
ATOM      8  C   UNL     1       1.291   3.213  -2.246  0.00  0.00    +0.251 A 
ATOM      9  O   UNL     1       2.095   2.310  -2.396  0.00  0.00    -0.268 OA
ATOM     10  N   UNL     1       0.659   3.713  -3.323  0.00  0.00    -0.322 N 
ATOM     11  H   UNL     1       0.851   3.350  -4.201  0.00  0.00    +0.169 HD
ATOM     12  C   UNL     1      -0.258   4.735  -3.195  0.00  0.00    +0.049 A 
ATOM     13  C   UNL     1      -0.911   5.253  -4.309  0.00  0.00    +0.030 A 
ATOM     14  C   UNL     1      -1.822   6.276  -4.152  0.00  0.00    -0.046 A 
ATOM     15  C   UNL     1      -2.529   6.836  -5.360  0.00  0.00    +0.044 C 
ENDBRANCH   1   7
BRANCH   1  16
ATOM     16  C   UNL     1       3.250   3.405   0.105  0.00  0.00    +0.143 A 
ATOM     17  N   UNL     1       4.075   2.894  -0.776  0.00  0.00    -0.115 NA
ATOM     18  N   UNL     1       5.245   3.389  -0.559  0.00  0.00    -0.023 NA
ATOM     19  N   UNL     1       5.189   4.197   0.442  0.00  0.00    -0.043 NA
ATOM     20  N   UNL     1       3.975   4.234   0.879  0.00  0.00    -0.225 N 
BRANCH  20  21
ATOM     21  C   UNL     1       3.480   5.029   2.006  0.00  0.00    +0.059 C 
ATOM     22  C   UNL     1       2.943   4.095   3.092  0.00  0.00    +0.036 C 
ATOM     23  C   UNL     1       4.623   5.871   2.577  0.00  0.00    +0.036 C 
ATOM     24  C   UNL     1       2.358   5.951   1.525  0.00  0.00    +0.036 C 
ENDBRANCH  20  21
ENDBRANCH   1  16
BRANCH   1  25
ATOM     25  N   UNL     1       1.574   1.652   0.237  0.00  0.00    +0.397 N 
ATOM     26  H   UNL     1       1.969   1.258  -0.625  0.00  0.00    -0.079 HD
BRANCH  25  27
ATOM     27  C   UNL     1       2.261   1.052   1.399  0.00  0.00    -0.039 C 
BRANCH  27  28
ATOM     28  C   UNL     1       2.437  -0.424   1.147  0.00  0.00    -0.046 A 
ATOM     29  C   UNL     1       1.449  -1.322   1.524  0.00  0.00    +0.005 A 
ATOM     30  C   UNL     1       1.651  -2.669   1.268  0.00  0.00    +0.020 A 
ATOM     31  C   UNL     1       2.826  -3.071   0.660  0.00  0.00    +0.111 A 
ATOM     32  N   UNL     1       3.745  -2.189   0.320  0.00  0.00    -0.263 NA
ATOM     33  C   UNL     1       3.585  -0.899   0.544  0.00  0.00    +0.112 A 
ENDBRANCH  27  28
ENDBRANCH  25  27
BRANCH  25  34
ATOM     34  C   UNL     1       0.130   1.342   0.289  0.00  0.00    -0.001 C 
BRANCH  34  35
ATOM     35  C   UNL     1      -0.476   1.857   1.569  0.00  0.00    +0.089 A 
ATOM     36  C   UNL     1      -1.099   3.038   1.726  0.00  0.00    +0.042 A 
ATOM     37  C   UNL     1      -1.507   3.111   3.078  0.00  0.00    +0.041 A 
ATOM     38  C   UNL     1      -1.108   1.969   3.667  0.00  0.00    +0.195 A 
ATOM     39  O   UNL     1      -0.489   1.211   2.747  0.00  0.00    -0.470 OA
ENDBRANCH  34  35
ENDBRANCH  25  34
ENDBRANCH   1  25
TORSDOF 8
