REMARK  Name = ZINC15945259
REMARK  8 active torsions:
REMARK  status: ('A' for Active; 'I' for Inactive)
REMARK    1  A    between atoms: C_4  and  C_7
REMARK    2  A    between atoms: C_7  and  O_8
REMARK    3  A    between atoms: O_8  and  C_9
REMARK    4  A    between atoms: C_12  and  C_15
REMARK    5  A    between atoms: C_17  and  C_32
REMARK    6  A    between atoms: N_19  and  C_22
REMARK    7  A    between atoms: C_25  and  S_28
REMARK    8  A    between atoms: S_28  and  N_31
REMARK                            x       y       z     vdW  Elec       q    Type
REMARK                         _______ _______ _______ _____ _____    ______ ____
ROOT
ATOM      1  C   UNL     1      -7.817   6.812  -1.971  0.00  0.00    +0.023 C 
ATOM      2  C   UNL     1      -8.593   7.127  -0.869  0.00  0.00    +0.071 C 
ATOM      3  C   UNL     1      -9.928   7.745  -0.860  0.00  0.00    +0.174 C 
ATOM      4  N   UNL     1     -10.297   7.861   0.379  0.00  0.00    -0.167 NA
ATOM      5  N   UNL     1      -9.319   7.381   1.249  0.00  0.00    -0.156 N 
ATOM      6  C   UNL     1      -8.261   6.922   0.551  0.00  0.00    +0.272 C 
ATOM      7  O   UNL     1      -7.238   6.437   1.003  0.00  0.00    -0.268 OA
ENDROOT
BRANCH   1  11
ATOM      8  C   UNL     1      -4.262   4.582  -1.483  0.00  0.00    +0.121 A 
ATOM      9  C   UNL     1      -4.309   5.615  -2.414  0.00  0.00    +0.046 A 
ATOM     10  C   UNL     1      -5.457   6.335  -2.581  0.00  0.00    +0.011 A 
ATOM     11  C   UNL     1      -6.587   6.040  -1.802  0.00  0.00    -0.024 A 
ATOM     12  C   UNL     1      -6.530   5.001  -0.860  0.00  0.00    +0.011 A 
ATOM     13  C   UNL     1      -5.378   4.284  -0.708  0.00  0.00    +0.046 A 
BRANCH   8  14
ATOM     14  O   UNL     1      -3.120   3.866  -1.326  0.00  0.00    -0.487 OA
BRANCH  14  15
ATOM     15  C   UNL     1      -2.011   4.224  -2.153  0.00  0.00    +0.264 C 
BRANCH  15  19
ATOM     16  C   UNL     1       1.305   1.681  -1.267  0.00  0.00    +0.000 A 
ATOM     17  C   UNL     1       1.140   2.867  -0.577  0.00  0.00    +0.000 A 
ATOM     18  C   UNL     1       0.064   3.688  -0.860  0.00  0.00    +0.007 A 
ATOM     19  C   UNL     1      -0.841   3.327  -1.841  0.00  0.00    -0.010 A 
ATOM     20  C   UNL     1      -0.676   2.140  -2.531  0.00  0.00    +0.007 A 
ATOM     21  C   UNL     1       0.397   1.317  -2.244  0.00  0.00    +0.000 A 
ENDBRANCH  15  19
ENDBRANCH  14  15
ENDBRANCH   8  14
ENDBRANCH   1  11
BRANCH   5  22
ATOM     22  C   UNL     1      -9.422   7.377   2.646  0.00  0.00    +0.060 A 
ATOM     23  C   UNL     1      -8.386   6.868   3.418  0.00  0.00    +0.027 A 
ATOM     24  C   UNL     1      -8.487   6.870   4.795  0.00  0.00    +0.030 A 
ATOM     25  C   UNL     1      -9.623   7.368   5.406  0.00  0.00    +0.105 A 
ATOM     26  C   UNL     1     -10.659   7.870   4.640  0.00  0.00    +0.030 A 
ATOM     27  C   UNL     1     -10.562   7.876   3.262  0.00  0.00    +0.027 A 
BRANCH  25  28
ATOM     28  S   UNL     1      -9.752   7.364   7.163  0.00  0.00    +0.056 S 
ATOM     29  O   UNL     1      -8.423   7.343   7.667  0.00  0.00    -0.153 OA
ATOM     30  O   UNL     1     -10.681   8.383   7.505  0.00  0.00    -0.153 OA
BRANCH  28  31
ATOM     31  N   UNL     1     -10.445   5.925   7.600  0.00  0.00    -0.204 NA
ATOM     32  H   UNL     1     -10.229   5.522   8.455  0.00  0.00    +0.144 HD
ATOM     33  H   UNL     1     -11.068   5.485   7.000  0.00  0.00    +0.144 HD
ENDBRANCH  28  31
ENDBRANCH  25  28
ENDBRANCH   5  22
BRANCH   3  34
ATOM     34  C   UNL     1     -10.724   8.162  -2.069  0.00  0.00    +0.436 C 
ATOM     35  F   UNL     1     -11.944   8.711  -1.658  0.00  0.00    -0.164 F 
ATOM     36  F   UNL     1     -10.004   9.118  -2.794  0.00  0.00    -0.164 F 
ATOM     37  F   UNL     1     -10.963   7.046  -2.878  0.00  0.00    -0.164 F 
ENDBRANCH   3  34
TORSDOF 8
