REMARK  Name = ZINC08950563
REMARK  13 active torsions:
REMARK  status: ('A' for Active; 'I' for Inactive)
REMARK    1  A    between atoms: C_1  and  C_2
REMARK    2  A    between atoms: C_2  and  C_3
REMARK    3  A    between atoms: C_7  and  C_36
REMARK    4  A    between atoms: C_8  and  N_9
REMARK    5  A    between atoms: C_10  and  C_12
REMARK    6  A    between atoms: C_12  and  C_14
REMARK    7  A    between atoms: C_12  and  S_15
REMARK    8  A    between atoms: S_15  and  C_16
REMARK    9  A    between atoms: C_20  and  C_23
REMARK   10  A    between atoms: C_26  and  C_29
REMARK   11  A    between atoms: N_32  and  C_33
REMARK   12  A    between atoms: C_33  and  C_34
REMARK   13  A    between atoms: C_36  and  C_37
REMARK                            x       y       z     vdW  Elec       q    Type
REMARK                         _______ _______ _______ _____ _____    ______ ____
ROOT
ATOM      1  C   UNL     1       1.089  -2.298   0.110  0.00  0.00    +0.174 A 
ATOM      2  N   UNL     1       1.699  -3.455  -0.046  0.00  0.00    -0.216 NA
ATOM      3  C   UNL     1       2.943  -3.514  -0.507  0.00  0.00    +0.117 A 
ATOM      4  C   UNL     1       3.666  -2.358  -0.850  0.00  0.00    +0.080 A 
ATOM      5  C   UNL     1       5.019  -2.599  -1.341  0.00  0.00    +0.004 A 
ATOM      6  C   UNL     1       5.463  -3.875  -1.427  0.00  0.00    +0.056 A 
ATOM      7  S   UNL     1       4.077  -4.835  -0.849  0.00  0.00    -0.076 S 
ATOM      8  C   UNL     1       2.977  -1.118  -0.677  0.00  0.00    +0.264 A 
ATOM      9  O   UNL     1       3.524  -0.064  -0.953  0.00  0.00    -0.267 OA
ATOM     10  N   UNL     1       1.719  -1.128  -0.200  0.00  0.00    -0.283 N 
ENDROOT
BRANCH   5  11
ATOM     11  C   UNL     1       5.891  -1.468  -1.738  0.00  0.00    -0.017 A 
ATOM     12  C   UNL     1       5.417  -0.492  -2.613  0.00  0.00    +0.009 A 
ATOM     13  C   UNL     1       6.232   0.561  -2.975  0.00  0.00    +0.004 A 
ATOM     14  C   UNL     1       7.521   0.643  -2.479  0.00  0.00    -0.050 A 
ATOM     15  C   UNL     1       7.999  -0.325  -1.614  0.00  0.00    +0.004 A 
ATOM     16  C   UNL     1       7.191  -1.380  -1.241  0.00  0.00    +0.009 A 
ATOM     17  C   UNL     1       8.408   1.793  -2.883  0.00  0.00    +0.044 C 
ENDBRANCH   5  11
BRANCH   1  18
ATOM     18  S   UNL     1      -0.562  -2.261   0.725  0.00  0.00    -0.075 S 
BRANCH  18  19
ATOM     19  C   UNL     1      -0.855  -4.034   0.946  0.00  0.00    +0.137 C 
ATOM     20  C   UNL     1      -0.832  -4.728  -0.417  0.00  0.00    +0.029 C 
BRANCH  19  22
ATOM     21  N   UNL     1      -2.436  -5.364   2.305  0.00  0.00    -0.284 N 
ATOM     22  C   UNL     1      -2.199  -4.244   1.594  0.00  0.00    +0.230 C 
ATOM     23  O   UNL     1      -3.067  -3.405   1.476  0.00  0.00    -0.274 OA
ATOM     24  H   UNL     1      -1.754  -6.050   2.371  0.00  0.00    +0.155 HD
BRANCH  21  30
ATOM     25  C   UNL     1      -4.418  -6.681   2.720  0.00  0.00    -0.026 A 
ATOM     26  C   UNL     1      -5.629  -6.850   3.362  0.00  0.00    +0.005 A 
ATOM     27  C   UNL     1      -6.099  -5.876   4.223  0.00  0.00    +0.001 A 
ATOM     28  C   UNL     1      -5.356  -4.732   4.449  0.00  0.00    +0.005 A 
ATOM     29  C   UNL     1      -4.141  -4.559   3.815  0.00  0.00    -0.026 A 
ATOM     30  C   UNL     1      -3.666  -5.535   2.950  0.00  0.00    +0.040 A 
BRANCH  25  32
ATOM     31  C   UNL     1      -2.851  -8.588   2.486  0.00  0.00    +0.009 C 
ATOM     32  C   UNL     1      -3.909  -7.740   1.777  0.00  0.00    +0.033 C 
ENDBRANCH  25  32
BRANCH  29  33
ATOM     33  C   UNL     1      -3.332  -3.311   4.061  0.00  0.00    +0.033 C 
ATOM     34  C   UNL     1      -4.268  -2.166   4.453  0.00  0.00    +0.009 C 
ENDBRANCH  29  33
ENDBRANCH  21  30
ENDBRANCH  19  22
ENDBRANCH  18  19
ENDBRANCH   1  18
BRANCH  10  35
ATOM     35  C   UNL     1       1.010   0.141  -0.015  0.00  0.00    +0.154 C 
BRANCH  35  36
ATOM     36  C   UNL     1       1.264   0.660   1.377  0.00  0.00    -0.013 C 
ATOM     37  C   UNL     1       1.753   1.863   1.549  0.00  0.00    +0.005 C 
ENDBRANCH  35  36
ENDBRANCH  10  35
TORSDOF 9
