REMARK  Name = ZINC21686025
REMARK  6 active torsions:
REMARK  status: ('A' for Active; 'I' for Inactive)
REMARK    1  A    between atoms: C_1  and  C_2
REMARK    2  A    between atoms: C_4  and  N_17
REMARK    3  A    between atoms: C_18  and  C_20
REMARK    4  A    between atoms: C_20  and  C_21
REMARK    5  A    between atoms: C_21  and  S_22
REMARK    6  A    between atoms: S_22  and  C_25
REMARK                            x       y       z     vdW  Elec       q    Type
REMARK                         _______ _______ _______ _____ _____    ______ ____
ROOT
ATOM      1  C   UNL     1      -1.209  -0.901   0.009  0.00  0.00    +0.067 C 
ATOM      2  C   UNL     1       0.002  -0.004   0.002  0.00  0.00    +0.062 A 
ATOM      3  C   UNL     1      -0.017   1.394   0.010  0.00  0.00    +0.068 A 
ATOM      4  C   UNL     1       1.272   1.830  -0.000  0.00  0.00    +0.131 A 
ATOM      5  N   UNL     1       2.075   0.728  -0.014  0.00  0.00    -0.194 N 
ATOM      6  N   UNL     1       1.248  -0.403  -0.012  0.00  0.00    -0.168 NA
ATOM      7  C   UNL     1       3.465   0.727  -0.027  0.00  0.00    +0.197 A 
ATOM      8  N   UNL     1       4.287  -0.295  -0.040  0.00  0.00    -0.220 NA
ATOM      9  C   UNL     1       5.629  -0.148  -0.052  0.00  0.00    +0.099 A 
ATOM     10  C   UNL     1       6.099   1.185  -0.050  0.00  0.00    +0.042 A 
ATOM     11  S   UNL     1       4.587   2.118  -0.037  0.00  0.00    -0.048 S 
ATOM     12  C   UNL     1       7.435   1.500  -0.061  0.00  0.00    +0.017 A 
ATOM     13  C   UNL     1       8.375   0.487  -0.076  0.00  0.00    +0.003 A 
ATOM     14  C   UNL     1       7.951  -0.834  -0.079  0.00  0.00    +0.022 A 
ATOM     15  C   UNL     1       6.619  -1.159  -0.068  0.00  0.00    +0.067 A 
ATOM     16 CL   UNL     1       6.142  -2.828  -0.071  0.00  0.00    -0.081 Cl
ENDROOT
BRANCH   4  17
ATOM     17  N   UNL     1       1.694   3.158   0.002  0.00  0.00    -0.270 N 
ATOM     18  C   UNL     1       0.786   4.154   0.016  0.00  0.00    +0.220 C 
ATOM     19  O   UNL     1      -0.399   3.894   0.026  0.00  0.00    -0.275 OA
ATOM     20  H   UNL     1       2.769   3.394  -0.007  0.00  0.00    +0.156 HD
BRANCH  18  21
ATOM     21  C   UNL     1       1.242   5.590   0.018  0.00  0.00    +0.119 C 
BRANCH  21  22
ATOM     22  C   UNL     1       0.022   6.513   0.035  0.00  0.00    +0.181 C 
BRANCH  22  23
ATOM     23  S   UNL     1       0.571   8.242   0.038  0.00  0.00    -0.003 S 
ATOM     24  O   UNL     1       1.213   8.549   1.268  0.00  0.00    -0.169 OA
ATOM     25  O   UNL     1       1.189   8.561  -1.201  0.00  0.00    -0.169 OA
BRANCH  23  26
ATOM     26  C   UNL     1      -0.914   9.189   0.057  0.00  0.00    +0.088 A 
ATOM     27  C   UNL     1      -1.506   9.571  -1.133  0.00  0.00    +0.028 A 
ATOM     28  C   UNL     1      -2.674  10.309  -1.118  0.00  0.00    +0.022 A 
ATOM     29  C   UNL     1      -3.246  10.675   0.087  0.00  0.00    +0.041 A 
ATOM     30  C   UNL     1      -2.651  10.297   1.278  0.00  0.00    +0.022 A 
ATOM     31  C   UNL     1      -1.485   9.554   1.262  0.00  0.00    +0.028 A 
ATOM     32 CL   UNL     1      -4.710  11.608   0.106  0.00  0.00    -0.084 Cl
ENDBRANCH  23  26
ENDBRANCH  22  23
ENDBRANCH  21  22
ENDBRANCH  18  21
ENDBRANCH   4  17
TORSDOF 5
