REMARK  Name = ZINC40285414
REMARK  7 active torsions:
REMARK  status: ('A' for Active; 'I' for Inactive)
REMARK    1  A    between atoms: C_1  and  C_2
REMARK    2  A    between atoms: C_17  and  O_31
REMARK    3  A    between atoms: C_19  and  C_21
REMARK    4  A    between atoms: C_25  and  O_27
REMARK    5  A    between atoms: O_27  and  C_28
REMARK    6  A    between atoms: C_28  and  C_29
REMARK    7  A    between atoms: C_28  and  C_30
REMARK                            x       y       z     vdW  Elec       q    Type
REMARK                         _______ _______ _______ _____ _____    ______ ____
ROOT
ATOM      1  C   UNL     1       0.607   1.056  -0.666  0.00  0.00    +0.068 C 
ATOM      2  C   UNL     1       0.619  -0.441  -0.841  0.00  0.00    +0.066 A 
ATOM      3  C   UNL     1       0.457  -1.116  -2.036  0.00  0.00    +0.027 A 
ATOM      4  C   UNL     1       0.536  -2.477  -1.773  0.00  0.00    +0.165 A 
ATOM      5  N   UNL     1       0.736  -2.613  -0.441  0.00  0.00    -0.194 N 
ATOM      6  N   UNL     1       0.792  -1.325   0.116  0.00  0.00    -0.168 NA
ATOM      7  C   UNL     1       0.868  -3.818   0.255  0.00  0.00    +0.177 A 
ATOM      8  C   UNL     1       1.067  -3.799   1.648  0.00  0.00    +0.054 A 
ATOM      9  C   UNL     1       1.196  -4.964   2.335  0.00  0.00    +0.054 A 
ATOM     10  C   UNL     1       1.128  -6.184   1.635  0.00  0.00    +0.178 A 
ATOM     11  N   UNL     1       1.213  -7.454   1.997  0.00  0.00    -0.128 NA
ATOM     12  N   UNL     1       1.083  -8.201   0.956  0.00  0.00    -0.136 NA
ATOM     13  C   UNL     1       0.910  -7.462  -0.112  0.00  0.00    +0.249 A 
ATOM     14  N   UNL     1       0.932  -6.169   0.276  0.00  0.00    -0.198 N 
ATOM     15  N   UNL     1       0.798  -4.954  -0.399  0.00  0.00    -0.144 NA
ATOM     16  N   UNL     1       0.426  -3.404  -2.766  0.00  0.00    -0.197 NA
ATOM     17  C   UNL     1       0.530  -3.021  -4.003  0.00  0.00    +0.190 C 
ATOM     18  C   UNL     1       0.829  -1.608  -4.413  0.00  0.00    +0.108 C 
ATOM     19  C   UNL     1       0.225  -0.596  -3.433  0.00  0.00    +0.063 C 
ENDROOT
BRANCH  19  20
ATOM     20  C   UNL     1      -1.253  -0.456  -3.687  0.00  0.00    -0.036 A 
ATOM     21  C   UNL     1      -2.076  -1.564  -3.603  0.00  0.00    +0.004 A 
ATOM     22  C   UNL     1      -3.433  -1.440  -3.836  0.00  0.00    +0.004 A 
ATOM     23  C   UNL     1      -3.971  -0.207  -4.154  0.00  0.00    +0.045 A 
ATOM     24  C   UNL     1      -3.147   0.906  -4.239  0.00  0.00    +0.121 A 
ATOM     25  C   UNL     1      -1.786   0.779  -3.998  0.00  0.00    +0.050 A 
BRANCH  24  26
ATOM     26  O   UNL     1      -3.673   2.120  -4.551  0.00  0.00    -0.489 OA
BRANCH  26  27
ATOM     27  C   UNL     1      -2.789   3.241  -4.505  0.00  0.00    +0.167 C 
ATOM     28  C   UNL     1      -2.036   3.352  -5.833  0.00  0.00    +0.051 C 
ATOM     29  C   UNL     1      -3.597   4.519  -4.270  0.00  0.00    +0.051 C 
ENDBRANCH  26  27
ENDBRANCH  24  26
ENDBRANCH  19  20
BRANCH  17  30
ATOM     30  O   UNL     1       0.360  -3.943  -4.973  0.00  0.00    -0.495 OA
ATOM     31  H   UNL     1       0.171  -4.831  -4.641  0.00  0.00    +0.293 HD
ENDBRANCH  17  30
TORSDOF 4
