REMARK  Name = ZINC24883524
REMARK  10 active torsions:
REMARK  status: ('A' for Active; 'I' for Inactive)
REMARK    1  A    between atoms: C_1  and  C_2
REMARK    2  A    between atoms: C_2  and  C_3
REMARK    3  A    between atoms: C_2  and  C_4
REMARK    4  A    between atoms: C_4  and  C_6
REMARK    5  A    between atoms: C_4  and  N_24
REMARK    6  A    between atoms: N_8  and  C_9
REMARK    7  A    between atoms: C_9  and  C_10
REMARK    8  A    between atoms: C_13  and  C_15
REMARK    9  A    between atoms: N_24  and  S_25
REMARK   10  A    between atoms: S_25  and  C_28
REMARK                            x       y       z     vdW  Elec       q    Type
REMARK                         _______ _______ _______ _____ _____    ______ ____
ROOT
ATOM      1  C   UNL     1      -0.897   3.360   2.223  0.00  0.00    +0.232 C 
ATOM      2  O   UNL     1      -1.957   3.629   2.749  0.00  0.00    -0.274 OA
ATOM      3  N   UNL     1       0.158   4.185   2.374  0.00  0.00    -0.307 N 
ATOM      4  H   UNL     1       1.094   3.984   1.833  0.00  0.00    +0.149 HD
ENDROOT
BRANCH   1   5
ATOM      5  C   UNL     1      -0.761   2.104   1.403  0.00  0.00    +0.165 C 
BRANCH   5   7
ATOM      6  C   UNL     1      -2.242   2.984  -0.406  0.00  0.00    +0.009 C 
ATOM      7  C   UNL     1      -0.844   2.454  -0.084  0.00  0.00    +0.010 C 
ATOM      8  C   UNL     1      -0.567   1.202  -0.919  0.00  0.00    +0.009 C 
ENDBRANCH   5   7
BRANCH   5   9
ATOM      9  N   UNL     1      -1.842   1.176   1.747  0.00  0.00    -0.177 NA
ATOM     10  H   UNL     1      -2.890   1.502   1.674  0.00  0.00    +0.149 HD
BRANCH   9  11
ATOM     11  S   UNL     1      -1.492  -0.269   2.477  0.00  0.00    +0.065 S 
ATOM     12  O   UNL     1      -2.736  -0.904   2.737  0.00  0.00    -0.153 OA
ATOM     13  O   UNL     1      -0.472  -0.880   1.699  0.00  0.00    -0.153 OA
BRANCH  11  14
ATOM     14  C   UNL     1      -0.777   0.100   4.045  0.00  0.00    +0.142 A 
ATOM     15  C   UNL     1      -1.388   0.268   5.243  0.00  0.00    +0.036 A 
ATOM     16  C   UNL     1      -0.617   0.554   6.354  0.00  0.00    +0.010 A 
ATOM     17  C   UNL     1       0.727   0.658   6.213  0.00  0.00    +0.047 A 
ATOM     18  S   UNL     1       0.940   0.340   4.469  0.00  0.00    -0.077 S 
ENDBRANCH  11  14
ENDBRANCH   9  11
ENDBRANCH   5   9
ENDBRANCH   1   5
BRANCH   3  19
ATOM     19  C   UNL     1       0.058   5.349   3.257  0.00  0.00    +0.178 C 
BRANCH  19  20
ATOM     20  C   UNL     1       1.364   6.101   3.248  0.00  0.00    +0.123 A 
ATOM     21  C   UNL     1       1.690   7.100   2.403  0.00  0.00    +0.047 A 
ATOM     22  C   UNL     1       2.991   7.517   2.738  0.00  0.00    +0.052 A 
ATOM     23  C   UNL     1       3.394   6.741   3.783  0.00  0.00    +0.160 A 
ATOM     24  O   UNL     1       2.393   5.890   4.083  0.00  0.00    -0.456 OA
BRANCH  23  25
ATOM     25  C   UNL     1       4.693   6.821   4.468  0.00  0.00    +0.144 A 
ATOM     26  N   UNL     1       5.709   7.625   4.223  0.00  0.00    -0.236 NA
ATOM     27  C   UNL     1       6.848   7.589   4.941  0.00  0.00    +0.079 A 
ATOM     28  C   UNL     1       8.004   8.393   4.787  0.00  0.00    +0.029 A 
ATOM     29  C   UNL     1       9.082   8.225   5.597  0.00  0.00    +0.002 A 
ATOM     30  C   UNL     1       9.097   7.267   6.602  0.00  0.00    +0.001 A 
ATOM     31  C   UNL     1       7.988   6.461   6.786  0.00  0.00    +0.017 A 
ATOM     32  C   UNL     1       6.894   6.622   5.973  0.00  0.00    +0.040 A 
ATOM     33  S   UNL     1       5.301   5.847   5.838  0.00  0.00    -0.064 S 
ENDBRANCH  23  25
ENDBRANCH  19  20
ENDBRANCH   3  19
TORSDOF 8
