REMARK  Name = ZINC45704861
REMARK  4 active torsions:
REMARK  status: ('A' for Active; 'I' for Inactive)
REMARK    1  A    between atoms: C_1  and  C_2
REMARK    2  A    between atoms: C_7  and  C_9
REMARK    3  A    between atoms: C_7  and  C_10
REMARK    4  A    between atoms: N_15  and  C_16
REMARK                            x       y       z     vdW  Elec       q    Type
REMARK                         _______ _______ _______ _____ _____    ______ ____
ROOT
ATOM      1  C   UNL     1       2.745  -2.256   2.109  0.00  0.00    +0.039 C 
ATOM      2  C   UNL     1       2.680  -2.048   0.595  0.00  0.00    +0.133 C 
ATOM      3  C   UNL     1       1.250  -2.303   0.104  0.00  0.00    +0.139 C 
ATOM      4  N   UNL     1       1.169  -1.917  -1.313  0.00  0.00    -0.295 N 
ATOM      5  C   UNL     1       1.671  -0.587  -1.697  0.00  0.00    +0.142 C 
ATOM      6  C   UNL     1       3.080  -0.416  -1.119  0.00  0.00    +0.080 C 
ATOM      7  O   UNL     1       3.054  -0.705   0.281  0.00  0.00    -0.368 OA
ATOM      8  C   UNL     1       4.040  -1.380  -1.820  0.00  0.00    +0.043 C 
ATOM      9  C   UNL     1       3.550   1.023  -1.336  0.00  0.00    +0.043 C 
ATOM     10  C   UNL     1       0.638  -2.780  -2.259  0.00  0.00    +0.218 A 
ATOM     11  N   UNL     1       0.782  -4.073  -2.273  0.00  0.00    -0.137 NA
ATOM     12  N   UNL     1       0.095  -4.575  -3.387  0.00  0.00    -0.253 N 
ATOM     13  C   UNL     1      -0.458  -3.524  -4.026  0.00  0.00    +0.177 A 
ATOM     14  N   UNL     1      -0.135  -2.412  -3.336  0.00  0.00    -0.288 N 
ATOM     15  S   UNL     1      -1.405  -3.591  -5.451  0.00  0.00    -0.011 S 
ATOM     16  H   UNL     1       0.030  -5.507  -3.649  0.00  0.00    +0.191 HD
ENDROOT
BRANCH  14  17
ATOM     17  C   UNL     1      -0.536  -1.045  -3.677  0.00  0.00    +0.092 C 
ATOM     18  C   UNL     1      -2.062  -0.961  -3.739  0.00  0.00    +0.025 C 
ATOM     19  C   UNL     1      -2.481   0.467  -4.095  0.00  0.00    +0.002 C 
ATOM     20  C   UNL     1      -1.893   0.846  -5.456  0.00  0.00    +0.000 C 
ATOM     21  C   UNL     1      -0.366   0.763  -5.393  0.00  0.00    +0.002 C 
ATOM     22  C   UNL     1       0.052  -0.665  -5.037  0.00  0.00    +0.025 C 
ENDBRANCH  14  17
TORSDOF 1
