REMARK  Name = ZINC39683714
REMARK  8 active torsions:
REMARK  status: ('A' for Active; 'I' for Inactive)
REMARK    1  A    between atoms: C_1  and  N_2
REMARK    2  A    between atoms: N_2  and  C_3
REMARK    3  A    between atoms: N_2  and  C_4
REMARK    4  A    between atoms: C_8  and  C_10
REMARK    5  A    between atoms: C_14  and  C_23
REMARK    6  A    between atoms: N_25  and  C_26
REMARK    7  A    between atoms: C_26  and  C_27
REMARK    8  A    between atoms: C_27  and  C_28
REMARK                            x       y       z     vdW  Elec       q    Type
REMARK                         _______ _______ _______ _____ _____    ______ ____
ROOT
ATOM      1  C   UNL     1      -0.134   0.267  -5.087  0.00  0.00    +0.247 C 
ATOM      2  O   UNL     1      -0.281   1.469  -5.189  0.00  0.00    -0.270 OA
ATOM      3  N   UNL     1       0.002  -0.492  -6.192  0.00  0.00    -0.296 N 
ATOM      4  C   UNL     1       0.059  -1.970  -6.277  0.00  0.00    +0.121 C 
ATOM      5  C   UNL     1      -0.754  -2.320  -7.543  0.00  0.00    +0.100 C 
ATOM      6  C   UNL     1      -0.704  -1.048  -8.406  0.00  0.00    -0.004 C 
ATOM      7  C   UNL     1       0.122  -0.037  -7.598  0.00  0.00    +0.115 C 
ATOM      8  C   UNL     1      -2.112  -0.508  -8.634  0.00  0.00    -0.010 C 
ATOM      9  C   UNL     1      -2.040   0.723  -9.541  0.00  0.00    -0.082 C 
ATOM     10  N   UNL     1      -1.423   0.355 -10.821  0.00  0.00    +0.379 N 
ATOM     11  C   UNL     1      -0.037  -0.076 -10.603  0.00  0.00    -0.082 C 
ATOM     12  C   UNL     1      -0.023  -1.341  -9.740  0.00  0.00    -0.010 C 
ATOM     13  H   UNL     1      -1.946  -0.399 -11.241  0.00  0.00    -0.086 HD
ATOM     14  H   UNL     1      -1.432   1.152 -11.439  0.00  0.00    -0.086 HD
ENDROOT
BRANCH   1  19
ATOM     15  C   UNL     1      -0.639  -0.305  -1.404  0.00  0.00    +0.030 A 
ATOM     16  C   UNL     1      -0.043  -1.550  -1.243  0.00  0.00    +0.023 A 
ATOM     17  C   UNL     1       0.519  -2.198  -2.327  0.00  0.00    +0.003 A 
ATOM     18  C   UNL     1       0.492  -1.612  -3.576  0.00  0.00    +0.013 A 
ATOM     19  C   UNL     1      -0.104  -0.362  -3.749  0.00  0.00    +0.039 A 
ATOM     20  C   UNL     1      -0.676   0.289  -2.656  0.00  0.00    +0.036 A 
BRANCH  15  22
ATOM     21  C   UNL     1      -1.841   1.655  -0.476  0.00  0.00    +0.129 C 
ATOM     22  N   UNL     1      -1.207   0.345  -0.305  0.00  0.00    -0.336 N 
ATOM     23  C   UNL     1      -1.168  -0.282   1.018  0.00  0.00    +0.129 C 
ENDBRANCH  15  22
ENDBRANCH   1  19
BRANCH   5  24
ATOM     24  C   UNL     1      -2.178  -2.652  -7.177  0.00  0.00    +0.218 C 
ATOM     25  O   UNL     1      -2.692  -2.134  -6.208  0.00  0.00    -0.275 OA
ATOM     26  N   UNL     1      -2.880  -3.525  -7.926  0.00  0.00    -0.315 N 
ATOM     27  H   UNL     1      -2.470  -3.940  -8.701  0.00  0.00    +0.149 HD
BRANCH  26  28
ATOM     28  C   UNL     1      -4.264  -3.848  -7.570  0.00  0.00    +0.109 C 
BRANCH  28  29
ATOM     29  C   UNL     1      -4.828  -4.856  -8.575  0.00  0.00    +0.055 C 
BRANCH  29  30
ATOM     30  C   UNL     1      -6.251  -5.188  -8.208  0.00  0.00    -0.032 A 
ATOM     31  C   UNL     1      -6.524  -6.299  -7.433  0.00  0.00    +0.005 A 
ATOM     32  C   UNL     1      -7.830  -6.603  -7.097  0.00  0.00    +0.000 A 
ATOM     33  C   UNL     1      -8.864  -5.796  -7.536  0.00  0.00    +0.001 A 
ATOM     34  C   UNL     1      -8.591  -4.685  -8.311  0.00  0.00    +0.015 A 
ATOM     35  C   UNL     1      -7.284  -4.377  -8.643  0.00  0.00    +0.021 A 
ATOM     36 BR   UNL     1      -6.910  -2.853  -9.698  0.00  0.00    -0.050 Br
ENDBRANCH  29  30
ENDBRANCH  28  29
ENDBRANCH  26  28
ENDBRANCH   5  24
TORSDOF 6
