REMARK  Name = ZINC22928506
REMARK  6 active torsions:
REMARK  status: ('A' for Active; 'I' for Inactive)
REMARK    1  A    between atoms: C_4  and  C_7
REMARK    2  A    between atoms: C_7  and  N_8
REMARK    3  A    between atoms: N_11  and  C_14
REMARK    4  A    between atoms: C_14  and  C_16
REMARK    5  A    between atoms: C_14  and  C_23
REMARK    6  A    between atoms: N_27  and  C_28
REMARK                            x       y       z     vdW  Elec       q    Type
REMARK                         _______ _______ _______ _____ _____    ______ ____
ROOT
ATOM      1  C   UNL     1       5.450  -2.988   4.812  0.00  0.00    +0.157 C 
ENDROOT
BRANCH   1   5
ATOM      2  N   UNL     1       2.591  -2.962   1.699  0.00  0.00    +0.384 N 
ATOM      3  C   UNL     1       3.903  -3.563   1.427  0.00  0.00    -0.063 C 
ATOM      4  C   UNL     1       4.587  -3.917   2.749  0.00  0.00    +0.067 C 
ATOM      5  N   UNL     1       4.745  -2.699   3.557  0.00  0.00    -0.293 NA
ATOM      6  C   UNL     1       3.441  -2.072   3.816  0.00  0.00    +0.067 C 
ATOM      7  C   UNL     1       2.767  -1.734   2.485  0.00  0.00    -0.063 C 
ATOM      8  H   UNL     1       2.024  -3.615   2.218  0.00  0.00    -0.081 HD
BRANCH   2   9
ATOM      9  C   UNL     1       1.927  -2.639   0.429  0.00  0.00    -0.043 C 
BRANCH   9  13
ATOM     10  C   UNL     1       1.101  -6.246  -1.705  0.00  0.00    +0.000 A 
ATOM     11  C   UNL     1       0.169  -5.738  -0.821  0.00  0.00    +0.000 A 
ATOM     12  C   UNL     1       0.436  -4.571  -0.130  0.00  0.00    +0.002 A 
ATOM     13  C   UNL     1       1.636  -3.912  -0.324  0.00  0.00    -0.064 A 
ATOM     14  C   UNL     1       2.569  -4.421  -1.207  0.00  0.00    +0.002 A 
ATOM     15  C   UNL     1       2.301  -5.588  -1.899  0.00  0.00    +0.000 A 
ENDBRANCH   9  13
ENDBRANCH   2   9
ENDBRANCH   1   5
BRANCH   1  16
ATOM     16  C   UNL     1       5.712  -1.699   5.549  0.00  0.00    -0.023 A 
ATOM     17  C   UNL     1       6.224  -0.608   4.872  0.00  0.00    +0.008 A 
ATOM     18  C   UNL     1       6.465   0.574   5.546  0.00  0.00    +0.038 A 
ATOM     19  C   UNL     1       6.192   0.665   6.901  0.00  0.00    +0.123 A 
ATOM     20  C   UNL     1       5.680  -0.428   7.578  0.00  0.00    +0.038 A 
ATOM     21  C   UNL     1       5.435  -1.608   6.900  0.00  0.00    +0.008 A 
ATOM     22  F   UNL     1       6.428   1.820   7.561  0.00  0.00    -0.205 F 
ENDBRANCH   1  16
BRANCH   1  23
ATOM     23  C   UNL     1       6.760  -3.668   4.508  0.00  0.00    +0.173 A 
ATOM     24  N   UNL     1       7.628  -3.319   3.591  0.00  0.00    -0.111 NA
ATOM     25  N   UNL     1       8.616  -4.145   3.643  0.00  0.00    -0.023 NA
ATOM     26  N   UNL     1       8.399  -5.012   4.569  0.00  0.00    -0.044 NA
ATOM     27  N   UNL     1       7.268  -4.748   5.130  0.00  0.00    -0.224 N 
BRANCH  27  28
ATOM     28  C   UNL     1       6.650  -5.488   6.233  0.00  0.00    +0.111 C 
ATOM     29  C   UNL     1       7.574  -5.452   7.452  0.00  0.00    +0.027 C 
ATOM     30  C   UNL     1       6.929  -6.225   8.604  0.00  0.00    +0.002 C 
ATOM     31  C   UNL     1       6.700  -7.677   8.180  0.00  0.00    +0.000 C 
ATOM     32  C   UNL     1       5.775  -7.712   6.961  0.00  0.00    +0.002 C 
ATOM     33  C   UNL     1       6.421  -6.940   5.809  0.00  0.00    +0.027 C 
ENDBRANCH  27  28
ENDBRANCH   1  23
TORSDOF 6
