REMARK  Name = ZINC64502582
REMARK  11 active torsions:
REMARK  status: ('A' for Active; 'I' for Inactive)
REMARK    1  A    between atoms: C_1  and  C_2
REMARK    2  A    between atoms: C_4  and  C_35
REMARK    3  A    between atoms: C_6  and  C_34
REMARK    4  A    between atoms: C_9  and  C_10
REMARK    5  A    between atoms: C_15  and  C_18
REMARK    6  A    between atoms: C_18  and  C_19
REMARK    7  A    between atoms: N_21  and  C_22
REMARK    8  A    between atoms: C_22  and  C_23
REMARK    9  A    between atoms: C_23  and  C_24
REMARK   10  A    between atoms: C_35  and  O_37
REMARK   11  A    between atoms: O_37  and  C_38
REMARK                            x       y       z     vdW  Elec       q    Type
REMARK                         _______ _______ _______ _____ _____    ______ ____
ROOT
ATOM      1  C   UNL     1       0.527  -0.566   2.541  0.00  0.00    +0.261 C 
ATOM      2  O   UNL     1      -0.588  -0.237   2.893  0.00  0.00    -0.269 OA
ATOM      3  N   UNL     1       1.436  -0.952   3.457  0.00  0.00    -0.297 N 
ATOM      4  C   UNL     1       2.764  -1.423   3.042  0.00  0.00    +0.108 C 
ATOM      5  C   UNL     1       3.830  -0.612   3.784  0.00  0.00    +0.023 C 
ATOM      6  C   UNL     1       3.575  -0.700   5.291  0.00  0.00    +0.001 C 
ATOM      7  C   UNL     1       2.203  -0.104   5.613  0.00  0.00    +0.023 C 
ATOM      8  C   UNL     1       1.121  -0.905   4.891  0.00  0.00    +0.108 C 
ENDROOT
BRANCH   1  14
ATOM      9  C   UNL     1       0.043   1.536  -0.003  0.00  0.00    +0.015 C 
ATOM     10  C   UNL     1      -0.000   0.007   0.008  0.00  0.00    +0.055 C 
ATOM     11  C   UNL     1       0.616  -0.563  -1.293  0.00  0.00    +0.130 C 
ATOM     12  C   UNL     1       2.069  -0.829  -0.834  0.00  0.00    +0.117 C 
ATOM     13  N   UNL     1       1.986  -0.983   0.623  0.00  0.00    -0.279 NA
ATOM     14  C   UNL     1       0.887  -0.542   1.102  0.00  0.00    +0.101 C 
ATOM     15  C   UNL     1       2.603  -2.110  -1.477  0.00  0.00    +0.033 C 
BRANCH  11  16
ATOM     16  C   UNL     1       0.573   0.452  -2.406  0.00  0.00    +0.313 C 
ATOM     17  O   UNL     1       1.532   1.156  -2.619  0.00  0.00    -0.250 OA
BRANCH  16  18
ATOM     18  O   UNL     1      -0.531   0.575  -3.160  0.00  0.00    -0.468 OA
ATOM     19  C   UNL     1      -0.502   1.558  -4.197  0.00  0.00    +0.280 C 
ENDBRANCH  16  18
ENDBRANCH  11  16
ENDBRANCH   1  14
BRANCH   6  20
ATOM     20  C   UNL     1       4.658   0.081   6.038  0.00  0.00    +0.099 C 
BRANCH  20  21
ATOM     21  C   UNL     1       4.479  -0.106   7.522  0.00  0.00    +0.213 C 
ATOM     22  O   UNL     1       3.574  -0.797   7.941  0.00  0.00    -0.276 OA
ATOM     23  N   UNL     1       5.324   0.493   8.384  0.00  0.00    -0.315 N 
ATOM     24  H   UNL     1       6.047   1.046   8.049  0.00  0.00    +0.149 HD
BRANCH  23  25
ATOM     25  C   UNL     1       5.150   0.311   9.827  0.00  0.00    +0.108 C 
BRANCH  25  26
ATOM     26  C   UNL     1       6.233   1.092  10.574  0.00  0.00    +0.052 C 
BRANCH  26  27
ATOM     27  C   UNL     1       6.054   0.905  12.059  0.00  0.00    -0.040 C 
ATOM     28  C   UNL     1       6.680  -0.000  12.845  0.00  0.00    +0.000 A 
ATOM     29  C   UNL     1       7.676  -1.041  12.565  0.00  0.00    +0.030 A 
ATOM     30  C   UNL     1       8.126  -1.811  13.583  0.00  0.00    +0.042 A 
ATOM     31  C   UNL     1       7.664  -1.639  14.896  0.00  0.00    +0.022 A 
ATOM     32  C   UNL     1       6.750  -0.704  15.231  0.00  0.00    +0.027 A 
ATOM     33  C   UNL     1       6.210   0.161  14.240  0.00  0.00    +0.043 A 
ATOM     34  N   UNL     1       5.327   1.128  14.312  0.00  0.00    -0.380 N 
ATOM     35  C   UNL     1       5.143   1.694  12.972  0.00  0.00    +0.144 C 
ATOM     36 CL   UNL     1       9.304  -3.043  13.255  0.00  0.00    -0.084 Cl
ATOM     37  H   UNL     1       4.875   1.422  15.119  0.00  0.00    +0.160 HD
ENDBRANCH  26  27
ENDBRANCH  25  26
ENDBRANCH  23  25
ENDBRANCH  20  21
ENDBRANCH   6  20
TORSDOF 8
