REMARK  Name = ZINC03356168
REMARK  10 active torsions:
REMARK  status: ('A' for Active; 'I' for Inactive)
REMARK    1  A    between atoms: C_4  and  C_7
REMARK    2  A    between atoms: C_9  and  C_12
REMARK    3  A    between atoms: C_12  and  O_13
REMARK    4  A    between atoms: O_13  and  C_14
REMARK    5  A    between atoms: C_14  and  C_16
REMARK    6  A    between atoms: C_16  and  C_18
REMARK    7  A    between atoms: C_16  and  N_20
REMARK    8  A    between atoms: C_18  and  O_19
REMARK    9  A    between atoms: N_20  and  S_21
REMARK   10  A    between atoms: S_21  and  C_24
REMARK                            x       y       z     vdW  Elec       q    Type
REMARK                         _______ _______ _______ _____ _____    ______ ____
ROOT
ATOM      1  C   UNL     1       2.361  -2.607  -2.474  0.00  0.00    +0.210 C 
ENDROOT
BRANCH   1   2
ATOM      2  C   UNL     1       2.578  -3.737  -3.447  0.00  0.00    +0.329 C 
ATOM      3  O   UNL     1       1.857  -4.705  -3.420  0.00  0.00    -0.249 OA
BRANCH   2   4
ATOM      4  O   UNL     1       3.573  -3.666  -4.346  0.00  0.00    -0.457 OA
BRANCH   4   5
ATOM      5  C   UNL     1       3.724  -4.791  -5.252  0.00  0.00    +0.288 C 
BRANCH   5   8
ATOM      6  C   UNL     1       6.219  -5.225  -7.920  0.00  0.00    +0.109 A 
ATOM      7  N   UNL     1       5.204  -5.425  -7.091  0.00  0.00    -0.241 NA
ATOM      8  C   UNL     1       4.883  -4.535  -6.181  0.00  0.00    +0.086 A 
ATOM      9  C   UNL     1       5.594  -3.381  -6.081  0.00  0.00    +0.074 A 
ATOM     10  S   UNL     1       6.799  -3.622  -7.381  0.00  0.00    -0.075 S 
BRANCH   6  14
ATOM     11  C   UNL     1       7.696  -7.723 -11.023  0.00  0.00    +0.000 A 
ATOM     12  C   UNL     1       8.302  -6.505 -10.771  0.00  0.00    +0.001 A 
ATOM     13  C   UNL     1       7.827  -5.689  -9.765  0.00  0.00    +0.010 A 
ATOM     14  C   UNL     1       6.733  -6.095  -9.000  0.00  0.00    +0.007 A 
ATOM     15  C   UNL     1       6.129  -7.327  -9.255  0.00  0.00    +0.010 A 
ATOM     16  C   UNL     1       6.610  -8.130 -10.268  0.00  0.00    +0.001 A 
ENDBRANCH   6  14
ENDBRANCH   5   8
ENDBRANCH   4   5
ENDBRANCH   2   4
ENDBRANCH   1   2
BRANCH   1  17
ATOM     17  N   UNL     1       1.223  -2.922  -1.606  0.00  0.00    -0.174 NA
ATOM     18  H   UNL     1       0.465  -3.413  -1.960  0.00  0.00    +0.149 HD
BRANCH  17  19
ATOM     19  S   UNL     1       1.232  -2.441  -0.022  0.00  0.00    +0.059 S 
ATOM     20  O   UNL     1       2.487  -2.833   0.515  0.00  0.00    -0.153 OA
ATOM     21  O   UNL     1      -0.003  -2.866   0.538  0.00  0.00    -0.153 OA
BRANCH  19  22
ATOM     22  C   UNL     1       1.208  -0.679  -0.013  0.00  0.00    +0.105 A 
ATOM     23  C   UNL     1       0.002  -0.004   0.002  0.00  0.00    +0.029 A 
ATOM     24  C   UNL     1      -0.017   1.378   0.010  0.00  0.00    +0.017 A 
ATOM     25  C   UNL     1       1.172   2.086   0.002  0.00  0.00    +0.018 A 
ATOM     26  C   UNL     1       2.379   1.410  -0.013  0.00  0.00    +0.017 A 
ATOM     27  C   UNL     1       2.396   0.028  -0.021  0.00  0.00    +0.029 A 
ATOM     28 BR   UNL     1       1.147   3.976   0.013  0.00  0.00    -0.050 Br
ENDBRANCH  19  22
ENDBRANCH  17  19
ENDBRANCH   1  17
BRANCH   1  29
ATOM     29  C   UNL     1       2.073  -1.318  -3.244  0.00  0.00    +0.187 C 
BRANCH  29  30
ATOM     30  O   UNL     1       0.970  -1.528  -4.129  0.00  0.00    -0.393 OA
ATOM     31  H   UNL     1       0.731  -0.750  -4.651  0.00  0.00    +0.209 HD
ENDBRANCH  29  30
ENDBRANCH   1  29
TORSDOF 10
