REMARK  Name = ZINC00809854
REMARK  11 active torsions:
REMARK  status: ('A' for Active; 'I' for Inactive)
REMARK    1  A    between atoms: C_1  and  C_2
REMARK    2  A    between atoms: C_2  and  O_3
REMARK    3  A    between atoms: O_3  and  C_4
REMARK    4  A    between atoms: C_4  and  C_6
REMARK    5  A    between atoms: C_7  and  C_32
REMARK    6  A    between atoms: C_9  and  N_31
REMARK    7  A    between atoms: C_10  and  C_29
REMARK    8  A    between atoms: C_13  and  C_28
REMARK    9  A    between atoms: C_21  and  C_26
REMARK   10  A    between atoms: C_21  and  C_27
REMARK   11  A    between atoms: C_23  and  C_25
REMARK                            x       y       z     vdW  Elec       q    Type
REMARK                         _______ _______ _______ _____ _____    ______ ____
ROOT
ATOM      1  C   UNL     1      -3.629  -3.679   2.893  0.00  0.00    +0.099 C 
ATOM      2  C   UNL     1      -4.735  -4.424   3.036  0.00  0.00    +0.116 C 
ATOM      3  O   UNL     1      -5.154  -5.269   2.084  0.00  0.00    -0.445 OA
ATOM      4  C   UNL     1      -4.300  -5.676   1.129  0.00  0.00    +0.199 C 
ATOM      5  C   UNL     1      -3.154  -5.000   0.864  0.00  0.00    +0.110 C 
ATOM      6  C   UNL     1      -2.802  -3.765   1.643  0.00  0.00    +0.148 C 
ATOM      7  C   UNL     1      -2.990  -2.533   0.797  0.00  0.00    +0.002 A 
ATOM      8  C   UNL     1      -4.045  -1.927   0.152  0.00  0.00    -0.044 A 
ATOM      9  C   UNL     1      -3.834  -0.756  -0.560  0.00  0.00    +0.004 A 
ATOM     10  C   UNL     1      -2.573  -0.181  -0.637  0.00  0.00    +0.006 A 
ATOM     11  C   UNL     1      -1.519  -0.781   0.004  0.00  0.00    -0.023 A 
ATOM     12  C   UNL     1      -1.742  -1.957   0.720  0.00  0.00    +0.045 A 
ATOM     13  N   UNL     1      -0.778  -2.691   1.430  0.00  0.00    -0.264 N 
ATOM     14  C   UNL     1      -1.327  -3.772   1.994  0.00  0.00    +0.241 C 
ATOM     15  O   UNL     1      -0.752  -4.604   2.663  0.00  0.00    -0.273 OA
ATOM     16  C   UNL     1       0.615  -2.212   1.463  0.00  0.00    +0.037 C 
ATOM     17  C   UNL     1       0.605  -0.689   1.286  0.00  0.00    +0.033 C 
ATOM     18  C   UNL     1      -0.104  -0.266  -0.004  0.00  0.00    +0.020 C 
ATOM     19  C   UNL     1      -0.120   1.262  -0.098  0.00  0.00    +0.012 C 
ATOM     20  C   UNL     1       1.409  -2.858   0.326  0.00  0.00    +0.032 C 
ATOM     21  C   UNL     1       1.252  -2.570   2.807  0.00  0.00    +0.032 C 
ATOM     22  C   UNL     1      -5.423  -2.533   0.221  0.00  0.00    +0.044 C 
ATOM     23  C   UNL     1      -5.533  -4.306   4.309  0.00  0.00    +0.087 C 
ENDROOT
BRANCH   4  24
ATOM     24  N   UNL     1      -4.594  -6.803   0.404  0.00  0.00    -0.328 N 
ATOM     25  H   UNL     1      -3.986  -7.107  -0.288  0.00  0.00    +0.145 HD
ATOM     26  H   UNL     1      -5.410  -7.296   0.583  0.00  0.00    +0.145 HD
ENDBRANCH   4  24
BRANCH   1  27
ATOM     27  C   UNL     1      -3.236  -2.802   3.933  0.00  0.00    +0.340 C 
ATOM     28  O   UNL     1      -2.303  -2.039   3.766  0.00  0.00    -0.245 OA
BRANCH  27  29
ATOM     29  O   UNL     1      -3.897  -2.812   5.110  0.00  0.00    -0.462 OA
BRANCH  29  31
ATOM     30  C   UNL     1      -4.453  -1.913   7.283  0.00  0.00    +0.048 C 
ATOM     31  C   UNL     1      -3.521  -1.826   6.073  0.00  0.00    +0.229 C 
ENDBRANCH  29  31
ENDBRANCH  27  29
ENDBRANCH   1  27
BRANCH   5  32
ATOM     32  C   UNL     1      -2.274  -5.467  -0.165  0.00  0.00    +0.102 C 
ATOM     33  N   UNL     1      -1.576  -5.837  -0.981  0.00  0.00    -0.191 NA
ENDBRANCH   5  32
TORSDOF 5
