REMARK  Name = ZINC36511574
REMARK  20 active torsions:
REMARK  status: ('A' for Active; 'I' for Inactive)
REMARK    1  A    between atoms: C_1  and  C_2
REMARK    2  A    between atoms: C_2  and  C_3
REMARK    3  A    between atoms: C_3  and  C_4
REMARK    4  A    between atoms: C_4  and  C_5
REMARK    5  A    between atoms: C_5  and  C_6
REMARK    6  A    between atoms: C_6  and  N_7
REMARK    7  A    between atoms: N_7  and  C_8
REMARK    8  A    between atoms: C_8  and  C_10
REMARK    9  A    between atoms: C_8  and  C_15
REMARK   10  A    between atoms: N_17  and  C_18
REMARK   11  A    between atoms: C_18  and  C_19
REMARK   12  A    between atoms: C_18  and  C_20
REMARK   13  A    between atoms: C_18  and  C_21
REMARK   14  A    between atoms: C_21  and  C_22
REMARK   15  A    between atoms: C_22  and  C_23
REMARK   16  A    between atoms: C_22  and  C_24
REMARK   17  A    between atoms: C_22  and  C_25
REMARK   18  A    between atoms: C_26  and  C_28
REMARK   19  A    between atoms: C_30  and  N_37
REMARK   20  A    between atoms: C_32  and  N_34
REMARK                            x       y       z     vdW  Elec       q    Type
REMARK                         _______ _______ _______ _____ _____    ______ ____
ROOT
ATOM      1  N   UNL     1      -7.027  -6.224   0.277  0.00  0.00    -0.279 N 
ATOM      2  C   UNL     1      -8.051  -6.381   1.139  0.00  0.00    +0.248 C 
ATOM      3  O   UNL     1      -9.165  -6.629   0.720  0.00  0.00    -0.270 OA
ENDROOT
BRANCH   2   4
ATOM      4  C   UNL     1      -7.820  -6.252   2.594  0.00  0.00    +0.041 A 
ATOM      5  C   UNL     1      -6.981  -5.250   3.083  0.00  0.00    +0.046 A 
ATOM      6  C   UNL     1      -6.769  -5.134   4.442  0.00  0.00    +0.129 A 
ATOM      7  C   UNL     1      -7.387  -6.009   5.318  0.00  0.00    +0.065 A 
ATOM      8  C   UNL     1      -8.220  -7.004   4.839  0.00  0.00    +0.129 A 
ATOM      9  C   UNL     1      -8.444  -7.127   3.483  0.00  0.00    +0.046 A 
BRANCH   8  10
ATOM     10  N   UNL     1      -8.876  -7.936   5.783  0.00  0.00    +0.057 N 
ATOM     11  O   UNL     1      -8.685  -7.826   6.972  0.00  0.00    -0.126 OA
ATOM     12  O   UNL     1      -9.604  -8.806   5.366  0.00  0.00    -0.126 OA
ENDBRANCH   8  10
BRANCH   6  13
ATOM     13  N   UNL     1      -5.880  -4.072   4.963  0.00  0.00    +0.057 N 
ATOM     14  O   UNL     1      -5.339  -3.307   4.199  0.00  0.00    -0.126 OA
ATOM     15  O   UNL     1      -5.694  -3.969   6.153  0.00  0.00    -0.126 OA
ENDBRANCH   6  13
ENDBRANCH   2   4
BRANCH   1  16
ATOM     16  C   UNL     1      -5.660  -6.077   0.783  0.00  0.00    +0.109 C 
BRANCH  16  17
ATOM     17  C   UNL     1      -5.168  -4.653   0.516  0.00  0.00    +0.019 C 
BRANCH  17  18
ATOM     18  C   UNL     1      -3.764  -4.480   1.101  0.00  0.00    +0.002 C 
BRANCH  18  19
ATOM     19  C   UNL     1      -3.272  -3.056   0.834  0.00  0.00    -0.000 C 
BRANCH  19  21
ATOM     20  C   UNL     1      -1.377  -1.460   1.151  0.00  0.00    +0.004 C 
ATOM     21  C   UNL     1      -1.869  -2.884   1.418  0.00  0.00    -0.003 C 
ENDBRANCH  19  21
ENDBRANCH  18  19
ENDBRANCH  17  18
ENDBRANCH  16  17
ENDBRANCH   1  16
BRANCH   1  22
ATOM     22  C   UNL     1      -7.280  -6.200  -1.165  0.00  0.00    +0.228 C 
BRANCH  22  23
ATOM     23  C   UNL     1      -7.913  -7.501  -1.586  0.00  0.00    +0.134 A 
ATOM     24  C   UNL     1      -7.633  -8.185  -2.710  0.00  0.00    +0.047 A 
ATOM     25  C   UNL     1      -8.452  -9.338  -2.702  0.00  0.00    +0.041 A 
ATOM     26  C   UNL     1      -9.183  -9.290  -1.574  0.00  0.00    +0.195 A 
ATOM     27  O   UNL     1      -8.848  -8.178  -0.899  0.00  0.00    -0.465 OA
ENDBRANCH  22  23
BRANCH  22  28
ATOM     28  C   UNL     1      -8.210  -5.060  -1.493  0.00  0.00    +0.242 C 
ATOM     29  O   UNL     1      -8.621  -4.339  -0.609  0.00  0.00    -0.273 OA
ATOM     30  N   UNL     1      -8.586  -4.842  -2.769  0.00  0.00    -0.308 N 
ATOM     31  H   UNL     1      -8.258  -5.419  -3.477  0.00  0.00    +0.149 HD
BRANCH  30  32
ATOM     32  C   UNL     1      -9.490  -3.734  -3.088  0.00  0.00    +0.030 C 
ATOM     33  C   UNL     1     -10.910  -4.091  -2.643  0.00  0.00    +0.031 C 
ATOM     34  C   UNL     1      -9.028  -2.473  -2.356  0.00  0.00    +0.031 C 
BRANCH  32  35
ATOM     35  C   UNL     1      -9.476  -3.482  -4.597  0.00  0.00    +0.031 C 
BRANCH  35  36
ATOM     36  C   UNL     1      -8.030  -3.346  -5.078  0.00  0.00    -0.036 C 
ATOM     37  C   UNL     1      -7.289  -4.665  -4.846  0.00  0.00    +0.010 C 
ATOM     38  C   UNL     1      -8.018  -3.011  -6.570  0.00  0.00    +0.010 C 
ATOM     39  C   UNL     1      -7.336  -2.228  -4.298  0.00  0.00    +0.010 C 
ENDBRANCH  35  36
ENDBRANCH  32  35
ENDBRANCH  30  32
ENDBRANCH  22  28
ENDBRANCH   1  22
TORSDOF 14
