REMARK  Name = ZINC06199923
REMARK  3 active torsions:
REMARK  status: ('A' for Active; 'I' for Inactive)
REMARK    1  A    between atoms: C_1  and  C_2
REMARK    2  A    between atoms: C_6  and  C_25
REMARK    3  A    between atoms: N_15  and  C_18
REMARK                            x       y       z     vdW  Elec       q    Type
REMARK                         _______ _______ _______ _____ _____    ______ ____
ROOT
ATOM      1  C   UNL     1       3.267   1.604  -1.643  0.00  0.00    +0.029 C 
ATOM      2  C   UNL     1       4.023   2.896  -1.327  0.00  0.00    +0.089 C 
ATOM      3  C   UNL     1       3.714   3.930  -2.402  0.00  0.00    +0.163 C 
ATOM      4  N   UNL     1       4.122   5.274  -1.985  0.00  0.00    -0.286 NA
ATOM      5  C   UNL     1       3.399   5.912  -1.108  0.00  0.00    +0.047 C 
ATOM      6  C   UNL     1       2.237   5.243  -0.521  0.00  0.00    +0.082 A 
ATOM      7  C   UNL     1       2.388   3.950  -0.010  0.00  0.00    +0.051 A 
ATOM      8  C   UNL     1       1.209   3.268   0.527  0.00  0.00    +0.021 A 
ATOM      9  C   UNL     1       1.287   1.969   1.034  0.00  0.00    +0.012 A 
ATOM     10  C   UNL     1       0.167   1.367   1.535  0.00  0.00    +0.001 A 
ATOM     11  C   UNL     1      -1.050   2.034   1.537  0.00  0.00    +0.002 A 
ATOM     12  C   UNL     1      -1.149   3.318   1.044  0.00  0.00    +0.027 A 
ATOM     13  C   UNL     1      -0.023   3.951   0.530  0.00  0.00    +0.059 A 
ATOM     14  N   UNL     1      -0.104   5.236   0.027  0.00  0.00    -0.276 N 
ATOM     15  C   UNL     1       0.969   5.868  -0.480  0.00  0.00    +0.267 A 
ATOM     16  O   UNL     1       0.847   7.001  -0.912  0.00  0.00    -0.267 OA
ATOM     17  N   UNL     1       3.626   3.370  -0.001  0.00  0.00    -0.338 N 
ATOM     18  C   UNL     1       3.754   7.320  -0.706  0.00  0.00    +0.066 C 
ATOM     19  H   UNL     1       4.317   3.999   0.380  0.00  0.00    +0.146 HD
ENDROOT
BRANCH  14  20
ATOM     20  C   UNL     1      -1.338   5.897   0.046  0.00  0.00    +0.050 A 
ATOM     21  C   UNL     1      -2.203   5.787  -1.035  0.00  0.00    +0.026 A 
ATOM     22  C   UNL     1      -3.422   6.436  -1.010  0.00  0.00    +0.002 A 
ATOM     23  C   UNL     1      -3.776   7.204   0.084  0.00  0.00    +0.000 A 
ATOM     24  C   UNL     1      -2.914   7.320   1.159  0.00  0.00    +0.002 A 
ATOM     25  C   UNL     1      -1.697   6.669   1.143  0.00  0.00    +0.026 A 
ENDBRANCH  14  20
TORSDOF 1
