REMARK  Name = ZINC36583476
REMARK  13 active torsions:
REMARK  status: ('A' for Active; 'I' for Inactive)
REMARK    1  A    between atoms: C_1  and  C_2
REMARK    2  A    between atoms: C_5  and  S_8
REMARK    3  A    between atoms: S_8  and  C_11
REMARK    4  A    between atoms: C_11  and  N_12
REMARK    5  A    between atoms: C_13  and  C_15
REMARK    6  A    between atoms: C_15  and  C_17
REMARK    7  A    between atoms: C_15  and  N_24
REMARK    8  A    between atoms: C_22  and  C_23
REMARK    9  A    between atoms: N_24  and  C_34
REMARK   10  A    between atoms: C_25  and  C_27
REMARK   11  A    between atoms: C_34  and  C_35
REMARK   12  A    between atoms: C_34  and  C_36
REMARK   13  A    between atoms: C_34  and  C_37
REMARK                            x       y       z     vdW  Elec       q    Type
REMARK                         _______ _______ _______ _____ _____    ______ ____
ROOT
ATOM      1  C   UNL     1       2.558  -5.295   2.960  0.00  0.00    +0.193 C 
ENDROOT
BRANCH   1   2
ATOM      2  C   UNL     1       3.517  -4.141   3.110  0.00  0.00    -0.015 A 
ATOM      3  C   UNL     1       4.789  -4.359   3.605  0.00  0.00    +0.006 A 
ATOM      4  C   UNL     1       5.668  -3.302   3.742  0.00  0.00    +0.000 A 
ATOM      5  C   UNL     1       5.276  -2.026   3.382  0.00  0.00    +0.000 A 
ATOM      6  C   UNL     1       4.004  -1.808   2.886  0.00  0.00    +0.004 A 
ATOM      7  C   UNL     1       3.126  -2.866   2.745  0.00  0.00    -0.045 A 
ATOM      8  C   UNL     1       1.742  -2.630   2.199  0.00  0.00    +0.044 C 
ENDBRANCH   1   2
BRANCH   1  10
ATOM      9  N   UNL     1       3.111  -5.163   0.553  0.00  0.00    -0.294 N 
ATOM     10  C   UNL     1       2.734  -5.921   1.601  0.00  0.00    +0.239 C 
ATOM     11  O   UNL     1       2.536  -7.108   1.451  0.00  0.00    -0.273 OA
ATOM     12  H   UNL     1       3.269  -4.213   0.673  0.00  0.00    +0.150 HD
BRANCH   9  13
ATOM     13  C   UNL     1       3.283  -5.772  -0.768  0.00  0.00    +0.278 C 
BRANCH  13  14
ATOM     14  S   UNL     1       1.756  -5.574  -1.728  0.00  0.00    +0.013 S 
ATOM     15  O   UNL     1       0.632  -5.939  -0.941  0.00  0.00    -0.168 OA
ATOM     16  O   UNL     1       1.928  -6.104  -3.035  0.00  0.00    -0.168 OA
BRANCH  14  21
ATOM     17  C   UNL     1       1.196   0.378  -2.545  0.00  0.00    +0.044 C 
ATOM     18  C   UNL     1       1.336  -1.109  -2.341  0.00  0.00    -0.050 A 
ATOM     19  C   UNL     1       2.030  -1.871  -3.263  0.00  0.00    +0.005 A 
ATOM     20  C   UNL     1       2.159  -3.234  -3.075  0.00  0.00    +0.027 A 
ATOM     21  C   UNL     1       1.594  -3.836  -1.966  0.00  0.00    +0.090 A 
ATOM     22  C   UNL     1       0.901  -3.074  -1.044  0.00  0.00    +0.027 A 
ATOM     23  C   UNL     1       0.776  -1.710  -1.229  0.00  0.00    +0.005 A 
ENDBRANCH  14  21
ENDBRANCH  13  14
ENDBRANCH   9  13
ENDBRANCH   1  10
BRANCH   1  24
ATOM     24  N   UNL     1       2.830  -6.293   3.997  0.00  0.00    -0.277 N 
ATOM     25  C   UNL     1       3.660  -7.324   3.739  0.00  0.00    +0.248 C 
ATOM     26  O   UNL     1       3.793  -8.215   4.555  0.00  0.00    -0.270 OA
BRANCH  25  27
ATOM     27  C   UNL     1       4.407  -7.370   2.465  0.00  0.00    +0.037 A 
ATOM     28  C   UNL     1       4.683  -6.190   1.772  0.00  0.00    +0.014 A 
ATOM     29  C   UNL     1       5.381  -6.240   0.583  0.00  0.00    +0.021 A 
ATOM     30  C   UNL     1       5.807  -7.457   0.077  0.00  0.00    +0.041 A 
ATOM     31  C   UNL     1       5.535  -8.631   0.761  0.00  0.00    +0.021 A 
ATOM     32  C   UNL     1       4.843  -8.593   1.953  0.00  0.00    +0.014 A 
ATOM     33 CL   UNL     1       6.684  -7.511  -1.420  0.00  0.00    -0.084 Cl
ENDBRANCH  25  27
BRANCH  24  34
ATOM     34  C   UNL     1       2.201  -6.171   5.315  0.00  0.00    +0.030 C 
ATOM     35  C   UNL     1       1.253  -4.971   5.318  0.00  0.00    +0.031 C 
ATOM     36  C   UNL     1       1.413  -7.445   5.623  0.00  0.00    +0.031 C 
ATOM     37  C   UNL     1       3.282  -5.970   6.379  0.00  0.00    +0.031 C 
ENDBRANCH  24  34
ENDBRANCH   1  24
TORSDOF 8
