REMARK  Name = ZINC39998805
REMARK  10 active torsions:
REMARK  status: ('A' for Active; 'I' for Inactive)
REMARK    1  A    between atoms: C_1  and  C_2
REMARK    2  A    between atoms: C_2  and  C_3
REMARK    3  A    between atoms: C_6  and  O_9
REMARK    4  A    between atoms: O_9  and  C_10
REMARK    5  A    between atoms: C_11  and  C_22
REMARK    6  A    between atoms: C_16  and  C_21
REMARK    7  A    between atoms: C_23  and  C_24
REMARK    8  A    between atoms: C_23  and  C_26
REMARK    9  A    between atoms: N_28  and  C_29
REMARK   10  A    between atoms: C_29  and  C_30
REMARK                            x       y       z     vdW  Elec       q    Type
REMARK                         _______ _______ _______ _____ _____    ______ ____
ROOT
ATOM      1  C   UNL     1       2.075  -1.752   5.776  0.00  0.00    +0.235 A 
ATOM      2  C   UNL     1       2.686  -2.348   6.906  0.00  0.00    +0.103 A 
ATOM      3  C   UNL     1       1.863  -2.703   8.007  0.00  0.00    +0.269 A 
ATOM      4  O   UNL     1       2.344  -3.218   9.000  0.00  0.00    -0.266 OA
ATOM      5  N   UNL     1       0.536  -2.460   7.932  0.00  0.00    -0.267 N 
ATOM      6  C   UNL     1      -0.263  -2.797   8.983  0.00  0.00    +0.099 A 
ATOM      7  C   UNL     1      -1.595  -2.567   8.942  0.00  0.00    -0.034 A 
ATOM      8  C   UNL     1      -2.171  -1.976   7.810  0.00  0.00    +0.008 A 
ATOM      9  C   UNL     1      -1.379  -1.635   6.753  0.00  0.00    +0.047 A 
ATOM     10  C   UNL     1       0.004  -1.881   6.815  0.00  0.00    +0.144 A 
ATOM     11  N   UNL     1       0.770  -1.540   5.777  0.00  0.00    -0.194 NA
ATOM     12  C   UNL     1      -2.461  -2.948  10.115  0.00  0.00    +0.045 C 
ENDROOT
BRANCH   2  13
ATOM     13  C   UNL     1       4.072  -2.583   6.937  0.00  0.00    +0.042 C 
ATOM     14  C   UNL     1       4.670  -3.345   5.942  0.00  0.00    +0.114 C 
BRANCH  14  15
ATOM     15  C   UNL     1       6.129  -3.486   5.903  0.00  0.00    +0.254 C 
ATOM     16  O   UNL     1       6.816  -2.934   6.743  0.00  0.00    -0.269 OA
ATOM     17  N   UNL     1       6.709  -4.225   4.937  0.00  0.00    -0.311 N 
ATOM     18  H   UNL     1       6.161  -4.664   4.268  0.00  0.00    +0.149 HD
BRANCH  17  19
ATOM     19  C   UNL     1       8.167  -4.366   4.898  0.00  0.00    +0.101 C 
ATOM     20  C   UNL     1       8.562  -5.249   3.713  0.00  0.00    +0.024 C 
ENDBRANCH  17  19
ENDBRANCH  14  15
BRANCH  14  21
ATOM     21  C   UNL     1       3.861  -3.993   4.954  0.00  0.00    +0.104 C 
ATOM     22  N   UNL     1       3.220  -4.507   4.170  0.00  0.00    -0.191 NA
ENDBRANCH  14  21
ENDBRANCH   2  13
BRANCH   1  23
ATOM     23  O   UNL     1       2.821  -1.398   4.706  0.00  0.00    -0.437 OA
BRANCH  23  27
ATOM     24  C   UNL     1       0.968   0.654   1.644  0.00  0.00    -0.047 A 
ATOM     25  C   UNL     1       1.196   1.280   2.856  0.00  0.00    +0.007 A 
ATOM     26  C   UNL     1       1.816   0.595   3.883  0.00  0.00    +0.046 A 
ATOM     27  C   UNL     1       2.211  -0.722   3.697  0.00  0.00    +0.130 A 
ATOM     28  C   UNL     1       1.981  -1.348   2.481  0.00  0.00    +0.046 A 
ATOM     29  C   UNL     1       1.356  -0.660   1.459  0.00  0.00    +0.007 A 
BRANCH  24  31
ATOM     30  C   UNL     1      -1.223   1.210   0.626  0.00  0.00    +0.009 C 
ATOM     31  C   UNL     1       0.291   1.403   0.526  0.00  0.00    +0.032 C 
ENDBRANCH  24  31
ENDBRANCH  23  27
ENDBRANCH   1  23
TORSDOF 7
