REMARK  Name = ZINC04277034
REMARK  1 active torsions:
REMARK  status: ('A' for Active; 'I' for Inactive)
REMARK    1  A    between atoms: C_1  and  N_30
REMARK                            x       y       z     vdW  Elec       q    Type
REMARK                         _______ _______ _______ _____ _____    ______ ____
ROOT
ATOM      1  C   UNL     1      -0.785   1.974   1.154  0.00  0.00    -0.096 C 
ATOM      2  C   UNL     1       0.002  -0.004   0.002  0.00  0.00    -0.079 C 
ATOM      3  C   UNL     1       0.688  -0.504  -1.272  0.00  0.00    -0.015 C 
ATOM      4  C   UNL     1       2.114   0.049  -1.323  0.00  0.00    -0.010 C 
ATOM      5  C   UNL     1       2.800  -0.395  -2.616  0.00  0.00    +0.018 C 
ATOM      6  C   UNL     1       4.225   0.164  -2.648  0.00  0.00    +0.057 C 
ATOM      7  C   UNL     1       4.180   1.692  -2.588  0.00  0.00    +0.015 C 
ATOM      8  C   UNL     1       3.483   2.135  -1.300  0.00  0.00    +0.003 C 
ATOM      9  C   UNL     1       2.059   1.579  -1.278  0.00  0.00    -0.025 C 
ATOM     10  C   UNL     1       1.343   2.018   0.000  0.00  0.00    -0.076 C 
ATOM     11 BR   UNL     1       5.111  -0.400  -4.310  0.00  0.00    -0.088 Br
ATOM     12  N   UNL     1      -0.033   1.474  -0.015  0.00  0.00    +0.378 N 
ATOM     13  H   UNL     1      -0.505   1.786  -0.872  0.00  0.00    -0.082 HD
ENDROOT
TORSDOF 0
