REMARK  Name = ZINC05047613
REMARK  16 active torsions:
REMARK  status: ('A' for Active; 'I' for Inactive)
REMARK    1  A    between atoms: C_1  and  C_2
REMARK    2  A    between atoms: C_2  and  C_3
REMARK    3  A    between atoms: C_2  and  C_4
REMARK    4  A    between atoms: C_4  and  C_5
REMARK    5  A    between atoms: C_5  and  N_65
REMARK    6  A    between atoms: C_6  and  C_7
REMARK    7  A    between atoms: C_6  and  N_65
REMARK    8  A    between atoms: C_7  and  C_8
REMARK    9  A    between atoms: C_7  and  C_9
REMARK   10  A    between atoms: C_7  and  N_25
REMARK   11  A    between atoms: C_9  and  O_10
REMARK   12  A    between atoms: O_10  and  C_11
REMARK   13  A    between atoms: C_14  and  C_16
REMARK   14  A    between atoms: C_19  and  N_22
REMARK   15  A    between atoms: C_26  and  C_28
REMARK   16  A    between atoms: C_31  and  N_34
REMARK                            x       y       z     vdW  Elec       q    Type
REMARK                         _______ _______ _______ _____ _____    ______ ____
ROOT
ATOM      1  C   UNL     1       5.009  -6.819  -0.081  0.00  0.00    +0.051 C 
ATOM      2  C   UNL     1       5.735  -6.327  -1.335  0.00  0.00    +0.033 C 
ENDROOT
BRANCH   1   3
ATOM      3  N   UNL     1       4.960  -8.283  -0.088  0.00  0.00    -0.305 N 
ATOM      4  C   UNL     1       6.104  -8.996  -0.102  0.00  0.00    +0.245 C 
ATOM      5  O   UNL     1       7.176  -8.424  -0.110  0.00  0.00    -0.270 OA
ATOM      6  H   UNL     1       4.104  -8.740  -0.082  0.00  0.00    +0.150 HD
BRANCH   4   7
ATOM      7  C   UNL     1       6.054 -10.473  -0.110  0.00  0.00    +0.037 A 
ATOM      8  C   UNL     1       4.824 -11.134  -0.095  0.00  0.00    +0.015 A 
ATOM      9  C   UNL     1       4.785 -12.513  -0.107  0.00  0.00    +0.033 A 
ATOM     10  C   UNL     1       5.961 -13.241  -0.123  0.00  0.00    +0.126 A 
ATOM     11  C   UNL     1       7.183 -12.593  -0.131  0.00  0.00    +0.033 A 
ATOM     12  C   UNL     1       7.237 -11.214  -0.125  0.00  0.00    +0.015 A 
BRANCH  10  13
ATOM     13  N   UNL     1       5.911 -14.720  -0.130  0.00  0.00    +0.056 N 
ATOM     14  O   UNL     1       6.945 -15.364  -0.144  0.00  0.00    -0.126 OA
ATOM     15  O   UNL     1       4.837 -15.294  -0.123  0.00  0.00    -0.126 OA
ENDBRANCH  10  13
ENDBRANCH   4   7
ENDBRANCH   1   3
BRANCH   1  16
ATOM     16  C   UNL     1       5.759  -6.340   1.163  0.00  0.00    -0.054 C 
BRANCH  16  17
ATOM     17  N   UNL     1       5.123  -6.917   2.363  0.00  0.00    +0.380 N 
ATOM     18  H   UNL     1       4.144  -6.612   2.407  0.00  0.00    -0.086 HD
ATOM     19  H   UNL     1       5.161  -7.942   2.306  0.00  0.00    -0.086 HD
BRANCH  17  20
ATOM     20  C   UNL     1       5.827  -6.471   3.580  0.00  0.00    -0.082 C 
BRANCH  20  21
ATOM     21  C   UNL     1       5.147  -7.084   4.806  0.00  0.00    -0.016 C 
BRANCH  21  23
ATOM     22  C   UNL     1       5.709  -5.114   6.235  0.00  0.00    +0.007 C 
ATOM     23  C   UNL     1       5.871  -6.627   6.074  0.00  0.00    -0.019 C 
ATOM     24  C   UNL     1       5.271  -7.337   7.288  0.00  0.00    +0.007 C 
ENDBRANCH  21  23
ENDBRANCH  20  21
ENDBRANCH  17  20
ENDBRANCH  16  17
ENDBRANCH   1  16
BRANCH   1  25
ATOM     25  C   UNL     1       3.584  -6.261  -0.064  0.00  0.00    +0.257 C 
BRANCH  25  26
ATOM     26  O   UNL     1       3.633  -4.810  -0.058  0.00  0.00    -0.448 OA
BRANCH  26  27
ATOM     27  C   UNL     1       2.455  -4.159  -0.043  0.00  0.00    +0.407 C 
ATOM     28  O   UNL     1       1.415  -4.786  -0.036  0.00  0.00    -0.226 OA
ATOM     29  N   UNL     1       2.430  -2.812  -0.036  0.00  0.00    -0.218 N 
ATOM     30  C   UNL     1       1.250  -2.160  -0.021  0.00  0.00    +0.253 C 
ATOM     31  O   UNL     1       0.209  -2.787  -0.014  0.00  0.00    -0.270 OA
ATOM     32  H   UNL     1       3.260  -2.311  -0.041  0.00  0.00    +0.161 HD
BRANCH  30  33
ATOM     33  C   UNL     1       1.222  -0.682  -0.013  0.00  0.00    +0.037 A 
ATOM     34  C   UNL     1       0.002  -0.004   0.002  0.00  0.00    +0.015 A 
ATOM     35  C   UNL     1      -0.017   1.375   0.010  0.00  0.00    +0.033 A 
ATOM     36  C   UNL     1       1.170   2.086   0.002  0.00  0.00    +0.126 A 
ATOM     37  C   UNL     1       2.383   1.421  -0.013  0.00  0.00    +0.033 A 
ATOM     38  C   UNL     1       2.416   0.041  -0.021  0.00  0.00    +0.015 A 
BRANCH  36  39
ATOM     39  N   UNL     1       1.143   3.566   0.010  0.00  0.00    +0.056 N 
ATOM     40  O   UNL     1       0.076   4.155   0.024  0.00  0.00    -0.126 OA
ATOM     41  O   UNL     1       2.186   4.195   0.004  0.00  0.00    -0.126 OA
ENDBRANCH  36  39
ENDBRANCH  30  33
ENDBRANCH  26  27
ENDBRANCH  25  26
ENDBRANCH   1  25
TORSDOF 13
