REMARK  Name = ZINC12658051
REMARK  6 active torsions:
REMARK  status: ('A' for Active; 'I' for Inactive)
REMARK    1  A    between atoms: C_4  and  C_7
REMARK    2  A    between atoms: C_7  and  N_8
REMARK    3  A    between atoms: C_11  and  C_17
REMARK    4  A    between atoms: C_11  and  C_23
REMARK    5  A    between atoms: C_17  and  C_18
REMARK    6  A    between atoms: C_23  and  N_65
REMARK                            x       y       z     vdW  Elec       q    Type
REMARK                         _______ _______ _______ _____ _____    ______ ____
ROOT
ATOM      1  N   UNL     1       2.910   0.907  -1.518  0.00  0.00    -0.221 N 
ATOM      2  C   UNL     1       2.513  -0.240  -2.108  0.00  0.00    +0.237 C 
ATOM      3  O   UNL     1       1.797  -1.029  -1.529  0.00  0.00    -0.274 OA
ATOM      4  C   UNL     1       2.991  -0.503  -3.523  0.00  0.00    +0.114 C 
ATOM      5  C   UNL     1       3.886   0.557  -4.136  0.00  0.00    +0.234 C 
ATOM      6  O   UNL     1       4.323   0.437  -5.261  0.00  0.00    -0.274 OA
ATOM      7  N   UNL     1       4.178   1.639  -3.383  0.00  0.00    -0.239 N 
ATOM      8  C   UNL     1       3.704   1.786  -2.141  0.00  0.00    +0.315 C 
ATOM      9  O   UNL     1       4.017   2.791  -1.534  0.00  0.00    -0.252 OA
ATOM     10  H   UNL     1       4.749   2.330  -3.754  0.00  0.00    +0.159 HD
ENDROOT
BRANCH   1  11
ATOM     11  C   UNL     1       2.464   1.196  -0.153  0.00  0.00    +0.153 C 
BRANCH  11  15
ATOM     12  C   UNL     1      -1.210   3.370  -0.286  0.00  0.00    +0.000 A 
ATOM     13  C   UNL     1      -1.226   1.988  -0.251  0.00  0.00    +0.000 A 
ATOM     14  C   UNL     1      -0.037   1.285  -0.203  0.00  0.00    +0.005 A 
ATOM     15  C   UNL     1       1.168   1.963  -0.200  0.00  0.00    -0.030 A 
ATOM     16  C   UNL     1       1.183   3.345  -0.239  0.00  0.00    +0.005 A 
ATOM     17  C   UNL     1      -0.006   4.048  -0.282  0.00  0.00    +0.000 A 
ENDBRANCH  11  15
ENDBRANCH   1  11
BRANCH   4  18
ATOM     18  C   UNL     1       1.764  -0.667  -4.422  0.00  0.00    +0.066 C 
BRANCH  18  19
ATOM     19  C   UNL     1       1.028   0.645  -4.512  0.00  0.00    -0.009 A 
ATOM     20  C   UNL     1       1.189   1.655  -5.402  0.00  0.00    +0.011 A 
ATOM     21  C   UNL     1       0.391   2.778  -5.292  0.00  0.00    +0.008 A 
ATOM     22  C   UNL     1      -0.528   2.837  -4.298  0.00  0.00    +0.045 A 
ATOM     23  S   UNL     1      -0.289   1.268  -3.480  0.00  0.00    -0.102 S 
ENDBRANCH  18  19
ENDBRANCH   4  18
BRANCH   4  24
ATOM     24  C   UNL     1       3.755  -1.828  -3.520  0.00  0.00    -0.053 C 
BRANCH  24  38
ATOM     25  C   UNL     1       4.904  -1.619  -1.402  0.00  0.00    -0.074 C 
ATOM     26  C   UNL     1       6.239  -1.369  -0.717  0.00  0.00    -0.007 C 
ATOM     27  C   UNL     1       7.281  -2.399  -1.161  0.00  0.00    +0.011 C 
ATOM     28  C   UNL     1       7.386  -2.320  -2.689  0.00  0.00    +0.020 C 
ATOM     29  C   UNL     1       6.011  -2.678  -3.279  0.00  0.00    -0.069 C 
ATOM     30  C   UNL     1       7.697  -0.897  -3.093  0.00  0.00    +0.023 A 
ATOM     31  C   UNL     1       8.344  -0.710  -4.273  0.00  0.00    +0.022 A 
ATOM     32  C   UNL     1       8.578   0.582  -4.759  0.00  0.00    +0.007 A 
ATOM     33  C   UNL     1       8.134   1.648  -4.034  0.00  0.00    +0.070 A 
ATOM     34  C   UNL     1       7.480   1.421  -2.815  0.00  0.00    +0.251 A 
ATOM     35  O   UNL     1       7.045   2.367  -2.179  0.00  0.00    -0.268 OA
ATOM     36  N   UNL     1       7.325   0.162  -2.336  0.00  0.00    -0.312 N 
ATOM     37  C   UNL     1       6.763   0.030  -0.991  0.00  0.00    +0.126 C 
ATOM     38  N   UNL     1       5.065  -1.616  -2.869  0.00  0.00    +0.381 N 
ATOM     39  H   UNL     1       5.439  -0.706  -3.161  0.00  0.00    -0.082 HD
ENDBRANCH  24  38
ENDBRANCH   4  24
TORSDOF 6
