REMARK  Name = ZINC02091117
REMARK  4 active torsions:
REMARK  status: ('A' for Active; 'I' for Inactive)
REMARK    1  A    between atoms: C_1  and  O_2
REMARK    2  A    between atoms: O_2  and  C_3
REMARK    3  A    between atoms: C_3  and  C_5
REMARK    4  A    between atoms: C_10  and  N_11
REMARK                            x       y       z     vdW  Elec       q    Type
REMARK                         _______ _______ _______ _____ _____    ______ ____
ROOT
ATOM      1  N   UNL     1      -3.672  -2.026   0.026  0.00  0.00    -0.209 N 
ATOM      2  C   UNL     1      -4.300  -1.643  -1.092  0.00  0.00    +0.228 C 
ATOM      3  O   UNL     1      -3.930  -1.884  -2.221  0.00  0.00    -0.275 OA
ATOM      4  C   UNL     1      -5.544  -0.865  -0.727  0.00  0.00    +0.074 C 
ATOM      5  C   UNL     1      -6.790  -1.673  -1.133  0.00  0.00    -0.054 C 
ATOM      6  C   UNL     1      -6.419  -2.640  -2.273  0.00  0.00    -0.016 C 
ATOM      7  C   UNL     1      -5.990  -3.948  -1.580  0.00  0.00    -0.020 C 
ATOM      8  C   UNL     1      -6.111  -3.662  -0.070  0.00  0.00    -0.076 C 
ATOM      9  N   UNL     1      -7.102  -2.533   0.048  0.00  0.00    +0.395 N 
ATOM     10  C   UNL     1      -6.776  -1.694   1.213  0.00  0.00    +0.053 C 
ATOM     11  C   UNL     1      -5.526  -0.868   0.826  0.00  0.00    +0.089 C 
ATOM     12  C   UNL     1      -4.276  -1.650   1.159  0.00  0.00    +0.229 C 
ATOM     13  O   UNL     1      -3.881  -1.896   2.278  0.00  0.00    -0.275 OA
ATOM     14  C   UNL     1      -7.924  -0.799   1.587  0.00  0.00    -0.027 A 
ATOM     15  C   UNL     1      -8.619   0.181   0.914  0.00  0.00    +0.004 A 
ATOM     16  C   UNL     1      -9.656   0.849   1.541  0.00  0.00    +0.000 A 
ATOM     17  C   UNL     1      -9.992   0.529   2.844  0.00  0.00    +0.002 A 
ATOM     18  C   UNL     1      -9.299  -0.451   3.522  0.00  0.00    +0.023 A 
ATOM     19  C   UNL     1      -8.254  -1.129   2.898  0.00  0.00    +0.036 A 
ATOM     20  N   UNL     1      -7.415  -2.143   3.366  0.00  0.00    -0.286 N 
ATOM     21  C   UNL     1      -6.520  -2.531   2.438  0.00  0.00    +0.212 C 
ATOM     22  O   UNL     1      -5.672  -3.389   2.564  0.00  0.00    -0.277 OA
ATOM     23  H   UNL     1      -7.471  -2.523   4.256  0.00  0.00    +0.155 HD
ATOM     24  H   UNL     1      -8.058  -2.855   0.051  0.00  0.00    -0.079 HD
ENDROOT
BRANCH   1  30
ATOM     25  C   UNL     1      -1.247  -2.105   0.003  0.00  0.00    +0.081 A 
ATOM     26  C   UNL     1      -0.068  -2.854  -0.007  0.00  0.00    +0.017 A 
ATOM     27  C   UNL     1      -0.128  -4.231  -0.013  0.00  0.00    +0.001 A 
ATOM     28  C   UNL     1      -1.354  -4.878  -0.011  0.00  0.00    +0.002 A 
ATOM     29  C   UNL     1      -2.527  -4.150  -0.001  0.00  0.00    +0.025 A 
ATOM     30  C   UNL     1      -2.486  -2.763   0.011  0.00  0.00    +0.058 A 
BRANCH  25  31
ATOM     31  C   UNL     1      -1.190  -0.632   0.010  0.00  0.00    +0.341 C 
ATOM     32  O   UNL     1      -2.218   0.016   0.023  0.00  0.00    -0.245 OA
BRANCH  31  34
ATOM     33  C   UNL     1      -0.017   1.425   0.010  0.00  0.00    +0.280 C 
ATOM     34  O   UNL     1       0.002  -0.004   0.002  0.00  0.00    -0.464 OA
ENDBRANCH  31  34
ENDBRANCH  25  31
ENDBRANCH   1  30
TORSDOF 3
