REMARK  Name = ZINC36597409
REMARK  16 active torsions:
REMARK  status: ('A' for Active; 'I' for Inactive)
REMARK    1  A    between atoms: C_1  and  C_2
REMARK    2  A    between atoms: C_5  and  C_7
REMARK    3  A    between atoms: C_7  and  N_8
REMARK    4  A    between atoms: N_8  and  C_9
REMARK    5  A    between atoms: C_9  and  C_11
REMARK    6  A    between atoms: C_9  and  C_20
REMARK    7  A    between atoms: N_22  and  C_23
REMARK    8  A    between atoms: C_23  and  C_24
REMARK    9  A    between atoms: C_23  and  C_25
REMARK   10  A    between atoms: C_23  and  C_26
REMARK   11  A    between atoms: C_26  and  C_27
REMARK   12  A    between atoms: C_27  and  C_28
REMARK   13  A    between atoms: C_27  and  C_29
REMARK   14  A    between atoms: C_27  and  C_30
REMARK   15  A    between atoms: C_31  and  C_33
REMARK   16  A    between atoms: C_36  and  O_39
REMARK                            x       y       z     vdW  Elec       q    Type
REMARK                         _______ _______ _______ _____ _____    ______ ____
ROOT
ATOM      1  C   UNL     1       2.343  -3.207  -2.384  0.00  0.00    +0.193 C 
ENDROOT
BRANCH   1   2
ATOM      2  C   UNL     1       3.548  -3.993  -1.937  0.00  0.00    -0.014 A 
ATOM      3  C   UNL     1       3.893  -4.026  -0.598  0.00  0.00    +0.010 A 
ATOM      4  C   UNL     1       4.997  -4.746  -0.183  0.00  0.00    +0.050 A 
ATOM      5  C   UNL     1       5.763  -5.437  -1.108  0.00  0.00    +0.166 A 
ATOM      6  C   UNL     1       5.416  -5.404  -2.457  0.00  0.00    +0.167 A 
ATOM      7  C   UNL     1       4.304  -4.685  -2.865  0.00  0.00    +0.055 A 
ATOM      8  O   UNL     1       6.316  -6.154  -3.157  0.00  0.00    -0.453 OA
ATOM      9  C   UNL     1       7.449  -6.311  -2.283  0.00  0.00    +0.466 C 
ATOM     10  O   UNL     1       6.880  -6.208  -0.964  0.00  0.00    -0.453 OA
ENDBRANCH   1   2
BRANCH   1  11
ATOM     11  C   UNL     1       2.782  -1.855  -2.885  0.00  0.00    +0.239 C 
ATOM     12  O   UNL     1       2.392  -0.848  -2.333  0.00  0.00    -0.273 OA
ATOM     13  N   UNL     1       3.608  -1.766  -3.946  0.00  0.00    -0.308 N 
ATOM     14  H   UNL     1       3.920  -2.571  -4.387  0.00  0.00    +0.149 HD
BRANCH  13  15
ATOM     15  C   UNL     1       4.035  -0.452  -4.433  0.00  0.00    +0.030 C 
ATOM     16  C   UNL     1       2.857   0.247  -5.115  0.00  0.00    +0.031 C 
ATOM     17  C   UNL     1       4.519   0.396  -3.255  0.00  0.00    +0.031 C 
BRANCH  15  18
ATOM     18  C   UNL     1       5.176  -0.626  -5.438  0.00  0.00    +0.031 C 
BRANCH  18  19
ATOM     19  C   UNL     1       6.145  -1.695  -4.928  0.00  0.00    -0.036 C 
ATOM     20  C   UNL     1       5.454  -3.060  -4.944  0.00  0.00    +0.010 C 
ATOM     21  C   UNL     1       7.379  -1.737  -5.832  0.00  0.00    +0.010 C 
ATOM     22  C   UNL     1       6.572  -1.357  -3.498  0.00  0.00    +0.010 C 
ENDBRANCH  18  19
ENDBRANCH  15  18
ENDBRANCH  13  15
ENDBRANCH   1  11
BRANCH   1  23
ATOM     23  N   UNL     1       1.426  -3.035  -1.254  0.00  0.00    -0.275 N 
ATOM     24  C   UNL     1       0.794  -4.104  -0.730  0.00  0.00    +0.248 C 
ATOM     25  O   UNL     1       0.079  -3.970   0.244  0.00  0.00    -0.270 OA
BRANCH  24  26
ATOM     26  C   UNL     1       0.971  -5.437  -1.339  0.00  0.00    +0.037 A 
ATOM     27  C   UNL     1       1.854  -5.608  -2.408  0.00  0.00    +0.016 A 
ATOM     28  C   UNL     1       2.017  -6.853  -2.972  0.00  0.00    +0.046 A 
ATOM     29  C   UNL     1       1.302  -7.940  -2.481  0.00  0.00    +0.117 A 
ATOM     30  C   UNL     1       0.422  -7.774  -1.418  0.00  0.00    +0.046 A 
ATOM     31  C   UNL     1       0.259  -6.533  -0.844  0.00  0.00    +0.016 A 
BRANCH  29  32
ATOM     32  O   UNL     1       1.464  -9.165  -3.041  0.00  0.00    -0.507 OA
ATOM     33  H   UNL     1       2.165  -9.694  -2.635  0.00  0.00    +0.292 HD
ENDBRANCH  29  32
ENDBRANCH  24  26
BRANCH  23  34
ATOM     34  C   UNL     1       1.195  -1.701  -0.695  0.00  0.00    +0.183 C 
BRANCH  34  39
ATOM     35  C   UNL     1      -1.236   1.202  -4.027  0.00  0.00    +0.086 C 
ATOM     36  C   UNL     1      -0.978   0.237  -2.899  0.00  0.00    +0.102 A 
ATOM     37  C   UNL     1      -1.917  -0.367  -2.150  0.00  0.00    +0.045 A 
ATOM     38  C   UNL     1      -1.236  -1.181  -1.216  0.00  0.00    +0.046 A 
ATOM     39  C   UNL     1       0.079  -1.026  -1.450  0.00  0.00    +0.122 A 
ATOM     40  O   UNL     1       0.230  -0.170  -2.474  0.00  0.00    -0.463 OA
ENDBRANCH  34  39
ENDBRANCH  23  34
ENDBRANCH   1  23
TORSDOF 10
