REMARK  Name = ZINC06198083
REMARK  10 active torsions:
REMARK  status: ('A' for Active; 'I' for Inactive)
REMARK    1  A    between atoms: C_1  and  C_2
REMARK    2  A    between atoms: C_2  and  C_3
REMARK    3  A    between atoms: C_10  and  C_15
REMARK    4  A    between atoms: C_15  and  C_17
REMARK    5  A    between atoms: C_15  and  N_67
REMARK    6  A    between atoms: N_21  and  C_22
REMARK    7  A    between atoms: C_22  and  C_23
REMARK    8  A    between atoms: C_26  and  O_29
REMARK    9  A    between atoms: O_29  and  C_30
REMARK   10  A    between atoms: C_33  and  C_36
REMARK                            x       y       z     vdW  Elec       q    Type
REMARK                         _______ _______ _______ _____ _____    ______ ____
ROOT
ATOM      1  C   UNL     1      -1.224   2.027   0.509  0.00  0.00    +0.039 C 
ENDROOT
BRANCH   1   9
ATOM      2  C   UNL     1      -2.301   3.085   6.510  0.00  0.00    -0.047 A 
ATOM      3  C   UNL     1      -2.788   1.819   6.806  0.00  0.00    +0.005 A 
ATOM      4  C   UNL     1      -2.876   0.852   5.827  0.00  0.00    +0.026 A 
ATOM      5  C   UNL     1      -2.470   1.145   4.529  0.00  0.00    +0.049 A 
ATOM      6  C   UNL     1      -1.976   2.429   4.233  0.00  0.00    -0.001 A 
ATOM      7  C   UNL     1      -1.897   3.395   5.242  0.00  0.00    +0.013 A 
ATOM      8  C   UNL     1      -1.552   2.728   2.864  0.00  0.00    +0.017 A 
ATOM      9  C   UNL     1      -1.652   1.753   1.927  0.00  0.00    +0.011 A 
ATOM     10  C   UNL     1      -2.160   0.483   2.276  0.00  0.00    +0.251 A 
ATOM     11  O   UNL     1      -2.246  -0.378   1.417  0.00  0.00    -0.268 OA
ATOM     12  N   UNL     1      -2.546   0.197   3.531  0.00  0.00    -0.322 N 
ATOM     13  H   UNL     1      -2.894  -0.716   3.744  0.00  0.00    +0.169 HD
BRANCH   2  15
ATOM     14  C   UNL     1      -3.522   4.919   7.646  0.00  0.00    +0.009 C 
ATOM     15  C   UNL     1      -2.215   4.125   7.596  0.00  0.00    +0.032 C 
ENDBRANCH   2  15
ENDBRANCH   1   9
BRANCH   1  22
ATOM     16  C   UNL     1      -3.576   2.328   0.020  0.00  0.00    -0.077 C 
ATOM     17  C   UNL     1      -4.724   1.842  -0.869  0.00  0.00    -0.015 C 
ATOM     18  C   UNL     1      -4.420   2.198  -2.326  0.00  0.00    -0.018 C 
ATOM     19  C   UNL     1      -3.087   1.565  -2.731  0.00  0.00    -0.015 C 
ATOM     20  C   UNL     1      -1.986   2.058  -1.789  0.00  0.00    -0.077 C 
ATOM     21  C   UNL     1      -5.535   1.662  -3.227  0.00  0.00    +0.007 C 
ATOM     22  N   UNL     1      -2.326   1.663  -0.406  0.00  0.00    +0.389 N 
ATOM     23  H   UNL     1      -2.463   0.645  -0.374  0.00  0.00    -0.080 HD
ENDBRANCH   1  22
BRANCH   1  24
ATOM     24  C   UNL     1      -0.019   1.187   0.176  0.00  0.00    +0.143 A 
ATOM     25  N   UNL     1      -0.017  -0.079  -0.163  0.00  0.00    -0.115 NA
ATOM     26  N   UNL     1       1.204  -0.433  -0.373  0.00  0.00    -0.023 NA
ATOM     27  N   UNL     1       1.981   0.574  -0.177  0.00  0.00    -0.044 NA
ATOM     28  N   UNL     1       1.265   1.592   0.163  0.00  0.00    -0.226 N 
BRANCH  28  29
ATOM     29  C   UNL     1       1.756   2.936   0.475  0.00  0.00    +0.182 C 
BRANCH  29  30
ATOM     30  C   UNL     1       1.928   3.718  -0.802  0.00  0.00    -0.026 A 
ATOM     31  C   UNL     1       3.100   3.606  -1.527  0.00  0.00    +0.009 A 
ATOM     32  C   UNL     1       3.259   4.317  -2.700  0.00  0.00    +0.046 A 
ATOM     33  C   UNL     1       2.244   5.152  -3.146  0.00  0.00    +0.120 A 
ATOM     34  C   UNL     1       1.072   5.267  -2.414  0.00  0.00    +0.046 A 
ATOM     35  C   UNL     1       0.916   4.550  -1.244  0.00  0.00    +0.009 A 
BRANCH  33  36
ATOM     36  O   UNL     1       2.400   5.857  -4.298  0.00  0.00    -0.495 OA
ATOM     37  C   UNL     1       3.633   5.689  -5.000  0.00  0.00    +0.277 C 
ENDBRANCH  33  36
ENDBRANCH  29  30
ENDBRANCH  28  29
ENDBRANCH   1  24
TORSDOF 7
