REMARK  Name = ZINC02222806
REMARK  12 active torsions:
REMARK  status: ('A' for Active; 'I' for Inactive)
REMARK    1  A    between atoms: C_1  and  C_2
REMARK    2  A    between atoms: C_2  and  C_3
REMARK    3  A    between atoms: C_3  and  O_4
REMARK    4  A    between atoms: O_4  and  C_5
REMARK    5  A    between atoms: C_5  and  C_7
REMARK    6  A    between atoms: C_10  and  O_13
REMARK    7  A    between atoms: O_13  and  C_14
REMARK    8  A    between atoms: C_20  and  O_38
REMARK    9  A    between atoms: C_21  and  C_29
REMARK   10  A    between atoms: C_24  and  C_25
REMARK   11  A    between atoms: C_29  and  N_30
REMARK   12  A    between atoms: C_35  and  C_37
REMARK                            x       y       z     vdW  Elec       q    Type
REMARK                         _______ _______ _______ _____ _____    ______ ____
ROOT
ATOM      1  C   UNL     1       2.186  -8.585  -3.713  0.00  0.00    +0.222 A 
ATOM      2  C   UNL     1       2.286  -9.987  -3.942  0.00  0.00    +0.235 A 
ATOM      3  O   UNL     1       1.737 -10.791  -3.207  0.00  0.00    -0.283 OA
ATOM      4  C   UNL     1       3.079 -10.426  -5.103  0.00  0.00    +0.068 A 
ATOM      5  C   UNL     1       3.234 -11.779  -5.408  0.00  0.00    +0.019 A 
ATOM      6  C   UNL     1       3.976 -12.147  -6.494  0.00  0.00    +0.046 A 
ATOM      7  C   UNL     1       4.579 -11.180  -7.296  0.00  0.00    +0.122 A 
ATOM      8  C   UNL     1       4.435  -9.834  -7.006  0.00  0.00    +0.020 A 
ATOM      9  C   UNL     1       3.683  -9.443  -5.907  0.00  0.00    +0.144 A 
ATOM     10  O   UNL     1       3.526  -8.139  -5.603  0.00  0.00    -0.447 OA
ATOM     11  C   UNL     1       2.803  -7.729  -4.553  0.00  0.00    +0.254 A 
ENDROOT
BRANCH  11  12
ATOM     12  C   UNL     1       2.679  -6.250  -4.295  0.00  0.00    +0.454 C 
ATOM     13  F   UNL     1       2.043  -6.042  -3.066  0.00  0.00    -0.163 F 
ATOM     14  F   UNL     1       3.953  -5.673  -4.264  0.00  0.00    -0.163 F 
ATOM     15  F   UNL     1       1.925  -5.660  -5.315  0.00  0.00    -0.163 F 
ENDBRANCH  11  12
BRANCH   7  16
ATOM     16  O   UNL     1       5.314 -11.562  -8.372  0.00  0.00    -0.506 OA
ATOM     17  H   UNL     1       4.804 -11.641  -9.189  0.00  0.00    +0.292 HD
ENDBRANCH   7  16
BRANCH   1  18
ATOM     18  O   UNL     1       1.469  -8.112  -2.658  0.00  0.00    -0.448 OA
BRANCH  18  22
ATOM     19  C   UNL     1       2.856  -8.918   1.145  0.00  0.00    +0.059 A 
ATOM     20  C   UNL     1       1.623  -8.283   0.969  0.00  0.00    +0.018 A 
ATOM     21  C   UNL     1       1.165  -8.015  -0.301  0.00  0.00    +0.047 A 
ATOM     22  C   UNL     1       1.925  -8.376  -1.408  0.00  0.00    +0.129 A 
ATOM     23  C   UNL     1       3.152  -9.008  -1.237  0.00  0.00    +0.047 A 
ATOM     24  C   UNL     1       3.621  -9.274   0.030  0.00  0.00    +0.018 A 
BRANCH  19  25
ATOM     25  C   UNL     1       3.352  -9.206   2.504  0.00  0.00    +0.339 C 
ATOM     26  O   UNL     1       4.426  -9.754   2.655  0.00  0.00    -0.245 OA
BRANCH  25  27
ATOM     27  O   UNL     1       2.613  -8.863   3.577  0.00  0.00    -0.461 OA
BRANCH  27  28
ATOM     28  C   UNL     1       3.155  -9.172   4.863  0.00  0.00    +0.232 C 
BRANCH  28  30
ATOM     29  C   UNL     1       2.762  -9.042   7.327  0.00  0.00    +0.007 C 
ATOM     30  C   UNL     1       2.182  -8.710   5.950  0.00  0.00    +0.038 C 
ENDBRANCH  28  30
ENDBRANCH  27  28
ENDBRANCH  25  27
ENDBRANCH  19  25
ENDBRANCH  18  22
ENDBRANCH   1  18
BRANCH   8  31
ATOM     31  C   UNL     1       5.093  -8.797  -7.880  0.00  0.00    -0.035 C 
BRANCH  31  32
ATOM     32  N   UNL     1       4.172  -8.411  -8.958  0.00  0.00    +0.384 N 
ATOM     33  C   UNL     1       2.994  -7.753  -8.381  0.00  0.00    -0.078 C 
ATOM     34  C   UNL     1       1.995  -7.421  -9.491  0.00  0.00    -0.019 C 
ATOM     35  C   UNL     1       2.659  -6.484 -10.504  0.00  0.00    -0.003 C 
ATOM     36  C   UNL     1       3.928  -7.150 -11.045  0.00  0.00    -0.016 C 
ATOM     37  C   UNL     1       4.855  -7.492  -9.877  0.00  0.00    -0.071 C 
ATOM     38  C   UNL     1       6.125  -8.157 -10.412  0.00  0.00    -0.013 C 
ATOM     39  H   UNL     1       3.882  -9.235  -9.463  0.00  0.00    -0.081 HD
ENDBRANCH  31  32
ENDBRANCH   8  31
TORSDOF 10
