REMARK  Name = ZINC09243418
REMARK  6 active torsions:
REMARK  status: ('A' for Active; 'I' for Inactive)
REMARK    1  A    between atoms: C_4  and  O_32
REMARK    2  A    between atoms: C_5  and  C_7
REMARK    3  A    between atoms: C_9  and  C_13
REMARK    4  A    between atoms: N_15  and  C_16
REMARK    5  A    between atoms: C_19  and  S_22
REMARK    6  A    between atoms: S_22  and  N_25
REMARK                            x       y       z     vdW  Elec       q    Type
REMARK                         _______ _______ _______ _____ _____    ______ ____
ROOT
ATOM      1  C   UNL     1       1.294  -6.705  -0.790  0.00  0.00    +0.268 C 
ATOM      2  O   UNL     1       1.301  -7.701  -1.487  0.00  0.00    -0.268 OA
ATOM      3  N   UNL     1       0.748  -6.748   0.441  0.00  0.00    -0.280 N 
ATOM      4  H   UNL     1       0.802  -5.973   1.023  0.00  0.00    +0.155 HD
ENDROOT
BRANCH   1   7
ATOM      5  C   UNL     1       2.883  -3.944  -2.570  0.00  0.00    +0.070 A 
ATOM      6  C   UNL     1       2.489  -5.253  -2.554  0.00  0.00    +0.062 A 
ATOM      7  C   UNL     1       1.885  -5.448  -1.293  0.00  0.00    +0.148 A 
ATOM      8  N   UNL     1       1.944  -4.300  -0.647  0.00  0.00    -0.169 NA
ATOM      9  N   UNL     1       2.526  -3.409  -1.368  0.00  0.00    -0.276 N 
ATOM     10  H   UNL     1       2.685  -2.492  -1.097  0.00  0.00    +0.189 HD
BRANCH   5  15
ATOM     11  C   UNL     1       5.204  -3.236  -5.438  0.00  0.00    +0.001 A 
ATOM     12  C   UNL     1       4.861  -1.932  -5.751  0.00  0.00    +0.004 A 
ATOM     13  C   UNL     1       3.876  -1.278  -5.035  0.00  0.00    +0.046 A 
ATOM     14  C   UNL     1       3.226  -1.926  -3.997  0.00  0.00    +0.126 A 
ATOM     15  C   UNL     1       3.571  -3.244  -3.677  0.00  0.00    +0.041 A 
ATOM     16  C   UNL     1       4.566  -3.894  -4.407  0.00  0.00    +0.013 A 
BRANCH  14  17
ATOM     17  O   UNL     1       2.259  -1.284  -3.292  0.00  0.00    -0.506 OA
ATOM     18  H   UNL     1       1.369  -1.394  -3.655  0.00  0.00    +0.292 HD
ENDBRANCH  14  17
ENDBRANCH   5  15
ENDBRANCH   1   7
BRANCH   3  19
ATOM     19  C   UNL     1       0.103  -7.909   0.880  0.00  0.00    +0.034 A 
ATOM     20  C   UNL     1      -1.017  -7.816   1.697  0.00  0.00    +0.025 A 
ATOM     21  C   UNL     1      -1.651  -8.965   2.128  0.00  0.00    +0.030 A 
ATOM     22  C   UNL     1      -1.173 -10.205   1.748  0.00  0.00    +0.106 A 
ATOM     23  C   UNL     1      -0.058 -10.301   0.935  0.00  0.00    +0.030 A 
ATOM     24  C   UNL     1       0.578  -9.156   0.496  0.00  0.00    +0.025 A 
BRANCH  22  25
ATOM     25  S   UNL     1      -1.985 -11.668   2.301  0.00  0.00    +0.061 S 
ATOM     26  O   UNL     1      -1.020 -12.710   2.254  0.00  0.00    -0.153 OA
ATOM     27  O   UNL     1      -2.676 -11.322   3.494  0.00  0.00    -0.153 OA
BRANCH  25  28
ATOM     28  N   UNL     1      -3.141 -12.041   1.176  0.00  0.00    -0.177 NA
ATOM     29  C   UNL     1      -4.466 -11.486   1.333  0.00  0.00    +0.109 C 
ATOM     30  C   UNL     1      -5.330 -12.440   2.195  0.00  0.00    +0.017 C 
ATOM     31  C   UNL     1      -5.662 -13.655   1.435  0.00  0.00    +0.001 C 
ATOM     32  C   UNL     1      -4.453 -14.496   1.038  0.00  0.00    +0.001 C 
ATOM     33  C   UNL     1      -3.874 -13.963  -0.249  0.00  0.00    +0.017 C 
ATOM     34  C   UNL     1      -2.774 -12.923   0.050  0.00  0.00    +0.109 C 
ENDBRANCH  25  28
ENDBRANCH  22  25
ENDBRANCH   3  19
TORSDOF 6
