REMARK  Name = ZINC64609670
REMARK  8 active torsions:
REMARK  status: ('A' for Active; 'I' for Inactive)
REMARK    1  A    between atoms: C_1  and  C_2
REMARK    2  A    between atoms: C_2  and  C_3
REMARK    3  A    between atoms: C_6  and  C_9
REMARK    4  A    between atoms: C_24  and  C_26
REMARK    5  A    between atoms: C_26  and  S_27
REMARK    6  A    between atoms: S_27  and  C_28
REMARK    7  A    between atoms: C_31  and  C_33
REMARK    8  A    between atoms: C_33  and  C_34
REMARK                            x       y       z     vdW  Elec       q    Type
REMARK                         _______ _______ _______ _____ _____    ______ ____
ROOT
ATOM      1  C   UNL     1       2.788  -1.901   4.696  0.00  0.00    +0.133 C 
ATOM      2  C   UNL     1       3.131  -0.736   5.630  0.00  0.00    +0.131 C 
ATOM      3  C   UNL     1       3.603  -1.354   6.940  0.00  0.00    -0.035 C 
ATOM      4  C   UNL     1       4.813  -0.858   7.174  0.00  0.00    -0.001 A 
ATOM      5  C   UNL     1       5.737  -1.025   8.307  0.00  0.00    +0.010 A 
ATOM      6  C   UNL     1       6.924  -0.368   8.214  0.00  0.00    +0.001 A 
ATOM      7  C   UNL     1       7.278   0.428   7.121  0.00  0.00    +0.002 A 
ATOM      8  C   UNL     1       6.488   0.641   6.038  0.00  0.00    +0.026 A 
ATOM      9  C   UNL     1       5.212   0.007   6.022  0.00  0.00    +0.043 A 
ATOM     10  N   UNL     1       4.248   0.061   5.120  0.00  0.00    -0.375 N 
ATOM     11  C   UNL     1       2.793  -2.383   7.690  0.00  0.00    +0.052 C 
ATOM     12  C   UNL     1       2.410  -3.472   6.671  0.00  0.00    +0.113 C 
ATOM     13  N   UNL     1       1.932  -2.840   5.438  0.00  0.00    -0.291 N 
ATOM     14  C   UNL     1       0.695  -3.119   4.980  0.00  0.00    +0.226 C 
ATOM     15  O   UNL     1       0.334  -2.686   3.906  0.00  0.00    -0.275 OA
ATOM     16  H   UNL     1       4.268   0.532   4.273  0.00  0.00    +0.160 HD
ENDROOT
BRANCH   1  20
ATOM     17  C   UNL     1       0.699  -0.441   1.268  0.00  0.00    -0.048 A 
ATOM     18  C   UNL     1       1.569  -1.508   1.144  0.00  0.00    +0.004 A 
ATOM     19  C   UNL     1       2.245  -1.981   2.254  0.00  0.00    +0.006 A 
ATOM     20  C   UNL     1       2.052  -1.385   3.486  0.00  0.00    -0.025 A 
ATOM     21  C   UNL     1       1.183  -0.317   3.609  0.00  0.00    +0.006 A 
ATOM     22  C   UNL     1       0.510   0.158   2.499  0.00  0.00    +0.004 A 
BRANCH  17  24
ATOM     23  C   UNL     1       0.799   1.157  -0.626  0.00  0.00    +0.009 C 
ATOM     24  C   UNL     1      -0.038   0.074   0.059  0.00  0.00    +0.032 C 
ENDBRANCH  17  24
ENDBRANCH   1  20
BRANCH  14  25
ATOM     25  C   UNL     1      -0.238  -3.970   5.802  0.00  0.00    +0.174 C 
BRANCH  25  26
ATOM     26  S   UNL     1      -1.812  -4.164   4.922  0.00  0.00    -0.056 S 
BRANCH  26  27
ATOM     27  C   UNL     1      -2.781  -5.169   5.998  0.00  0.00    +0.278 A 
ATOM     28  N   UNL     1      -2.410  -5.643   7.163  0.00  0.00    -0.101 NA
ATOM     29  N   UNL     1      -3.371  -6.334   7.667  0.00  0.00    -0.112 NA
ATOM     30  C   UNL     1      -4.384  -6.330   6.851  0.00  0.00    +0.218 A 
ATOM     31  O   UNL     1      -4.041  -5.590   5.779  0.00  0.00    -0.416 OA
BRANCH  30  32
ATOM     32  C   UNL     1      -5.705  -7.022   7.069  0.00  0.00    +0.094 C 
ATOM     33  C   UNL     1      -6.667  -6.073   7.786  0.00  0.00    +0.013 C 
ENDBRANCH  30  32
ENDBRANCH  26  27
ENDBRANCH  25  26
ENDBRANCH  14  25
TORSDOF 6
