REMARK  Name = ZINC39898288
REMARK  11 active torsions:
REMARK  status: ('A' for Active; 'I' for Inactive)
REMARK    1  A    between atoms: C_1  and  O_2
REMARK    2  A    between atoms: O_2  and  C_3
REMARK    3  A    between atoms: C_3  and  C_4
REMARK    4  A    between atoms: C_4  and  C_5
REMARK    5  A    between atoms: C_5  and  N_6
REMARK    6  A    between atoms: C_7  and  C_25
REMARK    7  A    between atoms: C_10  and  C_17
REMARK    8  A    between atoms: C_22  and  O_23
REMARK    9  A    between atoms: C_29  and  O_31
REMARK   10  A    between atoms: O_31  and  C_32
REMARK   11  A    between atoms: C_32  and  C_33
REMARK                            x       y       z     vdW  Elec       q    Type
REMARK                         _______ _______ _______ _____ _____    ______ ____
ROOT
ATOM      1  N   UNL     1      -2.408  -4.226   0.002  0.00  0.00    -0.285 N 
ATOM      2  C   UNL     1      -2.333  -5.076  -1.193  0.00  0.00    +0.141 C 
ATOM      3  C   UNL     1      -2.200  -6.488  -0.693  0.00  0.00    +0.035 A 
ATOM      4  C   UNL     1      -2.075  -7.845  -1.010  0.00  0.00    +0.102 A 
ATOM      5  N   UNL     1      -2.008  -8.511   0.126  0.00  0.00    -0.173 NA
ATOM      6  N   UNL     1      -2.078  -7.710   1.128  0.00  0.00    -0.272 N 
ATOM      7  H   UNL     1      -2.049  -7.979   2.060  0.00  0.00    +0.189 HD
ATOM      8  C   UNL     1      -2.200  -6.423   0.687  0.00  0.00    +0.126 A 
ATOM      9  C   UNL     1      -2.324  -5.017   1.088  0.00  0.00    +0.265 C 
ATOM     10  O   UNL     1      -2.349  -4.622   2.238  0.00  0.00    -0.268 OA
ENDROOT
BRANCH   4  11
ATOM     11  C   UNL     1      -2.027  -8.428  -2.374  0.00  0.00    +0.045 A 
ATOM     12  C   UNL     1      -2.103  -7.599  -3.491  0.00  0.00    +0.033 A 
ATOM     13  C   UNL     1      -2.058  -8.146  -4.759  0.00  0.00    +0.042 A 
ATOM     14  C   UNL     1      -1.937  -9.516  -4.923  0.00  0.00    +0.023 A 
ATOM     15  C   UNL     1      -1.861 -10.345  -3.821  0.00  0.00    +0.047 A 
ATOM     16  C   UNL     1      -1.899  -9.809  -2.544  0.00  0.00    +0.126 A 
ATOM     17 CL   UNL     1      -2.153  -7.113  -6.151  0.00  0.00    -0.084 Cl
BRANCH  16  18
ATOM     18  O   UNL     1      -1.819 -10.624  -1.459  0.00  0.00    -0.506 OA
ATOM     19  H   UNL     1      -2.675 -10.941  -1.141  0.00  0.00    +0.292 HD
ENDBRANCH  16  18
ENDBRANCH   4  11
BRANCH   2  20
ATOM     20  C   UNL     1      -1.132  -4.702  -2.022  0.00  0.00    -0.019 A 
ATOM     21  C   UNL     1       0.067  -4.396  -1.403  0.00  0.00    +0.006 A 
ATOM     22  C   UNL     1       1.171  -4.053  -2.160  0.00  0.00    +0.004 A 
ATOM     23  C   UNL     1       1.080  -4.013  -3.538  0.00  0.00    +0.045 A 
ATOM     24  C   UNL     1      -0.121  -4.319  -4.162  0.00  0.00    +0.121 A 
ATOM     25  C   UNL     1      -1.226  -4.670  -3.400  0.00  0.00    +0.051 A 
BRANCH  24  26
ATOM     26  O   UNL     1      -0.213  -4.281  -5.517  0.00  0.00    -0.487 OA
BRANCH  26  27
ATOM     27  C   UNL     1       0.966  -3.918  -6.237  0.00  0.00    +0.264 C 
BRANCH  27  28
ATOM     28  C   UNL     1       0.675  -3.929  -7.716  0.00  0.00    -0.010 A 
ATOM     29  C   UNL     1       0.858  -5.088  -8.447  0.00  0.00    +0.007 A 
ATOM     30  C   UNL     1       0.591  -5.099  -9.804  0.00  0.00    +0.000 A 
ATOM     31  C   UNL     1       0.141  -3.951 -10.428  0.00  0.00    +0.000 A 
ATOM     32  C   UNL     1      -0.043  -2.792  -9.697  0.00  0.00    +0.000 A 
ATOM     33  C   UNL     1       0.220  -2.783  -8.340  0.00  0.00    +0.007 A 
ENDBRANCH  27  28
ENDBRANCH  26  27
ENDBRANCH  24  26
ENDBRANCH   2  20
BRANCH   1  34
ATOM     34  C   UNL     1      -2.543  -2.768   0.011  0.00  0.00    +0.111 C 
BRANCH  34  35
ATOM     35  C   UNL     1      -1.154  -2.126   0.002  0.00  0.00    +0.047 C 
BRANCH  35  36
ATOM     36  C   UNL     1      -1.295  -0.603   0.011  0.00  0.00    +0.161 C 
BRANCH  36  38
ATOM     37  C   UNL     1      -0.017   1.425   0.010  0.00  0.00    +0.193 C 
ATOM     38  O   UNL     1       0.002  -0.004   0.002  0.00  0.00    -0.383 OA
ENDBRANCH  36  38
ENDBRANCH  35  36
ENDBRANCH  34  35
ENDBRANCH   1  34
TORSDOF 10
