REMARK  Name = ZINC67269934
REMARK  8 active torsions:
REMARK  status: ('A' for Active; 'I' for Inactive)
REMARK    1  A    between atoms: C_1  and  C_2
REMARK    2  A    between atoms: C_2  and  N_3
REMARK    3  A    between atoms: C_9  and  C_16
REMARK    4  A    between atoms: N_18  and  C_19
REMARK    5  A    between atoms: C_19  and  C_20
REMARK    6  A    between atoms: C_20  and  C_22
REMARK    7  A    between atoms: C_20  and  N_23
REMARK    8  A    between atoms: C_26  and  C_29
REMARK                            x       y       z     vdW  Elec       q    Type
REMARK                         _______ _______ _______ _____ _____    ______ ____
ROOT
ATOM      1  N   UNL     1      -2.127   0.662  -0.417  0.00  0.00    -0.261 N 
ATOM      2  C   UNL     1      -2.558   0.198   0.776  0.00  0.00    +0.264 A 
ATOM      3  O   UNL     1      -1.876   0.317   1.775  0.00  0.00    -0.267 OA
ATOM      4  C   UNL     1      -3.880  -0.458   0.835  0.00  0.00    +0.063 A 
ATOM      5  C   UNL     1      -4.391  -0.961   2.030  0.00  0.00    +0.016 A 
ATOM      6  C   UNL     1      -5.629  -1.565   2.042  0.00  0.00    +0.014 A 
ATOM      7  C   UNL     1      -6.371  -1.674   0.862  0.00  0.00    +0.039 A 
ATOM      8  C   UNL     1      -5.866  -1.174  -0.336  0.00  0.00    +0.039 A 
ATOM      9  C   UNL     1      -4.621  -0.565  -0.353  0.00  0.00    +0.056 A 
ATOM     10  N   UNL     1      -4.082  -0.052  -1.525  0.00  0.00    -0.307 N 
ATOM     11  H   UNL     1      -4.583  -0.119  -2.353  0.00  0.00    +0.170 HD
ATOM     12  C   UNL     1      -2.876   0.540  -1.524  0.00  0.00    +0.330 A 
ATOM     13  O   UNL     1      -2.442   0.980  -2.571  0.00  0.00    -0.246 OA
ENDROOT
BRANCH   7  14
ATOM     14  C   UNL     1      -7.700  -2.326   0.886  0.00  0.00    +0.244 C 
ATOM     15  O   UNL     1      -8.348  -2.424  -0.138  0.00  0.00    -0.270 OA
ATOM     16  N   UNL     1      -8.192  -2.813   2.043  0.00  0.00    -0.313 N 
ATOM     17  H   UNL     1      -7.675  -2.735   2.860  0.00  0.00    +0.149 HD
BRANCH  16  18
ATOM     18  C   UNL     1      -9.507  -3.458   2.067  0.00  0.00    +0.089 C 
BRANCH  18  19
ATOM     19  C   UNL     1      -9.883  -3.796   3.510  0.00  0.00    -0.054 C 
ATOM     20  C   UNL     1     -11.294  -4.386   3.545  0.00  0.00    -0.012 C 
BRANCH  19  21
ATOM     21  N   UNL     1      -9.842  -2.575   4.326  0.00  0.00    +0.382 N 
ATOM     22  C   UNL     1     -10.882  -1.646   3.866  0.00  0.00    -0.078 C 
ATOM     23  C   UNL     1     -10.791  -0.341   4.658  0.00  0.00    -0.016 C 
ATOM     24  C   UNL     1     -10.994  -0.638   6.147  0.00  0.00    -0.018 C 
ATOM     25  C   UNL     1      -9.951  -1.664   6.598  0.00  0.00    -0.016 C 
ATOM     26  C   UNL     1     -10.072  -2.921   5.734  0.00  0.00    -0.078 C 
ATOM     27  C   UNL     1     -10.826   0.651   6.953  0.00  0.00    +0.007 C 
ATOM     28  H   UNL     1      -8.938  -2.138   4.231  0.00  0.00    -0.081 HD
ENDBRANCH  19  21
ENDBRANCH  18  19
ENDBRANCH  16  18
ENDBRANCH   7  14
BRANCH   1  30
ATOM     29  C   UNL     1      -0.983   2.818  -0.254  0.00  0.00    +0.027 C 
ATOM     30  C   UNL     1      -0.819   1.317  -0.502  0.00  0.00    +0.126 C 
ENDBRANCH   1  30
TORSDOF 5
