REMARK  Name = ZINC10035039
REMARK  12 active torsions:
REMARK  status: ('A' for Active; 'I' for Inactive)
REMARK    1  A    between atoms: C_1  and  C_2
REMARK    2  A    between atoms: C_2  and  C_3
REMARK    3  A    between atoms: C_3  and  C_5
REMARK    4  A    between atoms: C_3  and  S_19
REMARK    5  A    between atoms: N_7  and  C_8
REMARK    6  A    between atoms: C_11  and  C_14
REMARK    7  A    between atoms: C_14  and  O_16
REMARK    8  A    between atoms: O_16  and  C_17
REMARK    9  A    between atoms: C_17  and  C_18
REMARK   10  A    between atoms: S_19  and  C_20
REMARK   11  A    between atoms: C_22  and  C_31
REMARK   12  A    between atoms: C_24  and  C_29
REMARK                            x       y       z     vdW  Elec       q    Type
REMARK                         _______ _______ _______ _____ _____    ______ ____
ROOT
ATOM      1  C   UNL     1       4.753   4.279  -0.324  0.00  0.00    +0.140 C 
ENDROOT
BRANCH   1   2
ATOM      2  C   UNL     1       3.352   3.724  -0.272  0.00  0.00    +0.231 C 
ATOM      3  O   UNL     1       2.403   4.456  -0.457  0.00  0.00    -0.274 OA
ATOM      4  N   UNL     1       3.155   2.415  -0.020  0.00  0.00    -0.285 N 
ATOM      5  H   UNL     1       3.908   1.845   0.200  0.00  0.00    +0.155 HD
BRANCH   4   6
ATOM      6  C   UNL     1       1.869   1.880  -0.077  0.00  0.00    +0.033 A 
ATOM      7  C   UNL     1       1.511   0.841   0.777  0.00  0.00    +0.024 A 
ATOM      8  C   UNL     1       0.242   0.311   0.724  0.00  0.00    +0.017 A 
ATOM      9  C   UNL     1      -0.688   0.817  -0.190  0.00  0.00    +0.059 A 
ATOM     10  C   UNL     1      -0.325   1.861  -1.046  0.00  0.00    +0.017 A 
ATOM     11  C   UNL     1       0.946   2.387  -0.987  0.00  0.00    +0.024 A 
BRANCH   9  12
ATOM     12  C   UNL     1      -2.049   0.252  -0.250  0.00  0.00    +0.339 C 
ATOM     13  O   UNL     1      -2.363  -0.656   0.495  0.00  0.00    -0.245 OA
BRANCH  12  14
ATOM     14  O   UNL     1      -2.943   0.741  -1.131  0.00  0.00    -0.461 OA
BRANCH  14  15
ATOM     15  C   UNL     1      -4.263   0.136  -1.134  0.00  0.00    +0.229 C 
ATOM     16  C   UNL     1      -5.134   0.817  -2.192  0.00  0.00    +0.048 C 
ENDBRANCH  14  15
ENDBRANCH  12  14
ENDBRANCH   9  12
ENDBRANCH   4   6
ENDBRANCH   1   2
BRANCH   1  18
ATOM     17  C   UNL     1       6.803   4.489  -1.736  0.00  0.00    +0.005 C 
ATOM     18  C   UNL     1       5.331   4.073  -1.725  0.00  0.00    +0.020 C 
ENDBRANCH   1  18
BRANCH   1  19
ATOM     19  S   UNL     1       4.715   6.048   0.059  0.00  0.00    -0.078 S 
BRANCH  19  20
ATOM     20  C   UNL     1       4.198   5.985   1.742  0.00  0.00    +0.157 C 
ATOM     21  N   UNL     1       4.073   4.833   2.326  0.00  0.00    -0.253 NA
ATOM     22  C   UNL     1       3.640   4.727   3.719  0.00  0.00    +0.163 C 
ATOM     23  C   UNL     1       4.184   5.910   4.522  0.00  0.00    +0.206 C 
ATOM     24  C   UNL     1       3.920   7.185   3.760  0.00  0.00    +0.238 C 
ATOM     25  O   UNL     1       3.697   8.219   4.354  0.00  0.00    -0.274 OA
ATOM     26  N   UNL     1       3.939   7.163   2.413  0.00  0.00    -0.264 N 
ATOM     27  H   UNL     1       3.767   7.977   1.915  0.00  0.00    +0.157 HD
BRANCH  22  28
ATOM     28  C   UNL     1       4.158   3.440   4.309  0.00  0.00    -0.021 A 
ATOM     29  C   UNL     1       5.470   3.062   4.095  0.00  0.00    +0.006 A 
ATOM     30  C   UNL     1       5.947   1.884   4.640  0.00  0.00    +0.000 A 
ATOM     31  C   UNL     1       5.109   1.080   5.390  0.00  0.00    +0.000 A 
ATOM     32  C   UNL     1       3.795   1.456   5.599  0.00  0.00    +0.000 A 
ATOM     33  C   UNL     1       3.320   2.636   5.058  0.00  0.00    +0.006 A 
ENDBRANCH  22  28
BRANCH  23  34
ATOM     34  C   UNL     1       3.511   5.968   5.830  0.00  0.00    +0.078 C 
ATOM     35  N   UNL     1       2.992   6.013   6.840  0.00  0.00    -0.196 NA
ENDBRANCH  23  34
ENDBRANCH  19  20
ENDBRANCH   1  19
TORSDOF 10
