REMARK  Name = ZINC28717887
REMARK  6 active torsions:
REMARK  status: ('A' for Active; 'I' for Inactive)
REMARK    1  A    between atoms: C_3  and  C_21
REMARK    2  A    between atoms: C_6  and  C_7
REMARK    3  A    between atoms: C_7  and  N_8
REMARK    4  A    between atoms: C_9  and  C_11
REMARK    5  A    between atoms: N_23  and  N_24
REMARK    6  A    between atoms: C_25  and  C_27
REMARK                            x       y       z     vdW  Elec       q    Type
REMARK                         _______ _______ _______ _____ _____    ______ ____
ROOT
ATOM      1  C   UNL     1      -2.949   0.242  -1.183  0.00  0.00    +0.006 A 
ATOM      2  C   UNL     1      -3.982  -0.672  -1.190  0.00  0.00    +0.013 A 
ATOM      3  C   UNL     1      -4.502  -1.141   0.017  0.00  0.00    +0.038 A 
ATOM      4  C   UNL     1      -3.970  -0.685   1.224  0.00  0.00    +0.013 A 
ATOM      5  C   UNL     1      -2.933   0.225   1.217  0.00  0.00    +0.006 A 
ATOM      6  C   UNL     1      -2.422   0.686   0.017  0.00  0.00    -0.030 A 
ENDROOT
BRANCH   3   7
ATOM      7  C   UNL     1      -5.613  -2.117   0.017  0.00  0.00    +0.260 C 
ATOM      8  O   UNL     1      -6.064  -2.524   1.070  0.00  0.00    -0.269 OA
ATOM      9  N   UNL     1      -6.125  -2.555  -1.150  0.00  0.00    -0.230 N 
ATOM     10  H   UNL     1      -5.717  -2.186  -2.103  0.00  0.00    +0.173 HD
BRANCH   9  11
ATOM     11  N   UNL     1      -7.178  -3.480  -1.150  0.00  0.00    -0.229 N 
ATOM     12  C   UNL     1      -7.689  -3.918  -2.317  0.00  0.00    +0.276 C 
ATOM     13  O   UNL     1      -7.238  -3.510  -3.371  0.00  0.00    -0.267 OA
ATOM     14  H   UNL     1      -7.586  -3.848  -0.198  0.00  0.00    +0.173 HD
BRANCH  12  15
ATOM     15  C   UNL     1      -8.791  -4.886  -2.317  0.00  0.00    +0.104 A 
ATOM     16  C   UNL     1      -9.413  -5.413  -3.429  0.00  0.00    +0.047 A 
ATOM     17  C   UNL     1     -10.400  -6.292  -2.971  0.00  0.00    +0.036 A 
ATOM     18  C   UNL     1     -10.370  -6.280  -1.617  0.00  0.00    +0.098 A 
ATOM     19  N   UNL     1      -9.397  -5.429  -1.207  0.00  0.00    -0.356 N 
ATOM     20  H   UNL     1      -9.058  -5.143  -0.200  0.00  0.00    +0.166 HD
ATOM     21 BR   UNL     1     -11.573  -7.310  -4.050  0.00  0.00    -0.049 Br
ENDBRANCH  12  15
ENDBRANCH   9  11
ENDBRANCH   3   7
BRANCH   6  22
ATOM     22  C   UNL     1      -1.290   1.681   0.017  0.00  0.00    +0.139 C 
BRANCH  22  23
ATOM     23  N   UNL     1      -0.011   0.966   0.007  0.00  0.00    -0.311 N 
ATOM     24  C   UNL     1       1.147   1.655   0.000  0.00  0.00    +0.219 C 
ATOM     25  O   UNL     1       1.130   2.868   0.007  0.00  0.00    -0.275 OA
ATOM     26  H   UNL     1       0.004  -0.134   0.006  0.00  0.00    +0.149 HD
BRANCH  24  27
ATOM     27  C   UNL     1       2.462   0.920  -0.017  0.00  0.00    +0.048 C 
ATOM     28  C   UNL     1       2.567   0.035   1.227  0.00  0.00    +0.019 C 
ATOM     29  C   UNL     1       3.902  -0.712   1.210  0.00  0.00    -0.009 C 
ATOM     30  C   UNL     1       5.051   0.298   1.205  0.00  0.00    +0.007 C 
ATOM     31  C   UNL     1       4.946   1.183  -0.039  0.00  0.00    -0.009 C 
ATOM     32  C   UNL     1       3.611   1.930  -0.022  0.00  0.00    +0.019 C 
ATOM     33  C   UNL     1       5.027   0.311  -1.294  0.00  0.00    +0.007 C 
ATOM     34  C   UNL     1       3.878  -0.699  -1.288  0.00  0.00    -0.009 C 
ATOM     35  C   UNL     1       3.983  -1.584  -0.044  0.00  0.00    +0.007 C 
ATOM     36  C   UNL     1       2.543   0.048  -1.271  0.00  0.00    +0.019 C 
ENDBRANCH  24  27
ENDBRANCH  22  23
ENDBRANCH   6  22
TORSDOF 6
