REMARK  Name = ZINC09058183
REMARK  7 active torsions:
REMARK  status: ('A' for Active; 'I' for Inactive)
REMARK    1  A    between atoms: C_1  and  N_2
REMARK    2  A    between atoms: N_7  and  C_10
REMARK    3  A    between atoms: N_11  and  C_14
REMARK    4  A    between atoms: C_14  and  C_15
REMARK    5  A    between atoms: N_17  and  C_18
REMARK    6  A    between atoms: N_17  and  C_24
REMARK    7  A    between atoms: C_18  and  C_19
REMARK                            x       y       z     vdW  Elec       q    Type
REMARK                         _______ _______ _______ _____ _____    ______ ____
ROOT
ATOM      1  C   UNL     1       4.778   0.020  -0.156  0.00  0.00    +0.240 C 
ATOM      2  O   UNL     1       4.769   1.233  -0.149  0.00  0.00    -0.273 OA
ATOM      3  N   UNL     1       3.621  -0.663  -0.044  0.00  0.00    -0.265 N 
ENDROOT
BRANCH   3   4
ATOM      4  C   UNL     1       2.401   0.025  -0.020  0.00  0.00    +0.040 A 
ATOM      5  C   UNL     1       1.643   0.054   1.143  0.00  0.00    +0.027 A 
ATOM      6  C   UNL     1       0.440   0.732   1.167  0.00  0.00    +0.051 A 
ATOM      7  C   UNL     1      -0.015   1.385   0.031  0.00  0.00    +0.162 A 
ATOM      8  C   UNL     1       0.743   1.360  -1.134  0.00  0.00    +0.164 A 
ATOM      9  C   UNL     1       1.950   0.679  -1.158  0.00  0.00    +0.073 A 
ATOM     10  O   UNL     1       0.317   2.003  -2.256  0.00  0.00    -0.485 OA
ATOM     11  C   UNL     1      -1.068   2.359  -2.307  0.00  0.00    +0.270 C 
ATOM     12  C   UNL     1      -1.450   2.999  -0.966  0.00  0.00    +0.270 C 
ATOM     13  O   UNL     1      -1.208   2.042   0.072  0.00  0.00    -0.485 OA
ENDBRANCH   3   4
BRANCH   1  14
ATOM     14  C   UNL     1       6.082  -0.724  -0.289  0.00  0.00    +0.219 C 
BRANCH  14  25
ATOM     15  C   UNL     1      10.651   3.289   0.333  0.00  0.00    +0.155 C 
ATOM     16  N   UNL     1       9.631   2.410   0.912  0.00  0.00    -0.280 N 
ATOM     17  C   UNL     1       8.806   1.668   0.082  0.00  0.00    +0.168 A 
ATOM     18  C   UNL     1       7.843   0.847   0.654  0.00  0.00    +0.152 A 
ATOM     19  C   UNL     1       7.740   0.784   2.061  0.00  0.00    +0.282 A 
ATOM     20  O   UNL     1       6.907   0.069   2.587  0.00  0.00    -0.265 OA
ATOM     21  N   UNL     1       8.573   1.531   2.816  0.00  0.00    -0.262 N 
ATOM     22  C   UNL     1       9.497   2.325   2.249  0.00  0.00    +0.333 A 
ATOM     23  O   UNL     1      10.230   2.984   2.961  0.00  0.00    -0.246 OA
ATOM     24  C   UNL     1       8.469   1.474   4.276  0.00  0.00    +0.157 C 
ATOM     25  N   UNL     1       7.183   0.237  -0.394  0.00  0.00    -0.316 N 
ATOM     26  C   UNL     1       7.740   0.697  -1.531  0.00  0.00    +0.202 A 
ATOM     27  N   UNL     1       8.698   1.541  -1.243  0.00  0.00    -0.218 NA
ENDBRANCH  14  25
ENDBRANCH   1  14
BRANCH   3  28
ATOM     28  C   UNL     1       3.640  -2.125   0.052  0.00  0.00    +0.156 C 
BRANCH  28  29
ATOM     29  C   UNL     1       3.565  -2.720  -1.331  0.00  0.00    +0.007 A 
ATOM     30  C   UNL     1       4.574  -3.047  -2.175  0.00  0.00    +0.013 A 
ATOM     31  C   UNL     1       4.267  -3.588  -3.409  0.00  0.00    +0.008 A 
ATOM     32  C   UNL     1       2.965  -3.774  -3.740  0.00  0.00    +0.045 A 
ATOM     33  S   UNL     1       2.125  -3.183  -2.279  0.00  0.00    -0.100 S 
ENDBRANCH  28  29
ENDBRANCH   3  28
TORSDOF 5
