REMARK  Name = ZINC63993698
REMARK  14 active torsions:
REMARK  status: ('A' for Active; 'I' for Inactive)
REMARK    1  A    between atoms: C_1  and  C_2
REMARK    2  A    between atoms: N_4  and  C_5
REMARK    3  A    between atoms: C_9  and  N_31
REMARK    4  A    between atoms: N_13  and  C_20
REMARK    5  A    between atoms: C_14  and  C_16
REMARK    6  A    between atoms: C_16  and  O_18
REMARK    7  A    between atoms: O_18  and  C_19
REMARK    8  A    between atoms: C_20  and  C_21
REMARK    9  A    between atoms: C_21  and  C_22
REMARK   10  A    between atoms: N_31  and  C_32
REMARK   11  A    between atoms: C_32  and  C_33
REMARK   12  A    between atoms: C_33  and  C_34
REMARK   13  A    between atoms: C_33  and  C_35
REMARK   14  A    between atoms: C_33  and  C_36
REMARK                            x       y       z     vdW  Elec       q    Type
REMARK                         _______ _______ _______ _____ _____    ______ ____
ROOT
ATOM      1  C   UNL     1      -1.136  -2.159   0.001  0.00  0.00    +0.138 C 
ATOM      2  C   UNL     1      -1.096  -2.678  -1.417  0.00  0.00    +0.015 A 
ATOM      3  C   UNL     1      -0.164  -2.510  -2.423  0.00  0.00    +0.033 A 
ATOM      4  C   UNL     1      -0.398  -3.121  -3.654  0.00  0.00    +0.044 A 
ATOM      5  C   UNL     1      -1.554  -3.869  -3.819  0.00  0.00    +0.107 A 
ATOM      6  N   UNL     1      -2.419  -4.006  -2.836  0.00  0.00    -0.348 N 
ATOM      7  C   UNL     1      -2.234  -3.440  -1.643  0.00  0.00    +0.105 A 
ATOM      8  N   UNL     1      -3.048  -3.490  -0.513  0.00  0.00    -0.301 N 
ATOM      9  C   UNL     1      -2.447  -2.717   0.580  0.00  0.00    +0.208 C 
ATOM     10  H   UNL     1      -3.217  -4.536  -2.984  0.00  0.00    +0.167 HD
ENDROOT
BRANCH   1  14
ATOM     11  C   UNL     1      -0.018   1.503   0.010  0.00  0.00    +0.109 C 
ATOM     12  C   UNL     1       0.002  -0.004   0.002  0.00  0.00    +0.210 C 
ATOM     13  O   UNL     1       1.060  -0.596  -0.011  0.00  0.00    -0.276 OA
ATOM     14  N   UNL     1      -1.156  -0.694   0.009  0.00  0.00    -0.306 N 
ATOM     15  H   UNL     1      -2.002  -0.220   0.020  0.00  0.00    +0.149 HD
ENDBRANCH   1  14
BRANCH   9  16
ATOM     16  C   UNL     1      -3.360  -1.589   0.988  0.00  0.00    +0.330 C 
ATOM     17  O   UNL     1      -4.268  -1.255   0.264  0.00  0.00    -0.249 OA
BRANCH  16  18
ATOM     18  O   UNL     1      -3.165  -0.957   2.155  0.00  0.00    -0.467 OA
ATOM     19  C   UNL     1      -4.069   0.102   2.478  0.00  0.00    +0.280 C 
ENDBRANCH  16  18
ENDBRANCH   9  16
BRANCH   4  20
ATOM     20  N   UNL     1       0.516  -2.980  -4.706  0.00  0.00    -0.342 N 
ATOM     21  H   UNL     1       1.322  -2.454  -4.581  0.00  0.00    +0.146 HD
BRANCH  20  22
ATOM     22  C   UNL     1       0.256  -3.627  -5.994  0.00  0.00    +0.107 C 
BRANCH  22  23
ATOM     23  C   UNL     1       1.401  -3.318  -6.961  0.00  0.00    -0.022 C 
ATOM     24  C   UNL     1       2.715  -3.845  -6.381  0.00  0.00    +0.012 C 
ATOM     25  C   UNL     1       1.130  -3.994  -8.306  0.00  0.00    +0.012 C 
ATOM     26  C   UNL     1       1.503  -1.804  -7.162  0.00  0.00    +0.012 C 
ENDBRANCH  22  23
ENDBRANCH  20  22
ENDBRANCH   4  20
BRANCH   8  27
ATOM     27  C   UNL     1      -4.320  -4.212  -0.429  0.00  0.00    +0.112 C 
BRANCH  27  28
ATOM     28  C   UNL     1      -4.064  -5.641   0.052  0.00  0.00    +0.052 C 
BRANCH  28  29
ATOM     29  C   UNL     1      -5.373  -6.384   0.140  0.00  0.00    -0.040 C 
ATOM     30  C   UNL     1      -5.916  -7.188  -0.802  0.00  0.00    -0.001 A 
ATOM     31  C   UNL     1      -5.468  -7.596  -2.139  0.00  0.00    +0.010 A 
ATOM     32  C   UNL     1      -6.246  -8.432  -2.865  0.00  0.00    +0.001 A 
ATOM     33  C   UNL     1      -7.466  -8.916  -2.373  0.00  0.00    +0.002 A 
ATOM     34  C   UNL     1      -7.944  -8.585  -1.155  0.00  0.00    +0.026 A 
ATOM     35  C   UNL     1      -7.208  -7.713  -0.306  0.00  0.00    +0.043 A 
ATOM     36  N   UNL     1      -7.454  -7.252   0.896  0.00  0.00    -0.380 N 
ATOM     37  C   UNL     1      -6.342  -6.385   1.301  0.00  0.00    +0.144 C 
ATOM     38  H   UNL     1      -8.238  -7.452   1.430  0.00  0.00    +0.160 HD
ENDBRANCH  28  29
ENDBRANCH  27  28
ENDBRANCH   8  27
TORSDOF 9
