REMARK  Name = ZINC09584650
REMARK  11 active torsions:
REMARK  status: ('A' for Active; 'I' for Inactive)
REMARK    1  A    between atoms: C_1  and  C_2
REMARK    2  A    between atoms: C_2  and  C_3
REMARK    3  A    between atoms: C_3  and  C_4
REMARK    4  A    between atoms: C_4  and  N_5
REMARK    5  A    between atoms: C_6  and  N_35
REMARK    6  A    between atoms: C_7  and  N_14
REMARK    7  A    between atoms: N_14  and  C_15
REMARK    8  A    between atoms: C_15  and  C_16
REMARK    9  A    between atoms: C_22  and  C_24
REMARK   10  A    between atoms: C_24  and  N_65
REMARK   11  A    between atoms: C_32  and  C_34
REMARK                            x       y       z     vdW  Elec       q    Type
REMARK                         _______ _______ _______ _____ _____    ______ ____
ROOT
ATOM      1  N   UNL     1       3.899  -0.843  -1.378  0.00  0.00    -0.261 N 
ATOM      2  C   UNL     1       3.592  -2.085  -1.806  0.00  0.00    +0.204 C 
ATOM      3  O   UNL     1       3.962  -2.458  -2.900  0.00  0.00    -0.277 OA
ENDROOT
BRANCH   1   6
ATOM      4  N   UNL     1       6.793   1.143  -2.466  0.00  0.00    -0.280 N 
ATOM      5  C   UNL     1       5.991   0.342  -1.686  0.00  0.00    +0.127 A 
ATOM      6  C   UNL     1       4.742  -0.018  -2.151  0.00  0.00    +0.140 A 
ATOM      7  C   UNL     1       4.323   0.457  -3.408  0.00  0.00    +0.277 A 
ATOM      8  O   UNL     1       3.223   0.158  -3.841  0.00  0.00    -0.266 OA
ATOM      9  N   UNL     1       5.146   1.243  -4.130  0.00  0.00    -0.273 N 
ATOM     10  H   UNL     1       4.849   1.581  -5.023  0.00  0.00    +0.173 HD
ATOM     11  C   UNL     1       6.361   1.579  -3.663  0.00  0.00    +0.331 A 
ATOM     12  O   UNL     1       7.083   2.290  -4.335  0.00  0.00    -0.246 OA
BRANCH   5  13
ATOM     13  N   UNL     1       6.430  -0.099  -0.460  0.00  0.00    -0.343 N 
ATOM     14  H   UNL     1       5.904  -0.742   0.040  0.00  0.00    +0.144 HD
ATOM     15  H   UNL     1       7.265   0.234  -0.096  0.00  0.00    +0.144 HD
ENDBRANCH   5  13
BRANCH   4  16
ATOM     16  C   UNL     1       8.123   1.528  -1.986  0.00  0.00    +0.128 C 
BRANCH  16  17
ATOM     17  C   UNL     1       8.020   2.831  -1.190  0.00  0.00    +0.021 C 
BRANCH  17  19
ATOM     18  C   UNL     1       9.306   4.536   0.107  0.00  0.00    +0.004 C 
ATOM     19  C   UNL     1       9.409   3.233  -0.690  0.00  0.00    -0.002 C 
ENDBRANCH  17  19
ENDBRANCH  16  17
ENDBRANCH   4  16
ENDBRANCH   1   6
BRANCH   1  20
ATOM     20  C   UNL     1       3.356  -0.351  -0.109  0.00  0.00    +0.149 C 
BRANCH  20  21
ATOM     21  C   UNL     1       2.110   0.454  -0.374  0.00  0.00    -0.030 A 
ATOM     22  C   UNL     1       0.872  -0.163  -0.355  0.00  0.00    +0.005 A 
ATOM     23  C   UNL     1      -0.271   0.575  -0.598  0.00  0.00    +0.000 A 
ATOM     24  C   UNL     1      -0.178   1.929  -0.860  0.00  0.00    +0.000 A 
ATOM     25  C   UNL     1       1.060   2.545  -0.879  0.00  0.00    +0.000 A 
ATOM     26  C   UNL     1       2.203   1.807  -0.637  0.00  0.00    +0.005 A 
ENDBRANCH  20  21
ENDBRANCH   1  20
BRANCH   2  27
ATOM     27  C   UNL     1       2.789  -3.009  -0.927  0.00  0.00    +0.020 C 
BRANCH  27  37
ATOM     28  C   UNL     1       1.578  -3.931  -2.810  0.00  0.00    -0.072 C 
ATOM     29  C   UNL     1       1.595  -5.127  -3.778  0.00  0.00    +0.024 C 
ATOM     30  C   UNL     1       1.425  -6.370  -2.968  0.00  0.00    -0.010 A 
ATOM     31  C   UNL     1       1.543  -6.483  -1.615  0.00  0.00    -0.051 A 
ATOM     32  C   UNL     1       1.337  -7.750  -1.076  0.00  0.00    +0.010 A 
ATOM     33  C   UNL     1       1.037  -8.791  -1.888  0.00  0.00    +0.045 A 
ATOM     34  S   UNL     1       1.030  -8.013  -3.497  0.00  0.00    -0.101 S 
ATOM     35  C   UNL     1       1.887  -5.250  -0.784  0.00  0.00    -0.039 C 
ATOM     36  C   UNL     1       2.907  -5.625   0.292  0.00  0.00    -0.008 C 
ATOM     37  N   UNL     1       2.492  -4.240  -1.684  0.00  0.00    +0.390 N 
ATOM     38  H   UNL     1       3.368  -4.618  -2.063  0.00  0.00    -0.080 HD
ENDBRANCH  27  37
ENDBRANCH   2  27
TORSDOF 9
