REMARK  Name = ZINC32104630
REMARK  4 active torsions:
REMARK  status: ('A' for Active; 'I' for Inactive)
REMARK    1  A    between atoms: C_1  and  C_2
REMARK    2  A    between atoms: N_8  and  C_28
REMARK    3  A    between atoms: N_20  and  C_21
REMARK    4  A    between atoms: C_28  and  C_29
REMARK                            x       y       z     vdW  Elec       q    Type
REMARK                         _______ _______ _______ _____ _____    ______ ____
ROOT
ATOM      1  C   UNL     1      -0.191   1.897   0.046  0.00  0.00    +0.045 C 
ATOM      2  C   UNL     1      -0.268   0.406  -0.154  0.00  0.00    -0.029 A 
ATOM      3  C   UNL     1      -0.448  -0.145  -1.413  0.00  0.00    +0.005 A 
ATOM      4  C   UNL     1      -0.520  -1.509  -1.611  0.00  0.00    +0.001 A 
ATOM      5  C   UNL     1      -0.416  -2.401  -0.548  0.00  0.00    +0.007 A 
ATOM      6  C   UNL     1      -0.238  -1.861   0.707  0.00  0.00    -0.006 A 
ATOM      7  C   UNL     1      -0.157  -0.479   0.920  0.00  0.00    +0.045 A 
ATOM      8  N   UNL     1       0.030  -0.209   2.264  0.00  0.00    -0.258 N 
ATOM      9  C   UNL     1       0.087  -1.337   3.003  0.00  0.00    +0.236 C 
ATOM     10  O   UNL     1       0.242  -1.405   4.204  0.00  0.00    -0.274 OA
ATOM     11  C   UNL     1      -0.091  -2.499   2.051  0.00  0.00    +0.112 C 
ATOM     12  C   UNL     1      -1.331  -3.312   2.416  0.00  0.00    +0.122 C 
ATOM     13  C   UNL     1      -1.309  -4.664   1.758  0.00  0.00    +0.220 C 
ATOM     14  O   UNL     1      -2.350  -5.136   1.352  0.00  0.00    -0.275 OA
ATOM     15  N   UNL     1      -0.169  -5.369   1.605  0.00  0.00    -0.270 N 
ATOM     16  C   UNL     1       1.043  -4.740   1.888  0.00  0.00    +0.133 A 
ATOM     17  C   UNL     1       1.120  -3.388   2.106  0.00  0.00    +0.032 A 
ATOM     18  C   UNL     1       2.447  -3.072   2.362  0.00  0.00    +0.141 A 
ATOM     19  N   UNL     1       3.154  -4.176   2.295  0.00  0.00    -0.173 NA
ATOM     20  N   UNL     1       2.291  -5.241   1.988  0.00  0.00    -0.217 N 
ATOM     21  H   UNL     1      -0.192  -6.291   1.305  0.00  0.00    +0.156 HD
ENDROOT
BRANCH  20  22
ATOM     22  C   UNL     1       2.659  -6.583   1.817  0.00  0.00    +0.086 A 
ATOM     23  C   UNL     1       1.931  -7.589   2.438  0.00  0.00    +0.029 A 
ATOM     24  C   UNL     1       2.297  -8.910   2.268  0.00  0.00    +0.002 A 
ATOM     25  C   UNL     1       3.387  -9.231   1.480  0.00  0.00    +0.002 A 
ATOM     26  C   UNL     1       4.115  -8.233   0.860  0.00  0.00    +0.022 A 
ATOM     27  C   UNL     1       3.751  -6.909   1.022  0.00  0.00    +0.066 A 
ATOM     28 CL   UNL     1       4.661  -5.655   0.239  0.00  0.00    -0.081 Cl
ENDBRANCH  20  22
BRANCH   8  29
ATOM     29  C   UNL     1       0.152   1.141   2.819  0.00  0.00    +0.202 C 
BRANCH  29  30
ATOM     30  C   UNL     1      -1.188   1.667   3.129  0.00  0.00    -0.086 C 
ATOM     31  C   UNL     1      -2.256   2.087   3.376  0.00  0.00    +0.005 C 
ENDBRANCH  29  30
ENDBRANCH   8  29
TORSDOF 3
