REMARK  Name = ZINC36605078
REMARK  13 active torsions:
REMARK  status: ('A' for Active; 'I' for Inactive)
REMARK    1  A    between atoms: C_1  and  C_2
REMARK    2  A    between atoms: C_5  and  S_8
REMARK    3  A    between atoms: S_8  and  C_11
REMARK    4  A    between atoms: C_11  and  N_12
REMARK    5  A    between atoms: C_13  and  C_15
REMARK    6  A    between atoms: C_15  and  C_17
REMARK    7  A    between atoms: C_15  and  N_26
REMARK    8  A    between atoms: C_20  and  N_23
REMARK    9  A    between atoms: N_26  and  C_27
REMARK   10  A    between atoms: C_33  and  C_35
REMARK   11  A    between atoms: C_35  and  C_36
REMARK   12  A    between atoms: C_36  and  C_37
REMARK   13  A    between atoms: C_36  and  C_38
REMARK                            x       y       z     vdW  Elec       q    Type
REMARK                         _______ _______ _______ _____ _____    ______ ____
ROOT
ATOM      1  C   UNL     1       3.333  -4.878   3.575  0.00  0.00    +0.197 C 
ENDROOT
BRANCH   1   2
ATOM      2  C   UNL     1       2.878  -4.422   4.938  0.00  0.00    -0.018 A 
ATOM      3  C   UNL     1       2.266  -5.316   5.797  0.00  0.00    +0.008 A 
ATOM      4  C   UNL     1       1.849  -4.898   7.046  0.00  0.00    +0.033 A 
ATOM      5  C   UNL     1       2.043  -3.586   7.437  0.00  0.00    +0.126 A 
ATOM      6  C   UNL     1       2.656  -2.693   6.578  0.00  0.00    +0.033 A 
ATOM      7  C   UNL     1       3.077  -3.112   5.330  0.00  0.00    +0.008 A 
BRANCH   5   8
ATOM      8  N   UNL     1       1.595  -3.138   8.775  0.00  0.00    +0.056 N 
ATOM      9  O   UNL     1       1.059  -3.919   9.526  0.00  0.00    -0.126 OA
ATOM     10  O   UNL     1       1.766  -1.991   9.117  0.00  0.00    -0.126 OA
ENDBRANCH   5   8
ENDBRANCH   1   2
BRANCH   1  12
ATOM     11  N   UNL     1       2.138  -3.070   2.382  0.00  0.00    -0.294 N 
ATOM     12  C   UNL     1       2.361  -4.391   2.532  0.00  0.00    +0.240 C 
ATOM     13  O   UNL     1       1.779  -5.188   1.827  0.00  0.00    -0.273 OA
ATOM     14  H   UNL     1       2.603  -2.433   2.947  0.00  0.00    +0.150 HD
BRANCH  11  15
ATOM     15  C   UNL     1       1.192  -2.597   1.368  0.00  0.00    +0.278 C 
BRANCH  15  16
ATOM     16  S   UNL     1      -0.435  -2.346   2.129  0.00  0.00    +0.013 S 
ATOM     17  O   UNL     1      -0.782  -3.470   2.925  0.00  0.00    -0.168 OA
ATOM     18  O   UNL     1      -1.348  -1.827   1.172  0.00  0.00    -0.168 OA
BRANCH  16  23
ATOM     19  C   UNL     1       0.372   2.144   6.078  0.00  0.00    +0.044 C 
ATOM     20  C   UNL     1       0.171   1.023   5.092  0.00  0.00    -0.050 A 
ATOM     21  C   UNL     1      -0.195   1.305   3.789  0.00  0.00    +0.005 A 
ATOM     22  C   UNL     1      -0.380   0.277   2.884  0.00  0.00    +0.027 A 
ATOM     23  C   UNL     1      -0.199  -1.035   3.282  0.00  0.00    +0.090 A 
ATOM     24  C   UNL     1       0.168  -1.317   4.585  0.00  0.00    +0.027 A 
ATOM     25  C   UNL     1       0.357  -0.288   5.488  0.00  0.00    +0.005 A 
ENDBRANCH  16  23
ENDBRANCH  15  16
ENDBRANCH  11  15
ENDBRANCH   1  12
BRANCH   1  26
ATOM     26  N   UNL     1       3.391  -6.341   3.544  0.00  0.00    -0.255 N 
ATOM     27  C   UNL     1       2.254  -7.062   3.609  0.00  0.00    +0.221 C 
ATOM     28  O   UNL     1       1.179  -6.500   3.620  0.00  0.00    -0.275 OA
BRANCH  26  29
ATOM     29  C   UNL     1       4.626  -6.991   3.446  0.00  0.00    +0.037 A 
ATOM     30  C   UNL     1       5.621  -6.475   2.626  0.00  0.00    +0.023 A 
ATOM     31  C   UNL     1       6.839  -7.118   2.532  0.00  0.00    +0.002 A 
ATOM     32  C   UNL     1       7.070  -8.274   3.255  0.00  0.00    +0.000 A 
ATOM     33  C   UNL     1       6.082  -8.791   4.073  0.00  0.00    +0.002 A 
ATOM     34  C   UNL     1       4.863  -8.149   4.175  0.00  0.00    +0.023 A 
ENDBRANCH  26  29
BRANCH  27  35
ATOM     35  C   UNL     1       2.318  -8.567   3.668  0.00  0.00    +0.099 C 
BRANCH  35  36
ATOM     36  C   UNL     1       1.240  -9.159   2.758  0.00  0.00    -0.008 C 
ATOM     37  C   UNL     1       1.385 -10.682   2.721  0.00  0.00    +0.008 C 
ATOM     38  C   UNL     1      -0.143  -8.791   3.299  0.00  0.00    +0.008 C 
ENDBRANCH  35  36
ENDBRANCH  27  35
ENDBRANCH   1  26
TORSDOF 10
