REMARK  Name = ZINC34989121
REMARK  9 active torsions:
REMARK  status: ('A' for Active; 'I' for Inactive)
REMARK    1  A    between atoms: C_1  and  C_2
REMARK    2  A    between atoms: C_2  and  C_3
REMARK    3  A    between atoms: C_2  and  C_4
REMARK    4  A    between atoms: C_2  and  C_5
REMARK    5  A    between atoms: C_8  and  C_11
REMARK    6  A    between atoms: C_12  and  C_13
REMARK    7  A    between atoms: C_18  and  C_21
REMARK    8  A    between atoms: C_24  and  S_27
REMARK    9  A    between atoms: S_27  and  N_30
REMARK                            x       y       z     vdW  Elec       q    Type
REMARK                         _______ _______ _______ _____ _____    ______ ____
ROOT
ATOM      1  C   UNL     1       4.664  -1.989  -6.154  0.00  0.00    +0.243 C 
ATOM      2  O   UNL     1       4.073  -2.689  -6.955  0.00  0.00    -0.270 OA
ATOM      3  N   UNL     1       5.949  -1.649  -6.375  0.00  0.00    -0.261 N 
ATOM      4  C   UNL     1       6.599  -2.097  -7.517  0.00  0.00    +0.165 A 
ATOM      5  N   UNL     1       7.841  -1.882  -7.910  0.00  0.00    -0.225 NA
ATOM      6  C   UNL     1       8.302  -2.392  -9.042  0.00  0.00    +0.080 A 
ATOM      7  C   UNL     1       7.475  -3.156  -9.819  0.00  0.00    +0.076 A 
ATOM      8  S   UNL     1       5.978  -3.123  -8.842  0.00  0.00    -0.060 S 
ATOM      9  H   UNL     1       6.420  -1.091  -5.736  0.00  0.00    +0.157 HD
ENDROOT
BRANCH   6  10
ATOM     10  C   UNL     1       9.701  -2.137  -9.463  0.00  0.00    +0.001 A 
ATOM     11  C   UNL     1      10.180  -2.671 -10.658  0.00  0.00    +0.012 A 
ATOM     12  C   UNL     1      11.482  -2.430 -11.045  0.00  0.00    +0.029 A 
ATOM     13  C   UNL     1      12.312  -1.661 -10.249  0.00  0.00    +0.106 A 
ATOM     14  C   UNL     1      11.842  -1.129  -9.062  0.00  0.00    +0.029 A 
ATOM     15  C   UNL     1      10.540  -1.359  -8.668  0.00  0.00    +0.012 A 
BRANCH  13  16
ATOM     16  S   UNL     1      13.975  -1.359 -10.749  0.00  0.00    +0.061 S 
ATOM     17  O   UNL     1      14.707  -1.067  -9.567  0.00  0.00    -0.153 OA
ATOM     18  O   UNL     1      14.334  -2.417 -11.626  0.00  0.00    -0.153 OA
BRANCH  16  19
ATOM     19  N   UNL     1      13.969   0.026 -11.656  0.00  0.00    -0.172 NA
ATOM     20  C   UNL     1      13.771  -0.024 -13.114  0.00  0.00    +0.137 C 
ATOM     21  C   UNL     1      12.667   0.972 -13.486  0.00  0.00    +0.177 C 
ATOM     22  O   UNL     1      12.981   2.252 -12.932  0.00  0.00    -0.377 OA
ATOM     23  C   UNL     1      13.038   2.273 -11.503  0.00  0.00    +0.177 C 
ATOM     24  C   UNL     1      14.155   1.344 -11.029  0.00  0.00    +0.137 C 
ENDBRANCH  16  19
ENDBRANCH  13  16
ENDBRANCH   6  10
BRANCH   1  26
ATOM     25  C   UNL     1       2.693  -1.857  -4.728  0.00  0.00    +0.013 C 
ATOM     26  C   UNL     1       3.979  -1.517  -4.950  0.00  0.00    +0.068 C 
BRANCH  25  30
ATOM     27  C   UNL     1       0.707  -0.490  -1.238  0.00  0.00    -0.042 A 
ATOM     28  C   UNL     1       0.032  -1.285  -2.147  0.00  0.00    +0.005 A 
ATOM     29  C   UNL     1       0.670  -1.733  -3.284  0.00  0.00    +0.008 A 
ATOM     30  C   UNL     1       2.004  -1.383  -3.517  0.00  0.00    -0.025 A 
ATOM     31  C   UNL     1       2.679  -0.579  -2.594  0.00  0.00    +0.008 A 
ATOM     32  C   UNL     1       2.026  -0.134  -1.464  0.00  0.00    +0.005 A 
BRANCH  27  34
ATOM     33  C   UNL     1      -0.019   1.526   0.010  0.00  0.00    +0.015 C 
ATOM     34  C   UNL     1       0.002  -0.004   0.002  0.00  0.00    -0.013 C 
ATOM     35  C   UNL     1       0.742  -0.511   1.242  0.00  0.00    +0.015 C 
ATOM     36  C   UNL     1      -1.433  -0.534   0.013  0.00  0.00    +0.015 C 
ENDBRANCH  27  34
ENDBRANCH  25  30
ENDBRANCH   1  26
TORSDOF 6
