REMARK  Name = ZINC44817321
REMARK  5 active torsions:
REMARK  status: ('A' for Active; 'I' for Inactive)
REMARK    1  A    between atoms: C_1  and  C_2
REMARK    2  A    between atoms: C_2  and  C_3
REMARK    3  A    between atoms: N_11  and  C_15
REMARK    4  A    between atoms: C_15  and  C_16
REMARK    5  A    between atoms: C_16  and  N_18
REMARK                            x       y       z     vdW  Elec       q    Type
REMARK                         _______ _______ _______ _____ _____    ______ ____
ROOT
ATOM      1  C   UNL     1       0.742  -0.511   1.242  0.00  0.00    -0.011 C 
ATOM      2  C   UNL     1       2.209  -0.084   1.169  0.00  0.00    +0.006 C 
ATOM      3  C   UNL     1       2.947  -0.582   2.415  0.00  0.00    +0.035 C 
ATOM      4  C   UNL     1       2.845  -2.101   2.493  0.00  0.00    +0.113 C 
ATOM      5  C   UNL     1       1.387  -2.543   2.545  0.00  0.00    +0.035 C 
ATOM      6  C   UNL     1       0.655  -2.037   1.298  0.00  0.00    +0.006 C 
ATOM      7  C   UNL     1       3.596  -2.619   3.698  0.00  0.00    +0.247 C 
ATOM      8  O   UNL     1       3.376  -2.368   4.864  0.00  0.00    -0.273 OA
ATOM      9  N   UNL     1       4.562  -3.420   3.204  0.00  0.00    -0.215 N 
ATOM     10  C   UNL     1       4.521  -3.475   1.867  0.00  0.00    +0.310 C 
ATOM     11  O   UNL     1       5.290  -4.132   1.193  0.00  0.00    -0.252 OA
ATOM     12  N   UNL     1       3.531  -2.722   1.352  0.00  0.00    -0.285 N 
ATOM     13  H   UNL     1       3.313  -2.610   0.414  0.00  0.00    +0.151 HD
ENDROOT
BRANCH   1  15
ATOM     14  C   UNL     1      -0.019   1.526   0.010  0.00  0.00    +0.004 C 
ATOM     15  C   UNL     1       0.002  -0.004   0.002  0.00  0.00    -0.000 C 
ENDBRANCH   1  15
BRANCH   9  16
ATOM     16  C   UNL     1       5.537  -4.140   4.028  0.00  0.00    +0.215 C 
BRANCH  16  17
ATOM     17  C   UNL     1       4.988  -5.497   4.384  0.00  0.00    +0.256 C 
ATOM     18  O   UNL     1       3.888  -5.832   3.988  0.00  0.00    -0.272 OA
BRANCH  17  19
ATOM     19  N   UNL     1       5.707  -6.330   5.133  0.00  0.00    -0.158 NA
ATOM     20  C   UNL     1       5.223  -7.527   5.447  0.00  0.00    +0.146 C 
ATOM     21  N   UNL     1       5.844  -8.466   6.196  0.00  0.00    -0.325 N 
ATOM     22  C   UNL     1       5.191  -9.732   6.458  0.00  0.00    +0.114 C 
ATOM     23  C   UNL     1       3.801  -9.791   5.789  0.00  0.00    +0.095 C 
ATOM     24  S   UNL     1       3.731  -8.139   4.993  0.00  0.00    -0.092 S 
ATOM     25  H   UNL     1       6.727  -8.292   6.558  0.00  0.00    +0.148 HD
ENDBRANCH  17  19
ENDBRANCH  16  17
ENDBRANCH   9  16
TORSDOF 4
