REMARK  Name = ZINC16833511
REMARK  9 active torsions:
REMARK  status: ('A' for Active; 'I' for Inactive)
REMARK    1  A    between atoms: C_1  and  C_2
REMARK    2  A    between atoms: C_3  and  C_27
REMARK    3  A    between atoms: C_5  and  S_8
REMARK    4  A    between atoms: S_8  and  C_9
REMARK    5  A    between atoms: C_9  and  C_11
REMARK    6  A    between atoms: C_9  and  C_12
REMARK    7  A    between atoms: C_24  and  C_25
REMARK    8  A    between atoms: C_24  and  C_26
REMARK    9  A    between atoms: C_27  and  C_28
REMARK                            x       y       z     vdW  Elec       q    Type
REMARK                         _______ _______ _______ _____ _____    ______ ____
ROOT
ATOM      1  C   UNL     1       5.378   2.051  -3.320  0.00  0.00    +0.137 C 
ATOM      2  C   UNL     1       4.342   0.925  -3.344  0.00  0.00    +0.029 C 
ENDROOT
BRANCH   1   3
ATOM      3  C   UNL     1       6.516   1.706  -4.246  0.00  0.00    +0.234 C 
ATOM      4  O   UNL     1       6.701   2.363  -5.249  0.00  0.00    -0.274 OA
ATOM      5  N   UNL     1       7.327   0.669  -3.959  0.00  0.00    -0.255 N 
ATOM      6  C   UNL     1       8.253   0.192  -4.901  0.00  0.00    +0.059 A 
ATOM      7  C   UNL     1       8.008   0.294  -6.258  0.00  0.00    +0.025 A 
ATOM      8  C   UNL     1       8.938  -0.190  -7.162  0.00  0.00    +0.002 A 
ATOM      9  C   UNL     1      10.107  -0.774  -6.710  0.00  0.00    +0.002 A 
ATOM     10  C   UNL     1      10.365  -0.872  -5.347  0.00  0.00    +0.025 A 
ATOM     11  C   UNL     1       9.437  -0.391  -4.438  0.00  0.00    +0.055 A 
ATOM     12  N   UNL     1       9.668  -0.485  -3.061  0.00  0.00    -0.282 N 
ATOM     13  C   UNL     1       8.671  -0.283  -2.180  0.00  0.00    +0.241 C 
ATOM     14  O   UNL     1       8.905  -0.327  -0.990  0.00  0.00    -0.273 OA
ATOM     15  C   UNL     1       7.268  -0.003  -2.653  0.00  0.00    +0.113 C 
ATOM     16  C   UNL     1       6.558   0.903  -1.644  0.00  0.00    +0.042 C 
ATOM     17  C   UNL     1       6.501  -1.320  -2.789  0.00  0.00    +0.042 C 
ATOM     18  H   UNL     1      10.558  -0.699  -2.738  0.00  0.00    +0.155 HD
ENDBRANCH   1   3
BRANCH   1  19
ATOM     19  S   UNL     1       4.604   3.595  -3.863  0.00  0.00    -0.075 S 
BRANCH  19  24
ATOM     20  C   UNL     1       0.767   5.560  -0.743  0.00  0.00    +0.065 C 
ATOM     21  C   UNL     1       1.855   4.671  -1.288  0.00  0.00    +0.037 A 
ATOM     22  C   UNL     1       2.311   3.534  -0.736  0.00  0.00    +0.067 A 
ATOM     23  N   UNL     1       3.283   3.042  -1.522  0.00  0.00    -0.226 NA
ATOM     24  C   UNL     1       3.445   3.832  -2.557  0.00  0.00    +0.167 A 
ATOM     25  N   UNL     1       2.570   4.869  -2.448  0.00  0.00    -0.337 N 
ATOM     26  H   UNL     1       2.467   5.630  -3.088  0.00  0.00    +0.168 HD
BRANCH  22  27
ATOM     27  C   UNL     1       1.820   2.920   0.550  0.00  0.00    +0.092 C 
BRANCH  27  28
ATOM     28  C   UNL     1       0.686   1.973   0.254  0.00  0.00    -0.042 A 
ATOM     29  C   UNL     1       0.948   0.642  -0.012  0.00  0.00    +0.004 A 
ATOM     30  C   UNL     1      -0.092  -0.226  -0.284  0.00  0.00    +0.000 A 
ATOM     31  C   UNL     1      -1.395   0.237  -0.295  0.00  0.00    +0.000 A 
ATOM     32  C   UNL     1      -1.657   1.567  -0.024  0.00  0.00    +0.000 A 
ATOM     33  C   UNL     1      -0.617   2.435   0.248  0.00  0.00    +0.004 A 
ENDBRANCH  27  28
ENDBRANCH  22  27
ENDBRANCH  19  24
ENDBRANCH   1  19
TORSDOF 5
