REMARK  Name = ZINC13194515
REMARK  10 active torsions:
REMARK  status: ('A' for Active; 'I' for Inactive)
REMARK    1  A    between atoms: C_1  and  C_2
REMARK    2  A    between atoms: C_5  and  N_8
REMARK    3  A    between atoms: C_11  and  C_18
REMARK    4  A    between atoms: C_13  and  O_17
REMARK    5  A    between atoms: C_19  and  C_21
REMARK    6  A    between atoms: C_19  and  C_32
REMARK    7  A    between atoms: C_19  and  N_55
REMARK    8  A    between atoms: C_21  and  C_22
REMARK    9  A    between atoms: C_32  and  O_34
REMARK   10  A    between atoms: O_34  and  C_35
REMARK                            x       y       z     vdW  Elec       q    Type
REMARK                         _______ _______ _______ _____ _____    ______ ____
ROOT
ATOM      1  C   UNL     1       0.748   3.125   1.551  0.00  0.00    +0.073 C 
ATOM      2  N   UNL     1      -0.214   3.747   2.194  0.00  0.00    -0.380 N 
ATOM      3  H   UNL     1      -0.803   4.429   1.702  0.00  0.00    +0.160 HD
ENDROOT
BRANCH   1   7
ATOM      4  N   UNL     1       3.167   3.588  -0.901  0.00  0.00    -0.192 N 
ATOM      5  C   UNL     1       2.271   4.157  -0.065  0.00  0.00    +0.244 C 
ATOM      6  O   UNL     1       2.524   5.181   0.533  0.00  0.00    -0.274 OA
ATOM      7  C   UNL     1       0.933   3.458   0.093  0.00  0.00    +0.197 C 
ATOM      8  C   UNL     1       0.743   2.186  -0.710  0.00  0.00    +0.198 C 
ATOM      9  N   UNL     1       1.733   1.786  -1.465  0.00  0.00    -0.131 NA
ATOM     10  C   UNL     1       2.885   2.457  -1.560  0.00  0.00    +0.339 C 
ATOM     11  O   UNL     1       3.742   2.005  -2.296  0.00  0.00    -0.250 OA
BRANCH   4  16
ATOM     12  C   UNL     1       8.230   6.045  -1.635  0.00  0.00    +0.044 C 
ATOM     13  C   UNL     1       6.886   5.393  -1.440  0.00  0.00    -0.050 A 
ATOM     14  C   UNL     1       5.827   5.737  -2.259  0.00  0.00    +0.005 A 
ATOM     15  C   UNL     1       4.593   5.141  -2.083  0.00  0.00    +0.024 A 
ATOM     16  C   UNL     1       4.417   4.195  -1.082  0.00  0.00    +0.045 A 
ATOM     17  C   UNL     1       5.481   3.855  -0.258  0.00  0.00    +0.024 A 
ATOM     18  C   UNL     1       6.714   4.451  -0.442  0.00  0.00    +0.005 A 
ENDBRANCH   4  16
BRANCH   8  19
ATOM     19  O   UNL     1      -0.403   1.489  -0.643  0.00  0.00    -0.496 OA
ATOM     20  H   UNL     1      -0.460   0.687  -1.179  0.00  0.00    +0.293 HD
ENDBRANCH   8  19
ENDBRANCH   1   7
BRANCH   2  21
ATOM     21  C   UNL     1      -0.453   3.461   3.651  0.00  0.00    +0.192 C 
BRANCH  21  22
ATOM     22  C   UNL     1      -0.294   4.748   4.419  0.00  0.00    +0.330 C 
ATOM     23  O   UNL     1       0.018   5.762   3.841  0.00  0.00    -0.249 OA
BRANCH  22  24
ATOM     24  O   UNL     1      -0.499   4.767   5.745  0.00  0.00    -0.466 OA
ATOM     25  C   UNL     1      -0.327   6.042   6.420  0.00  0.00    +0.280 C 
ENDBRANCH  22  24
ENDBRANCH  21  22
BRANCH  21  26
ATOM     26  C   UNL     1      -1.884   2.945   3.811  0.00  0.00    +0.073 C 
BRANCH  26  27
ATOM     27  C   UNL     1      -2.010   1.598   3.147  0.00  0.00    -0.020 A 
ATOM     28  C   UNL     1      -2.444   1.361   1.898  0.00  0.00    +0.087 A 
ATOM     29  N   UNL     1      -2.421   0.017   1.644  0.00  0.00    -0.360 N 
ATOM     30  H   UNL     1      -2.689  -0.396   0.808  0.00  0.00    +0.165 HD
ATOM     31  C   UNL     1      -1.960  -0.661   2.750  0.00  0.00    +0.047 A 
ATOM     32  C   UNL     1      -1.677   0.300   3.738  0.00  0.00    +0.003 A 
ATOM     33  C   UNL     1      -1.195  -0.103   4.984  0.00  0.00    +0.010 A 
ATOM     34  C   UNL     1      -0.989  -1.431   5.234  0.00  0.00    +0.001 A 
ATOM     35  C   UNL     1      -1.260  -2.382   4.261  0.00  0.00    +0.002 A 
ATOM     36  C   UNL     1      -1.743  -2.007   3.026  0.00  0.00    +0.026 A 
ENDBRANCH  26  27
ENDBRANCH  21  26
ENDBRANCH   2  21
TORSDOF 8
