REMARK  Name = ZINC05433677
REMARK  5 active torsions:
REMARK  status: ('A' for Active; 'I' for Inactive)
REMARK    1  A    between atoms: C_3  and  S_8
REMARK    2  A    between atoms: S_8  and  N_11
REMARK    3  A    between atoms: C_15  and  C_18
REMARK    4  A    between atoms: N_20  and  C_21
REMARK    5  A    between atoms: C_29  and  C_31
REMARK                            x       y       z     vdW  Elec       q    Type
REMARK                         _______ _______ _______ _____ _____    ______ ____
ROOT
ATOM      1  N   UNL     1      -1.933   1.402   1.127  0.00  0.00    -0.173 NA
ATOM      2  C   UNL     1      -0.476   1.598   1.017  0.00  0.00    +0.128 C 
ATOM      3  C   UNL     1       0.004   0.948  -0.286  0.00  0.00    +0.125 C 
ATOM      4  N   UNL     1      -0.858   1.402  -1.387  0.00  0.00    -0.289 N 
ATOM      5  C   UNL     1      -2.311   1.205  -1.276  0.00  0.00    +0.177 C 
ATOM      6  C   UNL     1      -2.795   1.855   0.026  0.00  0.00    +0.141 C 
ATOM      7  C   UNL     1      -0.327   1.988  -2.478  0.00  0.00    +0.203 C 
ATOM      8  O   UNL     1      -1.034   2.257  -3.426  0.00  0.00    -0.277 OA
ENDROOT
BRANCH   7   9
ATOM      9  C   UNL     1       1.145   2.308  -2.520  0.00  0.00    +0.027 C 
ATOM     10  C   UNL     1       1.410   3.525  -1.600  0.00  0.00    +0.060 C 
ATOM     11  S   UNL     1       2.693   4.407  -2.595  0.00  0.00    -0.181 S 
ATOM     12  C   UNL     1       2.105   3.834  -4.250  0.00  0.00    -0.011 C 
ATOM     13  N   UNL     1       1.530   2.472  -3.943  0.00  0.00    +0.393 N 
ATOM     14  H   UNL     1       0.696   2.330  -4.525  0.00  0.00    -0.084 HD
ATOM     15  H   UNL     1       2.234   1.761  -4.175  0.00  0.00    -0.084 HD
ENDBRANCH   7   9
BRANCH   5  16
ATOM     16  C   UNL     1      -3.000   1.851  -2.450  0.00  0.00    +0.235 C 
ATOM     17  O   UNL     1      -2.929   3.051  -2.610  0.00  0.00    -0.274 OA
ATOM     18  N   UNL     1      -3.694   1.094  -3.323  0.00  0.00    -0.302 N 
ATOM     19  H   UNL     1      -3.750   0.134  -3.196  0.00  0.00    +0.150 HD
BRANCH  18  20
ATOM     20  C   UNL     1      -4.364   1.722  -4.465  0.00  0.00    +0.159 C 
ATOM     21  C   UNL     1      -4.516   0.697  -5.592  0.00  0.00    +0.033 C 
ATOM     22  C   UNL     1      -5.452   1.282  -6.656  0.00  0.00    +0.021 C 
ATOM     23  C   UNL     1      -6.858   1.393  -6.064  0.00  0.00    +0.104 C 
ATOM     24  N   UNL     1      -6.817   2.079  -4.779  0.00  0.00    -0.314 N 
ATOM     25  C   UNL     1      -5.716   2.218  -4.039  0.00  0.00    +0.233 C 
ATOM     26  O   UNL     1      -5.812   2.774  -2.966  0.00  0.00    -0.274 OA
ATOM     27  H   UNL     1      -7.643   2.458  -4.439  0.00  0.00    +0.149 HD
ENDBRANCH  18  20
ENDBRANCH   5  16
BRANCH   1  28
ATOM     28  S   UNL     1      -2.586   0.682   2.468  0.00  0.00    +0.061 S 
ATOM     29  O   UNL     1      -1.655   0.873   3.524  0.00  0.00    -0.153 OA
ATOM     30  O   UNL     1      -3.933   1.126   2.551  0.00  0.00    -0.153 OA
BRANCH  28  33
ATOM     31  C   UNL     1      -1.616  -3.210   2.253  0.00  0.00    +0.040 A 
ATOM     32  C   UNL     1      -1.571  -1.851   2.498  0.00  0.00    +0.031 A 
ATOM     33  C   UNL     1      -2.644  -1.050   2.153  0.00  0.00    +0.106 A 
ATOM     34  C   UNL     1      -3.764  -1.609   1.567  0.00  0.00    +0.031 A 
ATOM     35  C   UNL     1      -3.809  -2.967   1.316  0.00  0.00    +0.040 A 
ATOM     36  C   UNL     1      -2.735  -3.770   1.661  0.00  0.00    +0.124 A 
ATOM     37  F   UNL     1      -2.780  -5.099   1.420  0.00  0.00    -0.205 F 
ENDBRANCH  28  33
ENDBRANCH   1  28
TORSDOF 5
