REMARK  Name = ZINC08327670
REMARK  10 active torsions:
REMARK  status: ('A' for Active; 'I' for Inactive)
REMARK    1  A    between atoms: C_1  and  C_2
REMARK    2  A    between atoms: C_2  and  O_3
REMARK    3  A    between atoms: O_3  and  C_4
REMARK    4  A    between atoms: C_4  and  C_6
REMARK    5  A    between atoms: C_7  and  C_20
REMARK    6  A    between atoms: C_12  and  C_14
REMARK    7  A    between atoms: C_20  and  N_52
REMARK    8  A    between atoms: C_21  and  C_23
REMARK    9  A    between atoms: C_21  and  C_24
REMARK   10  A    between atoms: C_21  and  N_52
REMARK                            x       y       z     vdW  Elec       q    Type
REMARK                         _______ _______ _______ _____ _____    ______ ____
ROOT
ATOM      1  C   UNL     1      -0.463  -0.423   1.554  0.00  0.00    +0.076 C 
ATOM      2  C   UNL     1      -1.415  -1.381   1.580  0.00  0.00    +0.007 C 
ATOM      3  N   UNL     1      -2.009  -1.815   0.429  0.00  0.00    -0.274 N 
ATOM      4  C   UNL     1      -1.707  -1.342  -0.787  0.00  0.00    +0.304 C 
ATOM      5  O   UNL     1      -2.291  -1.791  -1.754  0.00  0.00    -0.252 OA
ATOM      6  N   UNL     1      -0.777  -0.384  -0.973  0.00  0.00    -0.288 N 
ATOM      7  C   UNL     1      -0.078   0.152   0.206  0.00  0.00    +0.143 C 
ATOM      8  H   UNL     1      -2.688  -2.505   0.496  0.00  0.00    +0.156 HD
ATOM      9  H   UNL     1      -0.575  -0.056  -1.863  0.00  0.00    +0.151 HD
ENDROOT
BRANCH   7  10
ATOM     10  C   UNL     1      -0.316   1.640   0.251  0.00  0.00    -0.023 A 
ATOM     11  C   UNL     1      -1.592   2.141   0.077  0.00  0.00    +0.006 A 
ATOM     12  C   UNL     1      -1.811   3.505   0.122  0.00  0.00    +0.000 A 
ATOM     13  C   UNL     1      -0.752   4.369   0.332  0.00  0.00    +0.000 A 
ATOM     14  C   UNL     1       0.525   3.868   0.502  0.00  0.00    +0.000 A 
ATOM     15  C   UNL     1       0.743   2.503   0.461  0.00  0.00    +0.006 A 
ENDBRANCH   7  10
BRANCH   1  16
ATOM     16  C   UNL     1       0.153   0.028   2.745  0.00  0.00    +0.339 C 
ATOM     17  O   UNL     1      -0.254  -0.360   3.825  0.00  0.00    -0.245 OA
BRANCH  16  18
ATOM     18  O   UNL     1       1.192   0.887   2.684  0.00  0.00    -0.462 OA
BRANCH  18  20
ATOM     19  C   UNL     1       2.922   2.265   3.657  0.00  0.00    +0.048 C 
ATOM     20  C   UNL     1       1.766   1.300   3.925  0.00  0.00    +0.229 C 
ENDBRANCH  18  20
ENDBRANCH  16  18
ENDBRANCH   1  16
BRANCH   2  21
ATOM     21  C   UNL     1      -1.828  -1.980   2.899  0.00  0.00    -0.029 C 
BRANCH  21  22
ATOM     22  N   UNL     1      -2.878  -1.140   3.504  0.00  0.00    +0.387 N 
ATOM     23  H   UNL     1      -3.686  -1.100   2.872  0.00  0.00    -0.085 HD
ATOM     24  H   UNL     1      -2.511  -0.193   3.651  0.00  0.00    -0.085 HD
BRANCH  22  25
ATOM     25  C   UNL     1      -3.303  -1.704   4.799  0.00  0.00    -0.044 C 
ATOM     26  C   UNL     1      -4.377  -2.769   4.566  0.00  0.00    -0.009 C 
BRANCH  25  27
ATOM     27  C   UNL     1      -3.867  -0.602   5.658  0.00  0.00    -0.062 A 
ATOM     28  C   UNL     1      -4.659   0.379   5.091  0.00  0.00    +0.003 A 
ATOM     29  C   UNL     1      -5.182   1.387   5.879  0.00  0.00    +0.020 A 
ATOM     30  C   UNL     1      -4.902   1.421   7.234  0.00  0.00    +0.041 A 
ATOM     31  C   UNL     1      -4.104   0.442   7.800  0.00  0.00    +0.020 A 
ATOM     32  C   UNL     1      -3.587  -0.568   7.011  0.00  0.00    +0.003 A 
ATOM     33 CL   UNL     1      -5.552   2.691   8.223  0.00  0.00    -0.084 Cl
ENDBRANCH  25  27
ENDBRANCH  22  25
ENDBRANCH  21  22
ENDBRANCH   2  21
TORSDOF 8
