REMARK  Name = ZINC10157843
REMARK  5 active torsions:
REMARK  status: ('A' for Active; 'I' for Inactive)
REMARK    1  A    between atoms: C_2  and  C_3
REMARK    2  A    between atoms: C_3  and  N_4
REMARK    3  A    between atoms: C_23  and  C_25
REMARK    4  A    between atoms: C_25  and  S_26
REMARK    5  A    between atoms: S_26  and  C_27
REMARK                            x       y       z     vdW  Elec       q    Type
REMARK                         _______ _______ _______ _____ _____    ______ ____
ROOT
ATOM      1  N   UNL     1      -3.169   0.591   3.045  0.00  0.00    -0.263 N 
ATOM      2  C   UNL     1      -2.584  -0.371   2.240  0.00  0.00    +0.045 A 
ATOM      3  C   UNL     1      -2.669  -1.762   2.316  0.00  0.00    +0.024 A 
ATOM      4  C   UNL     1      -1.970  -2.493   1.368  0.00  0.00    +0.002 A 
ATOM      5  C   UNL     1      -1.217  -1.883   0.385  0.00  0.00    +0.001 A 
ATOM      6  C   UNL     1      -1.125  -0.498   0.298  0.00  0.00    +0.010 A 
ATOM      7  C   UNL     1      -1.819   0.235   1.236  0.00  0.00    +0.034 A 
ATOM      8  C   UNL     1      -1.950   1.710   1.444  0.00  0.00    +0.249 C 
ATOM      9  C   UNL     1      -2.850   1.842   2.652  0.00  0.00    +0.276 C 
ATOM     10  O   UNL     1      -3.215   2.877   3.170  0.00  0.00    -0.270 OA
ATOM     11  N   UNL     1      -2.568   2.354   0.282  0.00  0.00    -0.230 N 
ATOM     12  C   UNL     1      -1.745   2.654  -0.815  0.00  0.00    +0.045 A 
ATOM     13  C   UNL     1      -2.307   3.030  -2.026  0.00  0.00    +0.024 A 
ATOM     14  C   UNL     1      -1.489   3.332  -3.098  0.00  0.00    +0.002 A 
ATOM     15  C   UNL     1      -0.115   3.257  -2.961  0.00  0.00    +0.000 A 
ATOM     16  C   UNL     1       0.445   2.881  -1.755  0.00  0.00    +0.008 A 
ATOM     17  C   UNL     1      -0.366   2.575  -0.677  0.00  0.00    -0.000 A 
ATOM     18  C   UNL     1       0.255   2.161   0.631  0.00  0.00    +0.200 C 
ATOM     19  O   UNL     1      -0.686   2.314   1.695  0.00  0.00    -0.339 OA
ATOM     20  C   UNL     1      -3.883   2.649   0.267  0.00  0.00    +0.233 C 
ATOM     21  O   UNL     1      -4.605   2.247   1.155  0.00  0.00    -0.274 OA
ENDROOT
BRANCH   1  22
ATOM     22  C   UNL     1      -4.034   0.287   4.188  0.00  0.00    +0.140 C 
BRANCH  22  24
ATOM     23  C   UNL     1      -6.173  -0.870   3.972  0.00  0.00    +0.005 C 
ATOM     24  C   UNL     1      -5.466   0.205   3.727  0.00  0.00    -0.015 C 
ENDBRANCH  22  24
ENDBRANCH   1  22
BRANCH  20  25
ATOM     25  C   UNL     1      -4.457   3.479  -0.853  0.00  0.00    +0.172 C 
BRANCH  25  26
ATOM     26  S   UNL     1      -5.957   4.320  -0.275  0.00  0.00    -0.088 S 
BRANCH  26  27
ATOM     27  C   UNL     1      -6.499   5.236  -1.679  0.00  0.00    +0.160 A 
ATOM     28  N   UNL     1      -5.966   5.315  -2.883  0.00  0.00    -0.133 NA
ATOM     29  N   UNL     1      -6.560   6.098  -3.845  0.00  0.00    -0.125 NA
ATOM     30  C   UNL     1      -7.660   6.767  -3.559  0.00  0.00    +0.180 A 
ATOM     31  S   UNL     1      -7.923   6.299  -1.856  0.00  0.00    -0.025 S 
ATOM     32  N   UNL     1      -8.415   7.607  -4.369  0.00  0.00    -0.336 N 
ATOM     33  H   UNL     1      -8.147   7.766  -5.288  0.00  0.00    +0.144 HD
ATOM     34  H   UNL     1      -9.211   8.035  -4.016  0.00  0.00    +0.144 HD
ENDBRANCH  26  27
ENDBRANCH  25  26
ENDBRANCH  20  25
TORSDOF 5
