REMARK  Name = ZINC36555347
REMARK  14 active torsions:
REMARK  status: ('A' for Active; 'I' for Inactive)
REMARK    1  A    between atoms: C_1  and  C_2
REMARK    2  A    between atoms: C_2  and  C_3
REMARK    3  A    between atoms: C_3  and  C_4
REMARK    4  A    between atoms: C_4  and  N_5
REMARK    5  A    between atoms: C_6  and  C_8
REMARK    6  A    between atoms: C_8  and  C_10
REMARK    7  A    between atoms: C_8  and  N_17
REMARK    8  A    between atoms: C_13  and  O_16
REMARK    9  A    between atoms: N_17  and  C_18
REMARK   10  A    between atoms: C_18  and  C_19
REMARK   11  A    between atoms: C_22  and  C_24
REMARK   12  A    between atoms: C_25  and  C_27
REMARK   13  A    between atoms: C_27  and  C_35
REMARK   14  A    between atoms: C_28  and  C_29
REMARK                            x       y       z     vdW  Elec       q    Type
REMARK                         _______ _______ _______ _____ _____    ______ ____
ROOT
ATOM      1  N   UNL     1       2.723  -6.207  -4.153  0.00  0.00    -0.275 N 
ATOM      2  C   UNL     1       3.767  -5.916  -3.351  0.00  0.00    +0.248 C 
ATOM      3  O   UNL     1       3.854  -6.434  -2.255  0.00  0.00    -0.270 OA
ENDROOT
BRANCH   2   4
ATOM      4  C   UNL     1       4.800  -4.970  -3.803  0.00  0.00    +0.045 C 
ATOM      5  C   UNL     1       6.101  -5.362  -3.861  0.00  0.00    +0.021 C 
BRANCH   5   6
ATOM      6  C   UNL     1       7.151  -4.379  -4.161  0.00  0.00    -0.024 A 
ATOM      7  C   UNL     1       7.024  -3.057  -3.719  0.00  0.00    +0.008 A 
ATOM      8  C   UNL     1       8.015  -2.141  -4.005  0.00  0.00    +0.001 A 
ATOM      9  C   UNL     1       9.132  -2.526  -4.726  0.00  0.00    +0.000 A 
ATOM     10  C   UNL     1       9.265  -3.831  -5.166  0.00  0.00    +0.001 A 
ATOM     11  C   UNL     1       8.287  -4.761  -4.885  0.00  0.00    +0.008 A 
ENDBRANCH   5   6
BRANCH   4  12
ATOM     12  C   UNL     1       4.423  -3.592  -4.194  0.00  0.00    -0.013 A 
ATOM     13  C   UNL     1       3.778  -2.757  -3.281  0.00  0.00    +0.008 A 
ATOM     14  C   UNL     1       3.429  -1.475  -3.651  0.00  0.00    +0.001 A 
ATOM     15  C   UNL     1       3.718  -1.016  -4.924  0.00  0.00    +0.000 A 
ATOM     16  C   UNL     1       4.357  -1.840  -5.834  0.00  0.00    +0.001 A 
ATOM     17  C   UNL     1       4.717  -3.123  -5.474  0.00  0.00    +0.008 A 
ENDBRANCH   4  12
ENDBRANCH   2   4
BRANCH   1  18
ATOM     18  C   UNL     1       2.554  -5.495  -5.422  0.00  0.00    +0.193 C 
BRANCH  18  19
ATOM     19  C   UNL     1       2.767  -6.451  -6.567  0.00  0.00    -0.018 A 
ATOM     20  C   UNL     1       2.159  -7.693  -6.552  0.00  0.00    +0.009 A 
ATOM     21  C   UNL     1       2.353  -8.572  -7.600  0.00  0.00    +0.046 A 
ATOM     22  C   UNL     1       3.159  -8.207  -8.669  0.00  0.00    +0.117 A 
ATOM     23  C   UNL     1       3.768  -6.961  -8.682  0.00  0.00    +0.046 A 
ATOM     24  C   UNL     1       3.567  -6.084  -7.634  0.00  0.00    +0.009 A 
BRANCH  22  25
ATOM     25  O   UNL     1       3.353  -9.070  -9.701  0.00  0.00    -0.507 OA
ATOM     26  H   UNL     1       2.706  -8.981 -10.414  0.00  0.00    +0.292 HD
ENDBRANCH  22  25
ENDBRANCH  18  19
BRANCH  18  28
ATOM     27  N   UNL     1       0.775  -4.225  -6.582  0.00  0.00    -0.313 N 
ATOM     28  C   UNL     1       1.160  -4.926  -5.496  0.00  0.00    +0.238 C 
ATOM     29  O   UNL     1       0.385  -5.098  -4.580  0.00  0.00    -0.273 OA
ATOM     30  H   UNL     1       1.395  -4.088  -7.315  0.00  0.00    +0.149 HD
BRANCH  27  31
ATOM     31  C   UNL     1      -0.579  -3.672  -6.654  0.00  0.00    +0.104 C 
BRANCH  31  32
ATOM     32  C   UNL     1      -0.756  -2.928  -7.979  0.00  0.00    +0.018 C 
BRANCH  32  34
ATOM     33  C   UNL     1      -2.348  -1.607  -9.380  0.00  0.00    +0.004 C 
ATOM     34  C   UNL     1      -2.171  -2.350  -8.055  0.00  0.00    -0.002 C 
ENDBRANCH  32  34
ENDBRANCH  31  32
ENDBRANCH  27  31
ENDBRANCH  18  28
ENDBRANCH   1  18
BRANCH   1  35
ATOM     35  C   UNL     1       1.759  -7.236  -3.756  0.00  0.00    +0.183 C 
BRANCH  35  36
ATOM     36  C   UNL     1       2.408  -8.593  -3.841  0.00  0.00    +0.122 A 
ATOM     37  C   UNL     1       2.986  -9.254  -2.822  0.00  0.00    +0.046 A 
ATOM     38  C   UNL     1       3.461 -10.479  -3.346  0.00  0.00    +0.045 A 
ATOM     39  C   UNL     1       3.146 -10.492  -4.653  0.00  0.00    +0.102 A 
ATOM     40  O   UNL     1       2.503  -9.350  -4.947  0.00  0.00    -0.463 OA
ATOM     41  C   UNL     1       3.456 -11.603  -5.623  0.00  0.00    +0.086 C 
ENDBRANCH  35  36
ENDBRANCH   1  35
TORSDOF 12
