REMARK  Name = ZINC46718704
REMARK  6 active torsions:
REMARK  status: ('A' for Active; 'I' for Inactive)
REMARK    1  A    between atoms: C_4  and  C_7
REMARK    2  A    between atoms: C_7  and  N_8
REMARK    3  A    between atoms: C_9  and  C_11
REMARK    4  A    between atoms: C_11  and  N_12
REMARK    5  A    between atoms: C_13  and  C_15
REMARK    6  A    between atoms: C_15  and  C_20
REMARK                            x       y       z     vdW  Elec       q    Type
REMARK                         _______ _______ _______ _____ _____    ______ ____
ROOT
ATOM      1  N   UNL     1       7.506  -2.264   2.692  0.00  0.00    -0.306 N 
ATOM      2  C   UNL     1       7.745  -2.786   3.912  0.00  0.00    +0.224 C 
ATOM      3  O   UNL     1       7.033  -2.492   4.848  0.00  0.00    -0.275 OA
ATOM      4  H   UNL     1       8.116  -2.442   1.960  0.00  0.00    +0.149 HD
ENDROOT
BRANCH   2   5
ATOM      5  C   UNL     1       8.899  -3.736   4.111  0.00  0.00    +0.072 C 
ATOM      6  C   UNL     1      10.217  -3.065   3.673  0.00  0.00    +0.021 C 
ATOM      7  C   UNL     1      10.809  -2.497   4.987  0.00  0.00    +0.001 C 
ATOM      8  C   UNL     1      10.458  -3.594   6.022  0.00  0.00    +0.001 C 
ATOM      9  C   UNL     1       9.052  -4.072   5.605  0.00  0.00    +0.021 C 
BRANCH   5  10
ATOM     10  C   UNL     1       8.672  -4.997   3.318  0.00  0.00    -0.032 A 
ATOM     11  C   UNL     1       9.658  -5.965   3.263  0.00  0.00    +0.006 A 
ATOM     12  C   UNL     1       9.450  -7.122   2.536  0.00  0.00    +0.015 A 
ATOM     13  C   UNL     1       8.255  -7.312   1.865  0.00  0.00    +0.018 A 
ATOM     14  C   UNL     1       7.269  -6.343   1.921  0.00  0.00    +0.015 A 
ATOM     15  C   UNL     1       7.476  -5.189   2.652  0.00  0.00    +0.006 A 
ATOM     16 BR   UNL     1       7.971  -8.895   0.870  0.00  0.00    -0.050 Br
ENDBRANCH   5  10
ENDBRANCH   2   5
BRANCH   1  17
ATOM     17  C   UNL     1       6.322  -1.428   2.473  0.00  0.00    +0.200 C 
BRANCH  17  19
ATOM     18  N   UNL     1       5.282  -0.189   0.603  0.00  0.00    -0.310 N 
ATOM     19  C   UNL     1       6.287  -0.974   1.037  0.00  0.00    +0.230 C 
ATOM     20  O   UNL     1       7.164  -1.315   0.271  0.00  0.00    -0.274 OA
ATOM     21  H   UNL     1       4.580   0.084   1.215  0.00  0.00    +0.149 HD
BRANCH  18  22
ATOM     22  C   UNL     1       5.247   0.253  -0.794  0.00  0.00    +0.139 C 
BRANCH  22  26
ATOM     23  C   UNL     1       1.799   2.690  -1.435  0.00  0.00    +0.000 A 
ATOM     24  C   UNL     1       2.990   3.268  -1.038  0.00  0.00    +0.000 A 
ATOM     25  C   UNL     1       4.106   2.480  -0.830  0.00  0.00    +0.005 A 
ATOM     26  C   UNL     1       4.031   1.112  -1.019  0.00  0.00    -0.030 A 
ATOM     27  C   UNL     1       2.839   0.534  -1.415  0.00  0.00    +0.005 A 
ATOM     28  C   UNL     1       1.724   1.323  -1.624  0.00  0.00    +0.000 A 
ENDBRANCH  22  26
ENDBRANCH  18  22
ENDBRANCH  17  19
ENDBRANCH   1  17
TORSDOF 6
