REMARK  Name = ZINC36558435
REMARK  15 active torsions:
REMARK  status: ('A' for Active; 'I' for Inactive)
REMARK    1  A    between atoms: C_1  and  C_2
REMARK    2  A    between atoms: C_2  and  C_3
REMARK    3  A    between atoms: C_3  and  C_5
REMARK    4  A    between atoms: C_3  and  C_11
REMARK    5  A    between atoms: N_13  and  C_14
REMARK    6  A    between atoms: N_13  and  C_21
REMARK    7  A    between atoms: C_14  and  C_15
REMARK    8  A    between atoms: C_18  and  C_20
REMARK    9  A    between atoms: C_21  and  C_23
REMARK   10  A    between atoms: C_21  and  C_33
REMARK   11  A    between atoms: C_26  and  C_29
REMARK   12  A    between atoms: N_35  and  C_36
REMARK   13  A    between atoms: C_36  and  C_37
REMARK   14  A    between atoms: C_36  and  C_38
REMARK   15  A    between atoms: C_36  and  C_39
REMARK                            x       y       z     vdW  Elec       q    Type
REMARK                         _______ _______ _______ _____ _____    ______ ____
ROOT
ATOM      1  C   UNL     1      -0.157  -0.627  -1.379  0.00  0.00    +0.224 C 
ATOM      2  O   UNL     1      -0.002  -1.793  -1.082  0.00  0.00    -0.275 OA
ATOM      3  N   UNL     1       0.862   0.244  -1.241  0.00  0.00    -0.278 N 
ENDROOT
BRANCH   1   4
ATOM      4  C   UNL     1      -1.488  -0.153  -1.901  0.00  0.00    +0.105 C 
BRANCH   4   5
ATOM      5  C   UNL     1      -1.542  -0.350  -3.394  0.00  0.00    -0.036 A 
ATOM      6  C   UNL     1      -1.411  -1.618  -3.929  0.00  0.00    +0.004 A 
ATOM      7  C   UNL     1      -1.460  -1.799  -5.298  0.00  0.00    +0.000 A 
ATOM      8  C   UNL     1      -1.640  -0.712  -6.133  0.00  0.00    +0.000 A 
ATOM      9  C   UNL     1      -1.772   0.556  -5.598  0.00  0.00    +0.000 A 
ATOM     10  C   UNL     1      -1.727   0.736  -4.228  0.00  0.00    +0.004 A 
ENDBRANCH   4   5
BRANCH   4  12
ATOM     11  C   UNL     1      -2.659  -0.630   0.254  0.00  0.00    +0.005 C 
ATOM     12  C   UNL     1      -2.611  -0.956  -1.240  0.00  0.00    +0.014 C 
ENDBRANCH   4  12
ENDBRANCH   1   4
BRANCH   3  13
ATOM     13  C   UNL     1       0.706   1.631  -1.688  0.00  0.00    +0.183 C 
BRANCH  13  14
ATOM     14  C   UNL     1      -0.089   2.401  -0.666  0.00  0.00    +0.122 A 
ATOM     15  C   UNL     1      -0.062   3.735  -0.491  0.00  0.00    +0.046 A 
ATOM     16  C   UNL     1      -0.954   4.027   0.567  0.00  0.00    +0.045 A 
ATOM     17  C   UNL     1      -1.472   2.855   0.974  0.00  0.00    +0.102 A 
ATOM     18  O   UNL     1      -0.950   1.874   0.220  0.00  0.00    -0.463 OA
ATOM     19  C   UNL     1      -2.474   2.673   2.085  0.00  0.00    +0.086 C 
ENDBRANCH  13  14
ENDBRANCH   3  13
BRANCH   3  20
ATOM     20  C   UNL     1       2.126  -0.195  -0.645  0.00  0.00    +0.193 C 
BRANCH  20  21
ATOM     21  C   UNL     1       3.104  -0.542  -1.738  0.00  0.00    -0.018 A 
ATOM     22  C   UNL     1       3.285   0.321  -2.803  0.00  0.00    +0.006 A 
ATOM     23  C   UNL     1       4.181   0.002  -3.805  0.00  0.00    +0.013 A 
ATOM     24  C   UNL     1       4.898  -1.179  -3.743  0.00  0.00    +0.055 A 
ATOM     25  C   UNL     1       4.717  -2.041  -2.677  0.00  0.00    +0.013 A 
ATOM     26  C   UNL     1       3.824  -1.720  -1.673  0.00  0.00    +0.006 A 
BRANCH  24  27
ATOM     27  C   UNL     1       5.875  -1.526  -4.836  0.00  0.00    +0.417 C 
ATOM     28  F   UNL     1       7.137  -1.016  -4.513  0.00  0.00    -0.166 F 
ATOM     29  F   UNL     1       5.953  -2.917  -4.967  0.00  0.00    -0.166 F 
ATOM     30  F   UNL     1       5.441  -0.968  -6.044  0.00  0.00    -0.166 F 
ENDBRANCH  24  27
ENDBRANCH  20  21
BRANCH  20  31
ATOM     31  C   UNL     1       2.693   0.914   0.203  0.00  0.00    +0.238 C 
ATOM     32  O   UNL     1       1.995   1.855   0.518  0.00  0.00    -0.273 OA
ATOM     33  N   UNL     1       3.977   0.861   0.611  0.00  0.00    -0.309 N 
ATOM     34  H   UNL     1       4.551   0.138   0.314  0.00  0.00    +0.149 HD
BRANCH  33  35
ATOM     35  C   UNL     1       4.505   1.896   1.504  0.00  0.00    +0.026 C 
ATOM     36  C   UNL     1       3.604   2.017   2.734  0.00  0.00    +0.031 C 
ATOM     37  C   UNL     1       5.920   1.517   1.944  0.00  0.00    +0.031 C 
ATOM     38  C   UNL     1       4.542   3.236   0.766  0.00  0.00    +0.031 C 
ENDBRANCH  33  35
ENDBRANCH  20  31
ENDBRANCH   3  20
TORSDOF 10
