REMARK  Name = ZINC40517412
REMARK  4 active torsions:
REMARK  status: ('A' for Active; 'I' for Inactive)
REMARK    1  A    between atoms: C_1  and  C_2
REMARK    2  A    between atoms: C_3  and  C_17
REMARK    3  A    between atoms: C_5  and  C_7
REMARK    4  A    between atoms: C_7  and  N_8
REMARK                            x       y       z     vdW  Elec       q    Type
REMARK                         _______ _______ _______ _____ _____    ______ ____
ROOT
ATOM      1  N   UNL     1      -1.322  -3.664   1.881  0.00  0.00    -0.259 N 
ATOM      2  C   UNL     1      -1.845  -4.892   1.681  0.00  0.00    +0.126 A 
ATOM      3  C   UNL     1      -3.137  -4.860   2.083  0.00  0.00    +0.086 A 
ATOM      4  C   UNL     1      -3.412  -3.569   2.546  0.00  0.00    +0.249 A 
ATOM      5  N   UNL     1      -2.324  -2.852   2.430  0.00  0.00    -0.145 NA
ATOM      6  N   UNL     1      -4.710  -3.096   3.079  0.00  0.00    +0.078 N 
ATOM      7  O   UNL     1      -5.650  -3.853   3.142  0.00  0.00    -0.125 OA
ATOM      8  O   UNL     1      -4.830  -1.952   3.450  0.00  0.00    -0.125 OA
ATOM      9 BR   UNL     1      -4.355  -6.306   2.029  0.00  0.00    -0.045 Br
ENDROOT
BRANCH   1  10
ATOM     10  C   UNL     1       0.053  -3.253   1.584  0.00  0.00    +0.239 C 
BRANCH  10  15
ATOM     11  C   UNL     1      -0.018   1.503   0.010  0.00  0.00    +0.069 C 
ATOM     12  C   UNL     1       0.002  -0.004   0.002  0.00  0.00    +0.079 A 
ATOM     13  C   UNL     1       0.008  -0.791  -1.087  0.00  0.00    +0.125 A 
ATOM     14  O   UNL     1       0.027  -2.067  -0.654  0.00  0.00    -0.443 OA
ATOM     15  C   UNL     1       0.033  -2.044   0.685  0.00  0.00    +0.217 A 
ATOM     16  N   UNL     1       0.024  -0.803   1.083  0.00  0.00    -0.217 NA
ATOM     17  C   UNL     1      -0.005  -0.333  -2.522  0.00  0.00    +0.088 C 
ENDBRANCH  10  15
ENDBRANCH   1  10
TORSDOF 2
