REMARK  Name = ZINC06220247
REMARK  6 active torsions:
REMARK  status: ('A' for Active; 'I' for Inactive)
REMARK    1  A    between atoms: C_3  and  C_11
REMARK    2  A    between atoms: C_5  and  C_7
REMARK    3  A    between atoms: C_12  and  C_13
REMARK    4  A    between atoms: N_15  and  N_16
REMARK    5  A    between atoms: C_17  and  C_19
REMARK    6  A    between atoms: C_19  and  C_20
REMARK                            x       y       z     vdW  Elec       q    Type
REMARK                         _______ _______ _______ _____ _____    ______ ____
ROOT
ATOM      1  C   UNL     1      -1.266   7.440   0.055  0.00  0.00    +0.253 C 
ATOM      2  O   UNL     1      -0.221   8.062   0.049  0.00  0.00    -0.269 OA
ATOM      3  N   UNL     1      -2.442   8.098   0.070  0.00  0.00    -0.231 N 
ATOM      4  H   UNL     1      -3.276   7.601   0.075  0.00  0.00    +0.173 HD
ENDROOT
BRANCH   3   5
ATOM      5  N   UNL     1      -2.462   9.498   0.078  0.00  0.00    -0.234 N 
ATOM      6  C   UNL     1      -3.638  10.156   0.093  0.00  0.00    +0.230 C 
ATOM      7  O   UNL     1      -4.680   9.536   0.099  0.00  0.00    -0.274 OA
ATOM      8  H   UNL     1      -1.628   9.995   0.073  0.00  0.00    +0.173 HD
BRANCH   6   9
ATOM      9  C   UNL     1      -3.658  11.663   0.102  0.00  0.00    +0.104 C 
BRANCH   9  10
ATOM     10  C   UNL     1      -5.107  12.153   0.118  0.00  0.00    -0.020 C 
ATOM     11  C   UNL     1      -5.833  11.641  -1.127  0.00  0.00    +0.011 C 
ATOM     12  C   UNL     1      -7.282  12.131  -1.111  0.00  0.00    -0.010 C 
ATOM     13  C   UNL     1      -7.303  13.661  -1.102  0.00  0.00    +0.007 C 
ATOM     14  C   UNL     1      -6.577  14.174   0.143  0.00  0.00    -0.010 C 
ATOM     15  C   UNL     1      -5.128  13.683   0.127  0.00  0.00    +0.011 C 
ATOM     16  C   UNL     1      -7.280  13.647   1.396  0.00  0.00    +0.007 C 
ATOM     17  C   UNL     1      -7.259  12.117   1.387  0.00  0.00    -0.010 C 
ATOM     18  C   UNL     1      -7.985  11.604   0.142  0.00  0.00    +0.007 C 
ATOM     19  C   UNL     1      -5.810  11.627   1.371  0.00  0.00    +0.011 C 
ENDBRANCH   9  10
ENDBRANCH   6   9
ENDBRANCH   3   5
BRANCH   1  21
ATOM     20  C   UNL     1      -0.070   5.317   0.032  0.00  0.00    +0.013 C 
ATOM     21  C   UNL     1      -1.246   5.976   0.046  0.00  0.00    +0.069 C 
BRANCH  20  24
ATOM     22  C   UNL     1      -1.222   1.748   0.017  0.00  0.00    +0.001 A 
ATOM     23  C   UNL     1      -1.249   3.127   0.031  0.00  0.00    +0.008 A 
ATOM     24  C   UNL     1      -0.050   3.846   0.023  0.00  0.00    -0.024 A 
ATOM     25  C   UNL     1       1.168   3.159   0.008  0.00  0.00    +0.020 A 
ATOM     26  C   UNL     1       1.179   1.781   0.000  0.00  0.00    +0.055 A 
ATOM     27  C   UNL     1      -0.013   1.076   0.008  0.00  0.00    +0.012 A 
BRANCH  26  28
ATOM     28  C   UNL     1       2.491   1.039  -0.016  0.00  0.00    +0.417 C 
ATOM     29  F   UNL     1       2.247  -0.339  -0.020  0.00  0.00    -0.166 F 
ATOM     30  F   UNL     1       3.210   1.389  -1.163  0.00  0.00    -0.166 F 
ATOM     31  F   UNL     1       3.232   1.378   1.121  0.00  0.00    -0.166 F 
ENDBRANCH  26  28
ENDBRANCH  20  24
ENDBRANCH   1  21
TORSDOF 6
