REMARK  Name = ZINC32911759
REMARK  10 active torsions:
REMARK  status: ('A' for Active; 'I' for Inactive)
REMARK    1  A    between atoms: C_1  and  C_2
REMARK    2  A    between atoms: C_2  and  C_3
REMARK    3  A    between atoms: C_2  and  C_4
REMARK    4  A    between atoms: C_2  and  C_5
REMARK    5  A    between atoms: C_8  and  C_11
REMARK    6  A    between atoms: N_13  and  C_18
REMARK    7  A    between atoms: N_16  and  C_17
REMARK    8  A    between atoms: C_18  and  N_19
REMARK    9  A    between atoms: C_23  and  C_26
REMARK   10  A    between atoms: N_30  and  C_31
REMARK                            x       y       z     vdW  Elec       q    Type
REMARK                         _______ _______ _______ _____ _____    ______ ____
ROOT
ATOM      1  C   UNL     1       1.264   1.775  -0.247  0.00  0.00    +0.163 A 
ATOM      2  N   UNL     1       0.014   1.424  -0.131  0.00  0.00    -0.152 NA
ATOM      3  N   UNL     1      -0.026   0.054   0.163  0.00  0.00    -0.257 N 
ATOM      4  C   UNL     1       1.247  -0.388   0.214  0.00  0.00    +0.176 A 
ATOM      5  S   UNL     1       1.748  -1.993   0.539  0.00  0.00    -0.011 S 
ATOM      6  N   UNL     1       2.054   0.662  -0.036  0.00  0.00    -0.306 N 
ATOM      7  C   UNL     1       3.518   0.629  -0.078  0.00  0.00    +0.153 C 
ENDROOT
BRANCH   1  11
ATOM      8  C   UNL     1       2.672   5.686  -1.125  0.00  0.00    -0.042 A 
ATOM      9  C   UNL     1       1.395   5.511  -0.623  0.00  0.00    +0.005 A 
ATOM     10  C   UNL     1       0.932   4.243  -0.336  0.00  0.00    +0.012 A 
ATOM     11  C   UNL     1       1.754   3.137  -0.553  0.00  0.00    +0.019 A 
ATOM     12  C   UNL     1       3.043   3.322  -1.055  0.00  0.00    +0.012 A 
ATOM     13  C   UNL     1       3.493   4.594  -1.343  0.00  0.00    +0.005 A 
BRANCH   8  15
ATOM     14  C   UNL     1       3.154   7.920  -0.162  0.00  0.00    +0.015 C 
ATOM     15  C   UNL     1       3.171   7.074  -1.437  0.00  0.00    -0.013 C 
ATOM     16  C   UNL     1       4.601   6.992  -1.975  0.00  0.00    +0.015 C 
ATOM     17  C   UNL     1       2.266   7.718  -2.489  0.00  0.00    +0.015 C 
ENDBRANCH   8  15
ENDBRANCH   1  11
BRANCH   3  18
ATOM     18  C   UNL     1      -1.232  -0.751   0.373  0.00  0.00    +0.072 C 
BRANCH  18  19
ATOM     19  N   UNL     1      -1.679  -1.308  -0.910  0.00  0.00    +0.393 N 
ATOM     20  C   UNL     1      -0.551  -1.874  -1.660  0.00  0.00    -0.076 C 
ATOM     21  C   UNL     1      -1.027  -2.311  -3.047  0.00  0.00    -0.018 C 
ATOM     22  C   UNL     1      -2.137  -3.355  -2.895  0.00  0.00    +0.007 C 
ATOM     23  C   UNL     1      -3.279  -2.757  -2.068  0.00  0.00    +0.040 C 
ATOM     24  C   UNL     1      -2.738  -2.307  -0.710  0.00  0.00    -0.065 C 
ATOM     25  H   UNL     1      -2.102  -0.487  -1.508  0.00  0.00    -0.079 HD
BRANCH  23  26
ATOM     26  C   UNL     1      -4.350  -3.797  -1.863  0.00  0.00    +0.134 A 
ATOM     27  N   UNL     1      -4.204  -4.951  -1.271  0.00  0.00    -0.134 NA
ATOM     28  N   UNL     1      -5.324  -5.584  -1.274  0.00  0.00    -0.138 NA
ATOM     29  C   UNL     1      -6.235  -4.862  -1.868  0.00  0.00    +0.224 A 
ATOM     30  N   UNL     1      -5.644  -3.705  -2.255  0.00  0.00    -0.320 N 
ATOM     31  C   UNL     1      -6.275  -2.585  -2.956  0.00  0.00    +0.151 C 
ENDBRANCH  23  26
ENDBRANCH  18  19
ENDBRANCH   3  18
TORSDOF 5
