REMARK  Name = ZINC02640069
REMARK  9 active torsions:
REMARK  status: ('A' for Active; 'I' for Inactive)
REMARK    1  A    between atoms: C_1  and  C_2
REMARK    2  A    between atoms: C_7  and  C_32
REMARK    3  A    between atoms: C_10  and  C_12
REMARK    4  A    between atoms: C_12  and  O_13
REMARK    5  A    between atoms: O_13  and  C_14
REMARK    6  A    between atoms: C_17  and  C_20
REMARK    7  A    between atoms: N_22  and  N_23
REMARK    8  A    between atoms: N_23  and  C_24
REMARK    9  A    between atoms: C_24  and  C_26
REMARK                            x       y       z     vdW  Elec       q    Type
REMARK                         _______ _______ _______ _____ _____    ______ ____
ROOT
ATOM      1  C   UNL     1       3.325   0.697   5.213  0.00  0.00    +0.121 A 
ATOM      2  C   UNL     1       3.758  -0.614   5.377  0.00  0.00    +0.046 A 
ATOM      3  C   UNL     1       4.676  -0.920   6.357  0.00  0.00    +0.016 A 
ATOM      4  C   UNL     1       5.172   0.089   7.187  0.00  0.00    +0.038 A 
ATOM      5  C   UNL     1       4.734   1.405   7.019  0.00  0.00    +0.016 A 
ATOM      6  C   UNL     1       3.820   1.704   6.033  0.00  0.00    +0.046 A 
ENDROOT
BRANCH   4   7
ATOM      7  C   UNL     1       6.155  -0.235   8.239  0.00  0.00    +0.260 C 
ATOM      8  O   UNL     1       6.535  -1.381   8.384  0.00  0.00    -0.269 OA
ATOM      9  N   UNL     1       6.633   0.739   9.038  0.00  0.00    -0.232 N 
ATOM     10  H   UNL     1       6.330   1.653   8.922  0.00  0.00    +0.173 HD
BRANCH   9  11
ATOM     11  N   UNL     1       7.566   0.432  10.037  0.00  0.00    -0.264 N 
ATOM     12  H   UNL     1       7.869  -0.483  10.153  0.00  0.00    +0.170 HD
BRANCH  11  13
ATOM     13  C   UNL     1       8.061   1.441  10.865  0.00  0.00    +0.051 C 
ATOM     14  C   UNL     1       7.643   2.701  10.705  0.00  0.00    +0.036 C 
BRANCH  13  15
ATOM     15  C   UNL     1       9.043   1.117  11.915  0.00  0.00    +0.035 A 
ATOM     16  C   UNL     1       9.640   1.950  12.825  0.00  0.00    +0.018 A 
ATOM     17  C   UNL     1      10.537   1.415  13.723  0.00  0.00    +0.023 A 
ATOM     18  C   UNL     1      10.802   0.083  13.680  0.00  0.00    +0.056 A 
ATOM     19  S   UNL     1       9.758  -0.463  12.338  0.00  0.00    -0.080 S 
ATOM     20 BR   UNL     1      11.971  -0.932  14.765  0.00  0.00    -0.043 Br
ENDBRANCH  13  15
ENDBRANCH  11  13
ENDBRANCH   9  11
ENDBRANCH   4   7
BRANCH   1  21
ATOM     21  O   UNL     1       2.420   0.995   4.247  0.00  0.00    -0.483 OA
BRANCH  21  22
ATOM     22  C   UNL     1       1.952  -0.088   3.440  0.00  0.00    +0.324 C 
BRANCH  22  30
ATOM     23  C   UNL     1      -0.299   1.737   0.448  0.00  0.00    +0.028 C 
ATOM     24  C   UNL     1      -0.024   0.254   0.195  0.00  0.00    +0.073 C 
ATOM     25  C   UNL     1      -1.342  -0.472  -0.092  0.00  0.00    +0.022 C 
ATOM     26  C   UNL     1      -1.078  -1.975  -0.206  0.00  0.00    +0.004 C 
ATOM     27  C   UNL     1      -0.518  -2.498   1.118  0.00  0.00    +0.022 C 
ATOM     28  C   UNL     1       0.810  -1.796   1.420  0.00  0.00    +0.073 C 
ATOM     29  N   UNL     1       0.597  -0.342   1.386  0.00  0.00    -0.293 N 
ATOM     30  C   UNL     1       0.961   0.429   2.430  0.00  0.00    +0.254 C 
ATOM     31  O   UNL     1       0.492   1.541   2.555  0.00  0.00    -0.272 OA
ATOM     32  C   UNL     1       1.308  -2.213   2.805  0.00  0.00    +0.028 C 
ENDBRANCH  22  30
ENDBRANCH  21  22
ENDBRANCH   1  21
TORSDOF 7
