REMARK  Name = ZINC29525232
REMARK  5 active torsions:
REMARK  status: ('A' for Active; 'I' for Inactive)
REMARK    1  A    between atoms: C_1  and  C_2
REMARK    2  A    between atoms: C_3  and  C_22
REMARK    3  A    between atoms: C_7  and  C_8
REMARK    4  A    between atoms: N_10  and  C_11
REMARK    5  A    between atoms: C_14  and  N_17
REMARK                            x       y       z     vdW  Elec       q    Type
REMARK                         _______ _______ _______ _____ _____    ______ ____
ROOT
ATOM      1  C   UNL     1       2.442  -8.386   1.034  0.00  0.00    +0.047 C 
ATOM      2  C   UNL     1       2.281  -6.889   1.087  0.00  0.00    -0.007 A 
ATOM      3  C   UNL     1       3.205  -6.093   1.744  0.00  0.00    +0.065 A 
ATOM      4  N   UNL     1       3.046  -4.785   1.780  0.00  0.00    -0.152 NA
ATOM      5  N   UNL     1       2.058  -4.191   1.218  0.00  0.00    -0.132 NA
ATOM      6  C   UNL     1       1.113  -4.854   0.567  0.00  0.00    +0.163 A 
ATOM      7  C   UNL     1       1.192  -6.257   0.473  0.00  0.00    +0.098 A 
ATOM      8  N   UNL     1       0.059  -4.173  -0.019  0.00  0.00    -0.297 N 
ATOM      9  C   UNL     1       4.394  -6.725   2.420  0.00  0.00    +0.068 C 
ATOM     10  H   UNL     1      -0.769  -4.733  -0.480  0.00  0.00    +0.154 HD
ENDROOT
BRANCH   8  11
ATOM     11  C   UNL     1       0.047  -2.773  -0.026  0.00  0.00    +0.033 A 
ATOM     12  C   UNL     1      -1.156  -2.088   0.082  0.00  0.00    +0.025 A 
ATOM     13  C   UNL     1      -1.167  -0.708   0.077  0.00  0.00    +0.025 A 
ATOM     14  C   UNL     1       0.024  -0.004  -0.037  0.00  0.00    +0.030 A 
ATOM     15  C   UNL     1       1.227  -0.689  -0.152  0.00  0.00    +0.025 A 
ATOM     16  C   UNL     1       1.239  -2.069  -0.140  0.00  0.00    +0.025 A 
BRANCH  14  17
ATOM     17  N   UNL     1       0.013   1.396  -0.043  0.00  0.00    -0.330 N 
ATOM     18  C   UNL     1       0.759   1.939   1.121  0.00  0.00    +0.105 C 
ATOM     19  C   UNL     1       1.091   3.388   0.684  0.00  0.00    +0.020 C 
ATOM     20  C   UNL     1       1.394   3.233  -0.824  0.00  0.00    +0.020 C 
ATOM     21  C   UNL     1       0.695   1.927  -1.243  0.00  0.00    +0.105 C 
ENDBRANCH  14  17
ENDBRANCH   8  11
BRANCH   7  22
ATOM     22  C   UNL     1       0.194  -7.011  -0.226  0.00  0.00    +0.103 C 
ATOM     23  N   UNL     1      -0.597  -7.609  -0.779  0.00  0.00    -0.191 NA
ENDBRANCH   7  22
TORSDOF 3
