REMARK  Name = ZINC22390755
REMARK  9 active torsions:
REMARK  status: ('A' for Active; 'I' for Inactive)
REMARK    1  A    between atoms: C_4  and  N_16
REMARK    2  A    between atoms: C_5  and  C_7
REMARK    3  A    between atoms: N_9  and  C_10
REMARK    4  A    between atoms: C_10  and  C_11
REMARK    5  A    between atoms: C_17  and  C_19
REMARK    6  A    between atoms: C_19  and  N_20
REMARK    7  A    between atoms: N_20  and  C_21
REMARK    8  A    between atoms: N_20  and  S_28
REMARK    9  A    between atoms: S_28  and  C_31
REMARK                            x       y       z     vdW  Elec       q    Type
REMARK                         _______ _______ _______ _____ _____    ______ ____
ROOT
ATOM      1  N   UNL     1       2.411   1.786  -0.168  0.00  0.00    -0.283 N 
ATOM      2  C   UNL     1       3.482   2.603  -0.145  0.00  0.00    +0.236 C 
ATOM      3  O   UNL     1       3.334   3.792   0.044  0.00  0.00    -0.274 OA
ATOM      4  H   UNL     1       2.550   0.699  -0.259  0.00  0.00    +0.155 HD
ENDROOT
BRANCH   1   8
ATOM      5  C   UNL     1      -1.432   3.382   0.110  0.00  0.00    +0.001 A 
ATOM      6  C   UNL     1      -0.416   3.860   0.922  0.00  0.00    +0.002 A 
ATOM      7  C   UNL     1       0.856   3.333   0.833  0.00  0.00    +0.024 A 
ATOM      8  C   UNL     1       1.127   2.318  -0.075  0.00  0.00    +0.046 A 
ATOM      9  C   UNL     1       0.101   1.832  -0.899  0.00  0.00    +0.058 A 
ATOM     10  C   UNL     1      -1.181   2.379  -0.801  0.00  0.00    +0.015 A 
BRANCH   9  11
ATOM     11  C   UNL     1       0.376   0.754  -1.868  0.00  0.00    +0.246 C 
ATOM     12  O   UNL     1       1.495   0.287  -1.957  0.00  0.00    -0.270 OA
ATOM     13  N   UNL     1      -0.614   0.285  -2.653  0.00  0.00    -0.304 N 
ATOM     14  H   UNL     1      -1.627   0.707  -2.572  0.00  0.00    +0.149 HD
BRANCH  13  15
ATOM     15  C   UNL     1      -0.342  -0.785  -3.615  0.00  0.00    +0.179 C 
BRANCH  15  16
ATOM     16  C   UNL     1      -1.606  -1.123  -4.363  0.00  0.00    +0.122 A 
ATOM     17  C   UNL     1      -2.017  -0.555  -5.511  0.00  0.00    +0.046 A 
ATOM     18  C   UNL     1      -3.243  -1.168  -5.855  0.00  0.00    +0.041 A 
ATOM     19  C   UNL     1      -3.509  -2.074  -4.897  0.00  0.00    +0.195 A 
ATOM     20  O   UNL     1      -2.511  -2.046  -3.998  0.00  0.00    -0.466 OA
ENDBRANCH  15  16
ENDBRANCH  13  15
ENDBRANCH   9  11
ENDBRANCH   1   8
BRANCH   2  21
ATOM     21  C   UNL     1       4.864   2.040  -0.356  0.00  0.00    +0.227 C 
BRANCH  21  22
ATOM     22  N   UNL     1       5.849   3.122  -0.287  0.00  0.00    -0.194 N 
BRANCH  22  23
ATOM     23  C   UNL     1       6.350   3.532   0.952  0.00  0.00    +0.052 A 
ATOM     24  C   UNL     1       6.849   4.819   1.109  0.00  0.00    +0.027 A 
ATOM     25  C   UNL     1       7.340   5.223   2.335  0.00  0.00    +0.040 A 
ATOM     26  C   UNL     1       7.345   4.344   3.405  0.00  0.00    +0.124 A 
ATOM     27  C   UNL     1       6.853   3.059   3.249  0.00  0.00    +0.040 A 
ATOM     28  C   UNL     1       6.356   2.652   2.026  0.00  0.00    +0.027 A 
ATOM     29  F   UNL     1       7.830   4.740   4.602  0.00  0.00    -0.205 F 
ENDBRANCH  22  23
BRANCH  22  30
ATOM     30  S   UNL     1       6.367   3.860  -1.675  0.00  0.00    +0.081 S 
ATOM     31  O   UNL     1       7.700   4.289  -1.434  0.00  0.00    -0.149 OA
ATOM     32  O   UNL     1       6.029   2.991  -2.748  0.00  0.00    -0.149 OA
BRANCH  30  33
ATOM     33  C   UNL     1       5.399   5.317  -1.884  0.00  0.00    +0.146 A 
ATOM     34  C   UNL     1       5.637   6.572  -1.429  0.00  0.00    +0.036 A 
ATOM     35  C   UNL     1       4.728   7.573  -1.718  0.00  0.00    +0.010 A 
ATOM     36  C   UNL     1       3.626   7.270  -2.447  0.00  0.00    +0.047 A 
ATOM     37  S   UNL     1       3.855   5.526  -2.755  0.00  0.00    -0.077 S 
ENDBRANCH  30  33
ENDBRANCH  22  30
ENDBRANCH  21  22
ENDBRANCH   2  21
TORSDOF 9
