REMARK  Name = ZINC16393367
REMARK  7 active torsions:
REMARK  status: ('A' for Active; 'I' for Inactive)
REMARK    1  A    between atoms: C_3  and  N_19
REMARK    2  A    between atoms: C_4  and  N_16
REMARK    3  A    between atoms: C_6  and  C_7
REMARK    4  A    between atoms: N_9  and  C_10
REMARK    5  A    between atoms: N_19  and  C_20
REMARK    6  A    between atoms: C_20  and  C_21
REMARK    7  A    between atoms: C_21  and  N_22
REMARK                            x       y       z     vdW  Elec       q    Type
REMARK                         _______ _______ _______ _____ _____    ______ ____
ROOT
ATOM      1  C   UNL     1      -0.001   1.389  -0.218  0.00  0.00    +0.015 A 
ATOM      2  C   UNL     1       1.194   2.070  -0.278  0.00  0.00    +0.026 A 
ATOM      3  C   UNL     1       2.393   1.394  -0.067  0.00  0.00    +0.058 A 
ATOM      4  C   UNL     1       2.388   0.029   0.205  0.00  0.00    +0.148 A 
ATOM      5  C   UNL     1       1.196  -0.657   0.266  0.00  0.00    +0.047 A 
ATOM      6  C   UNL     1      -0.009   0.018   0.055  0.00  0.00    +0.039 A 
ENDROOT
BRANCH   6   7
ATOM      7  C   UNL     1      -1.288  -0.714   0.120  0.00  0.00    +0.244 C 
ATOM      8  O   UNL     1      -1.294  -1.907   0.358  0.00  0.00    -0.270 OA
ATOM      9  N   UNL     1      -2.450  -0.062  -0.084  0.00  0.00    -0.308 N 
ATOM     10  H   UNL     1      -2.445   0.889  -0.273  0.00  0.00    +0.149 HD
BRANCH   9  11
ATOM     11  C   UNL     1      -3.720  -0.789  -0.019  0.00  0.00    +0.073 C 
ATOM     12  C   UNL     1      -4.011  -1.430  -1.377  0.00  0.00    +0.022 C 
ATOM     13  C   UNL     1      -5.337  -2.190  -1.310  0.00  0.00    +0.002 C 
ATOM     14  C   UNL     1      -6.463  -1.218  -0.952  0.00  0.00    +0.000 C 
ATOM     15  C   UNL     1      -6.173  -0.578   0.406  0.00  0.00    +0.002 C 
ATOM     16  C   UNL     1      -4.846   0.182   0.339  0.00  0.00    +0.022 C 
ENDBRANCH   9  11
ENDBRANCH   6   7
BRANCH   4  17
ATOM     17  N   UNL     1       3.664  -0.686   0.428  0.00  0.00    +0.058 N 
ATOM     18  O   UNL     1       3.809  -1.811   0.010  0.00  0.00    -0.126 OA
ATOM     19  O   UNL     1       4.563  -0.144   1.028  0.00  0.00    -0.126 OA
ENDBRANCH   4  17
BRANCH   3  20
ATOM     20  N   UNL     1       3.598   2.085  -0.129  0.00  0.00    -0.341 N 
ATOM     21  H   UNL     1       4.437   1.602  -0.067  0.00  0.00    +0.146 HD
BRANCH  20  22
ATOM     22  C   UNL     1       3.601   3.541  -0.286  0.00  0.00    +0.121 C 
BRANCH  22  23
ATOM     23  C   UNL     1       5.044   4.047  -0.325  0.00  0.00    +0.135 C 
BRANCH  23  24
ATOM     24  N   UNL     1       5.047   5.504  -0.483  0.00  0.00    -0.240 N 
ATOM     25  C   UNL     1       5.055   6.122  -1.692  0.00  0.00    +0.226 C 
ATOM     26  O   UNL     1       4.852   5.610  -2.773  0.00  0.00    -0.275 OA
ATOM     27  C   UNL     1       5.364   7.564  -1.424  0.00  0.00    +0.091 C 
ATOM     28  C   UNL     1       4.714   8.612  -2.303  0.00  0.00    +0.040 C 
ATOM     29  C   UNL     1       4.905   9.946  -1.611  0.00  0.00    -0.030 C 
ATOM     30  C   UNL     1       5.204  10.084  -0.354  0.00  0.00    -0.030 C 
ATOM     31  C   UNL     1       5.380   8.932   0.614  0.00  0.00    +0.040 C 
ATOM     32  C   UNL     1       4.736   7.718  -0.004  0.00  0.00    +0.091 C 
ATOM     33  C   UNL     1       5.036   6.367   0.566  0.00  0.00    +0.226 C 
ATOM     34  O   UNL     1       5.231   6.097   1.732  0.00  0.00    -0.275 OA
ENDBRANCH  23  24
ENDBRANCH  22  23
ENDBRANCH  20  22
ENDBRANCH   3  20
TORSDOF 7
