REMARK  Name = ZINC33720955
REMARK  7 active torsions:
REMARK  status: ('A' for Active; 'I' for Inactive)
REMARK    1  A    between atoms: C_1  and  C_2
REMARK    2  A    between atoms: C_5  and  S_8
REMARK    3  A    between atoms: S_8  and  N_11
REMARK    4  A    between atoms: C_18  and  C_25
REMARK    5  A    between atoms: C_19  and  C_24
REMARK    6  A    between atoms: C_21  and  C_23
REMARK    7  A    between atoms: C_25  and  C_26
REMARK                            x       y       z     vdW  Elec       q    Type
REMARK                         _______ _______ _______ _____ _____    ______ ____
ROOT
ATOM      1  N   UNL     1       0.843  -3.061  -1.617  0.00  0.00    -0.174 NA
ATOM      2  C   UNL     1      -0.065  -3.768  -2.534  0.00  0.00    +0.128 C 
ATOM      3  C   UNL     1      -0.144  -2.969  -3.845  0.00  0.00    +0.123 C 
ATOM      4  N   UNL     1       1.213  -2.749  -4.362  0.00  0.00    -0.312 N 
ATOM      5  C   UNL     1       2.011  -1.933  -3.437  0.00  0.00    +0.123 C 
ATOM      6  C   UNL     1       2.176  -2.685  -2.111  0.00  0.00    +0.128 C 
ATOM      7  C   UNL     1       1.177  -2.178  -5.623  0.00  0.00    +0.128 A 
ATOM      8  C   UNL     1       1.818  -2.795  -6.700  0.00  0.00    +0.016 A 
ATOM      9  C   UNL     1       1.754  -2.186  -7.938  0.00  0.00    +0.021 A 
ATOM     10  N   UNL     1       1.091  -1.044  -8.063  0.00  0.00    -0.347 N 
ATOM     11  C   UNL     1       0.497  -0.487  -7.027  0.00  0.00    +0.106 A 
ATOM     12  N   UNL     1       0.528  -1.036  -5.829  0.00  0.00    -0.219 NA
ATOM     13  C   UNL     1      -0.243   0.811  -7.218  0.00  0.00    +0.086 C 
ATOM     14  C   UNL     1       2.427  -2.811  -9.131  0.00  0.00    +0.064 C 
ATOM     15  H   UNL     1       1.031  -0.548  -9.042  0.00  0.00    +0.167 HD
ENDROOT
BRANCH   1  16
ATOM     16  S   UNL     1       0.379  -2.704  -0.068  0.00  0.00    +0.061 S 
ATOM     17  O   UNL     1       1.571  -2.569   0.692  0.00  0.00    -0.153 OA
ATOM     18  O   UNL     1      -0.642  -3.632   0.273  0.00  0.00    -0.153 OA
BRANCH  16  23
ATOM     19  C   UNL     1      -2.215   2.742  -0.190  0.00  0.00    +0.044 C 
ATOM     20  C   UNL     1      -1.567   1.382  -0.160  0.00  0.00    -0.050 A 
ATOM     21  C   UNL     1      -2.334   0.247  -0.348  0.00  0.00    +0.005 A 
ATOM     22  C   UNL     1      -1.739  -1.001  -0.320  0.00  0.00    +0.029 A 
ATOM     23  C   UNL     1      -0.379  -1.114  -0.105  0.00  0.00    +0.105 A 
ATOM     24  C   UNL     1       0.388   0.021   0.083  0.00  0.00    +0.029 A 
ATOM     25  C   UNL     1      -0.206   1.269   0.055  0.00  0.00    +0.005 A 
ENDBRANCH  16  23
ENDBRANCH   1  16
BRANCH   8  26
ATOM     26  C   UNL     1       2.561  -4.093  -6.516  0.00  0.00    +0.075 C 
BRANCH  26  27
ATOM     27  C   UNL     1       1.656  -5.245  -6.869  0.00  0.00    -0.043 A 
ATOM     28  C   UNL     1       0.784  -5.753  -5.924  0.00  0.00    +0.005 A 
ATOM     29  C   UNL     1      -0.051  -6.806  -6.249  0.00  0.00    +0.020 A 
ATOM     30  C   UNL     1      -0.006  -7.358  -7.516  0.00  0.00    +0.041 A 
ATOM     31  C   UNL     1       0.871  -6.853  -8.460  0.00  0.00    +0.020 A 
ATOM     32  C   UNL     1       1.701  -5.797  -8.136  0.00  0.00    +0.005 A 
ATOM     33 CL   UNL     1      -1.049  -8.685  -7.923  0.00  0.00    -0.084 Cl
ENDBRANCH  26  27
ENDBRANCH   8  26
TORSDOF 4
