REMARK  Name = ZINC39920659
REMARK  6 active torsions:
REMARK  status: ('A' for Active; 'I' for Inactive)
REMARK    1  A    between atoms: C_1  and  C_2
REMARK    2  A    between atoms: C_7  and  O_8
REMARK    3  A    between atoms: O_8  and  C_9
REMARK    4  A    between atoms: C_9  and  C_10
REMARK    5  A    between atoms: N_12  and  N_13
REMARK    6  A    between atoms: C_14  and  C_26
REMARK                            x       y       z     vdW  Elec       q    Type
REMARK                         _______ _______ _______ _____ _____    ______ ____
ROOT
ATOM      1  N   UNL     1       0.066   0.412   7.134  0.00  0.00    -0.188 N 
ATOM      2  C   UNL     1       1.303   0.604   7.890  0.00  0.00    +0.247 C 
ATOM      3  N   UNL     1       1.004   0.813   9.312  0.00  0.00    -0.318 N 
ATOM      4  C   UNL     1      -0.047   1.655   9.658  0.00  0.00    +0.041 A 
ATOM      5  C   UNL     1      -0.053   2.361  10.849  0.00  0.00    +0.025 A 
ATOM      6  C   UNL     1      -1.125   3.177  11.156  0.00  0.00    +0.017 A 
ATOM      7  C   UNL     1      -2.195   3.293  10.281  0.00  0.00    +0.019 A 
ATOM      8  C   UNL     1      -2.202   2.599   9.088  0.00  0.00    +0.030 A 
ATOM      9  C   UNL     1      -1.125   1.777   8.764  0.00  0.00    +0.060 A 
ATOM     10  C   UNL     1      -1.074   1.039   7.489  0.00  0.00    +0.267 C 
ATOM     11  O   UNL     1      -2.050   0.993   6.766  0.00  0.00    -0.268 OA
ATOM     12 BR   UNL     1      -3.653   4.411  10.726  0.00  0.00    -0.050 Br
ATOM     13  H   UNL     1       1.530   0.371   9.997  0.00  0.00    +0.148 HD
ENDROOT
BRANCH   2  14
ATOM     14  C   UNL     1       2.033   1.809   7.355  0.00  0.00    +0.145 A 
ATOM     15  C   UNL     1       2.839   2.620   8.065  0.00  0.00    +0.048 A 
ATOM     16  C   UNL     1       3.308   3.613   7.174  0.00  0.00    +0.041 A 
ATOM     17  C   UNL     1       2.760   3.350   5.974  0.00  0.00    +0.195 A 
ATOM     18  O   UNL     1       1.994   2.253   6.088  0.00  0.00    -0.464 OA
ENDBRANCH   2  14
BRANCH   1  21
ATOM     19  C   UNL     1       0.047   0.090   4.775  0.00  0.00    +0.267 C 
ATOM     20  O   UNL     1       0.030   1.294   4.625  0.00  0.00    -0.271 OA
ATOM     21  N   UNL     1       0.066  -0.433   6.017  0.00  0.00    -0.227 N 
ATOM     22  H   UNL     1       0.080  -1.396   6.137  0.00  0.00    +0.173 HD
BRANCH  19  23
ATOM     23  C   UNL     1       0.048  -0.820   3.574  0.00  0.00    +0.326 C 
BRANCH  23  24
ATOM     24  O   UNL     1       0.025  -0.033   2.381  0.00  0.00    -0.482 OA
BRANCH  24  31
ATOM     25  C   UNL     1      -0.018   1.503   0.010  0.00  0.00    +0.047 C 
ATOM     26  C   UNL     1       0.002  -0.004   0.002  0.00  0.00    -0.009 A 
ATOM     27  C   UNL     1       0.006  -0.689  -1.198  0.00  0.00    +0.007 A 
ATOM     28  C   UNL     1       0.024  -2.071  -1.206  0.00  0.00    +0.000 A 
ATOM     29  C   UNL     1       0.039  -2.772  -0.014  0.00  0.00    +0.004 A 
ATOM     30  C   UNL     1       0.036  -2.092   1.188  0.00  0.00    +0.046 A 
ATOM     31  C   UNL     1       0.023  -0.705   1.199  0.00  0.00    +0.124 A 
ENDBRANCH  24  31
ENDBRANCH  23  24
ENDBRANCH  19  23
ENDBRANCH   1  21
TORSDOF 5
