REMARK  Name = ZINC19808248
REMARK  9 active torsions:
REMARK  status: ('A' for Active; 'I' for Inactive)
REMARK    1  A    between atoms: C_1  and  C_2
REMARK    2  A    between atoms: C_2  and  O_3
REMARK    3  A    between atoms: O_3  and  C_4
REMARK    4  A    between atoms: C_6  and  C_12
REMARK    5  A    between atoms: C_9  and  O_10
REMARK    6  A    between atoms: N_13  and  N_14
REMARK    7  A    between atoms: C_15  and  C_17
REMARK    8  A    between atoms: C_18  and  C_28
REMARK    9  A    between atoms: C_28  and  N_29
REMARK                            x       y       z     vdW  Elec       q    Type
REMARK                         _______ _______ _______ _____ _____    ______ ____
ROOT
ATOM      1  C   UNL     1       2.373   0.843   0.005  0.00  0.00    +0.154 A 
ATOM      2  C   UNL     1       3.667   1.294   0.046  0.00  0.00    +0.079 A 
ATOM      3  N   UNL     1       4.444   0.211   0.011  0.00  0.00    -0.135 NA
ATOM      4  N   UNL     1       3.710  -0.842  -0.047  0.00  0.00    -0.058 NA
ATOM      5  N   UNL     1       2.462  -0.527  -0.047  0.00  0.00    -0.183 N 
ATOM      6  C   UNL     1       1.387  -1.420  -0.097  0.00  0.00    +0.241 A 
ATOM      7  C   UNL     1       1.483  -2.882  -0.039  0.00  0.00    +0.206 A 
ATOM      8  N   UNL     1       0.278  -3.375  -0.112  0.00  0.00    -0.032 NA
ATOM      9  O   UNL     1      -0.629  -2.291  -0.216  0.00  0.00    -0.239 OA
ATOM     10  N   UNL     1       0.129  -1.095  -0.196  0.00  0.00    -0.027 NA
ATOM     11  N   UNL     1       2.658  -3.616   0.073  0.00  0.00    -0.337 N 
ATOM     12  H   UNL     1       2.618  -4.715   0.108  0.00  0.00    +0.144 HD
ATOM     13  H   UNL     1       3.627  -3.099   0.127  0.00  0.00    +0.144 HD
ENDROOT
BRANCH   1  15
ATOM     14  N   UNL     1       0.510   1.936  -1.134  0.00  0.00    -0.202 N 
ATOM     15  C   UNL     1       1.147   1.655   0.020  0.00  0.00    +0.284 C 
ATOM     16  O   UNL     1       0.707   2.073   1.075  0.00  0.00    -0.267 OA
ATOM     17  H   UNL     1       0.950   1.627  -2.094  0.00  0.00    +0.178 HD
BRANCH  14  19
ATOM     18  C   UNL     1      -1.322   2.896  -2.224  0.00  0.00    +0.138 C 
ATOM     19  N   UNL     1      -0.712   2.621  -1.111  0.00  0.00    -0.187 NA
BRANCH  18  22
ATOM     20  C   UNL     1      -4.472   4.591  -3.368  0.00  0.00    +0.163 A 
ATOM     21  C   UNL     1      -3.264   3.920  -3.396  0.00  0.00    +0.059 A 
ATOM     22  C   UNL     1      -2.608   3.617  -2.200  0.00  0.00    -0.001 A 
ATOM     23  C   UNL     1      -3.171   4.005  -0.981  0.00  0.00    +0.028 A 
ATOM     24  C   UNL     1      -4.374   4.679  -0.961  0.00  0.00    +0.063 A 
ATOM     25  C   UNL     1      -5.028   4.974  -2.150  0.00  0.00    +0.173 A 
ATOM     26 BR   UNL     1      -5.136   5.202   0.689  0.00  0.00    -0.046 Br
BRANCH  25  27
ATOM     27  O   UNL     1      -6.214   5.639  -2.125  0.00  0.00    -0.503 OA
ATOM     28  H   UNL     1      -6.654   5.942  -1.164  0.00  0.00    +0.292 HD
ENDBRANCH  25  27
BRANCH  20  29
ATOM     29  O   UNL     1      -5.115   4.882  -4.530  0.00  0.00    -0.489 OA
BRANCH  29  31
ATOM     30  C   UNL     1      -5.352   4.872  -6.936  0.00  0.00    +0.048 C 
ATOM     31  C   UNL     1      -4.487   4.459  -5.743  0.00  0.00    +0.226 C 
ENDBRANCH  29  31
ENDBRANCH  20  29
ENDBRANCH  18  22
ENDBRANCH  14  19
ENDBRANCH   1  15
BRANCH   2  32
ATOM     32  C   UNL     1       4.120   2.729   0.116  0.00  0.00    -0.018 C 
BRANCH  32  33
ATOM     33  N   UNL     1       4.245   3.135   1.522  0.00  0.00    +0.383 N 
ATOM     34  C   UNL     1       5.097   2.182   2.278  0.00  0.00    -0.078 C 
ATOM     35  C   UNL     1       5.540   3.005   3.514  0.00  0.00    -0.020 C 
ATOM     36  C   UNL     1       5.750   4.420   2.929  0.00  0.00    -0.020 C 
ATOM     37  C   UNL     1       4.912   4.450   1.637  0.00  0.00    -0.078 C 
ATOM     38  H   UNL     1       3.219   3.168   1.916  0.00  0.00    -0.081 HD
ENDBRANCH  32  33
ENDBRANCH   2  32
TORSDOF 8
