REMARK  Name = ZINC28774652
REMARK  6 active torsions:
REMARK  status: ('A' for Active; 'I' for Inactive)
REMARK    1  A    between atoms: C_9  and  O_30
REMARK    2  A    between atoms: C_10  and  C_11
REMARK    3  A    between atoms: C_11  and  N_12
REMARK    4  A    between atoms: N_15  and  S_18
REMARK    5  A    between atoms: S_18  and  C_21
REMARK    6  A    between atoms: C_26  and  N_27
REMARK                            x       y       z     vdW  Elec       q    Type
REMARK                         _______ _______ _______ _____ _____    ______ ____
ROOT
ATOM      1  N   UNL     1      -1.128   3.322   1.028  0.00  0.00    -0.295 NA
ATOM      2  C   UNL     1      -0.826   1.890   1.161  0.00  0.00    +0.102 C 
ATOM      3  C   UNL     1      -0.084   1.411  -0.091  0.00  0.00    +0.125 C 
ATOM      4  N   UNL     1      -0.875   1.776  -1.276  0.00  0.00    -0.174 NA
ATOM      5  C   UNL     1      -1.328   3.169  -1.408  0.00  0.00    +0.125 C 
ATOM      6  C   UNL     1      -2.025   3.579  -0.106  0.00  0.00    +0.102 C 
ENDROOT
BRANCH   4   7
ATOM      7  S   UNL     1      -1.244   0.650  -2.432  0.00  0.00    +0.063 S 
ATOM      8  O   UNL     1      -1.525   1.369  -3.625  0.00  0.00    -0.153 OA
ATOM      9  O   UNL     1      -0.234  -0.348  -2.364  0.00  0.00    -0.153 OA
BRANCH   7  10
ATOM     10  C   UNL     1      -2.750  -0.124  -1.944  0.00  0.00    +0.136 A 
ATOM     11  C   UNL     1      -3.242   0.066  -0.666  0.00  0.00    +0.031 A 
ATOM     12  C   UNL     1      -4.425  -0.536  -0.284  0.00  0.00    +0.002 A 
ATOM     13  C   UNL     1      -5.112  -1.337  -1.177  0.00  0.00    +0.002 A 
ATOM     14  C   UNL     1      -4.618  -1.532  -2.453  0.00  0.00    +0.035 A 
ATOM     15  C   UNL     1      -3.437  -0.925  -2.837  0.00  0.00    +0.152 A 
BRANCH  15  16
ATOM     16  N   UNL     1      -2.907  -1.133  -4.203  0.00  0.00    +0.058 N 
ATOM     17  O   UNL     1      -3.578  -1.719  -5.033  0.00  0.00    -0.126 OA
ATOM     18  O   UNL     1      -1.800  -0.719  -4.497  0.00  0.00    -0.126 OA
ENDBRANCH  15  16
ENDBRANCH   7  10
ENDBRANCH   4   7
BRANCH   1  19
ATOM     19  C   UNL     1      -1.689   3.859   2.275  0.00  0.00    +0.124 C 
BRANCH  19  29
ATOM     20  C   UNL     1       1.966   6.996   4.004  0.00  0.00    +0.001 A 
ATOM     21  C   UNL     1       1.009   7.069   2.994  0.00  0.00    +0.001 A 
ATOM     22  C   UNL     1       0.148   6.038   2.769  0.00  0.00    +0.009 A 
ATOM     23  C   UNL     1       0.225   4.882   3.565  0.00  0.00    -0.010 A 
ATOM     24  C   UNL     1       1.199   4.808   4.592  0.00  0.00    -0.017 A 
ATOM     25  C   UNL     1       2.070   5.892   4.794  0.00  0.00    +0.008 A 
ATOM     26  C   UNL     1       1.277   3.653   5.389  0.00  0.00    +0.012 A 
ATOM     27  C   UNL     1       0.419   2.621   5.167  0.00  0.00    +0.046 A 
ATOM     28  C   UNL     1      -0.547   2.694   4.158  0.00  0.00    +0.122 A 
ATOM     29  C   UNL     1      -0.646   3.799   3.362  0.00  0.00    +0.016 A 
BRANCH  28  30
ATOM     30  O   UNL     1      -1.394   1.650   3.965  0.00  0.00    -0.506 OA
ATOM     31  H   UNL     1      -2.157   1.700   3.173  0.00  0.00    +0.292 HD
ENDBRANCH  28  30
ENDBRANCH  19  29
ENDBRANCH   1  19
TORSDOF 6
