REMARK  Name = ZINC02449696
REMARK  9 active torsions:
REMARK  status: ('A' for Active; 'I' for Inactive)
REMARK    1  A    between atoms: C_1  and  C_2
REMARK    2  A    between atoms: C_2  and  O_3
REMARK    3  A    between atoms: O_3  and  C_4
REMARK    4  A    between atoms: C_7  and  C_12
REMARK    5  A    between atoms: C_9  and  O_10
REMARK    6  A    between atoms: O_10  and  C_11
REMARK    7  A    between atoms: C_23  and  C_25
REMARK    8  A    between atoms: C_30  and  O_31
REMARK    9  A    between atoms: O_31  and  C_32
REMARK                            x       y       z     vdW  Elec       q    Type
REMARK                         _______ _______ _______ _____ _____    ______ ____
ROOT
ATOM      1  C   UNL     1       1.188  -5.841   1.921  0.00  0.00    +0.159 C 
ATOM      2  C   UNL     1       2.277  -6.438   1.057  0.00  0.00    +0.027 C 
ATOM      3  C   UNL     1       1.929  -7.379   0.157  0.00  0.00    +0.083 C 
ATOM      4  C   UNL     1       3.007  -7.949  -0.691  0.00  0.00    +0.042 A 
ATOM      5  C   UNL     1       2.822  -9.123  -1.407  0.00  0.00    +0.013 A 
ATOM      6  C   UNL     1       3.853  -9.619  -2.182  0.00  0.00    +0.001 A 
ATOM      7  C   UNL     1       5.063  -8.949  -2.243  0.00  0.00    +0.004 A 
ATOM      8  C   UNL     1       5.254  -7.778  -1.534  0.00  0.00    +0.046 A 
ATOM      9  C   UNL     1       4.230  -7.269  -0.755  0.00  0.00    +0.131 A 
ATOM     10  O   UNL     1       4.388  -6.118  -0.054  0.00  0.00    -0.479 OA
ATOM     11  C   UNL     1       3.708  -6.006   1.198  0.00  0.00    +0.238 C 
ATOM     12  N   UNL     1       0.644  -7.794   0.025  0.00  0.00    -0.213 NA
ATOM     13  C   UNL     1      -0.359  -7.330   0.733  0.00  0.00    +0.237 C 
ATOM     14  N   UNL     1      -0.167  -6.358   1.689  0.00  0.00    -0.208 N 
ATOM     15  N   UNL     1      -1.421  -6.092   2.244  0.00  0.00    -0.251 N 
ATOM     16  C   UNL     1      -2.305  -6.907   1.605  0.00  0.00    +0.203 C 
ATOM     17  N   UNL     1      -1.678  -7.626   0.729  0.00  0.00    -0.205 NA
ATOM     18  H   UNL     1      -1.621  -5.453   2.945  0.00  0.00    +0.171 HD
ENDROOT
BRANCH   1  22
ATOM     19  C   UNL     1       1.128  -1.616   1.266  0.00  0.00    +0.162 A 
ATOM     20  C   UNL     1       0.465  -2.464   0.394  0.00  0.00    +0.050 A 
ATOM     21  C   UNL     1       0.486  -3.830   0.608  0.00  0.00    +0.009 A 
ATOM     22  C   UNL     1       1.168  -4.352   1.692  0.00  0.00    -0.017 A 
ATOM     23  C   UNL     1       1.831  -3.511   2.566  0.00  0.00    +0.055 A 
ATOM     24  C   UNL     1       1.819  -2.142   2.353  0.00  0.00    +0.162 A 
BRANCH  24  25
ATOM     25  O   UNL     1       2.476  -1.313   3.208  0.00  0.00    -0.491 OA
ATOM     26  C   UNL     1       3.164  -1.924   4.302  0.00  0.00    +0.277 C 
ENDBRANCH  24  25
BRANCH  19  27
ATOM     27  O   UNL     1       1.109  -0.272   1.056  0.00  0.00    -0.489 OA
BRANCH  27  29
ATOM     28  C   UNL     1       0.470   1.722  -0.150  0.00  0.00    +0.048 C 
ATOM     29  C   UNL     1       0.379   0.197  -0.080  0.00  0.00    +0.226 C 
ENDBRANCH  27  29
ENDBRANCH  19  27
ENDBRANCH   1  22
BRANCH  11  30
ATOM     30  C   UNL     1       4.393  -6.880   2.217  0.00  0.00    +0.039 A 
ATOM     31  C   UNL     1       5.133  -7.972   1.806  0.00  0.00    +0.011 A 
ATOM     32  C   UNL     1       5.762  -8.774   2.740  0.00  0.00    +0.001 A 
ATOM     33  C   UNL     1       5.652  -8.485   4.088  0.00  0.00    +0.004 A 
ATOM     34  C   UNL     1       4.914  -7.394   4.504  0.00  0.00    +0.046 A 
ATOM     35  C   UNL     1       4.286  -6.585   3.568  0.00  0.00    +0.127 A 
BRANCH  35  36
ATOM     36  O   UNL     1       3.564  -5.508   3.975  0.00  0.00    -0.495 OA
ATOM     37  C   UNL     1       3.498  -5.265   5.381  0.00  0.00    +0.277 C 
ENDBRANCH  35  36
ENDBRANCH  11  30
TORSDOF 6
