REMARK  Name = ZINC35549440
REMARK  6 active torsions:
REMARK  status: ('A' for Active; 'I' for Inactive)
REMARK    1  A    between atoms: C_7  and  C_11
REMARK    2  A    between atoms: C_11  and  C_13
REMARK    3  A    between atoms: C_11  and  C_32
REMARK    4  A    between atoms: C_13  and  C_14
REMARK    5  A    between atoms: N_19  and  C_22
REMARK    6  A    between atoms: C_22  and  C_23
REMARK                            x       y       z     vdW  Elec       q    Type
REMARK                         _______ _______ _______ _____ _____    ______ ____
ROOT
ATOM      1  C   UNL     1       0.666  -3.275  -0.021  0.00  0.00    +0.060 C 
ENDROOT
BRANCH   1   8
ATOM      2  C   UNL     1      -0.017   1.362   0.009  0.00  0.00    +0.001 A 
ATOM      3  C   UNL     1       1.170   2.083   0.002  0.00  0.00    +0.002 A 
ATOM      4  C   UNL     1       2.386   1.436  -0.013  0.00  0.00    +0.026 A 
ATOM      5  C   UNL     1       2.428   0.046  -0.021  0.00  0.00    +0.047 A 
ATOM      6  C   UNL     1       1.223  -0.681  -0.013  0.00  0.00    +0.003 A 
ATOM      7  C   UNL     1       0.002  -0.004   0.002  0.00  0.00    +0.010 A 
ATOM      8  C   UNL     1       1.604  -2.095  -0.025  0.00  0.00    -0.015 A 
ATOM      9  C   UNL     1       2.945  -2.141  -0.038  0.00  0.00    +0.087 A 
ATOM     10  N   UNL     1       3.455  -0.871  -0.036  0.00  0.00    -0.360 N 
ATOM     11  H   UNL     1       4.399  -0.650  -0.044  0.00  0.00    +0.165 HD
ENDBRANCH   1   8
BRANCH   1  12
ATOM     12  C   UNL     1       0.923  -4.117   1.202  0.00  0.00    -0.036 A 
ATOM     13  C   UNL     1       2.171  -4.674   1.407  0.00  0.00    +0.008 A 
ATOM     14  C   UNL     1       2.412  -5.447   2.528  0.00  0.00    +0.050 A 
ATOM     15  C   UNL     1       1.401  -5.665   3.450  0.00  0.00    +0.166 A 
ATOM     16  C   UNL     1       0.143  -5.103   3.244  0.00  0.00    +0.167 A 
ATOM     17  C   UNL     1      -0.089  -4.325   2.121  0.00  0.00    +0.053 A 
ATOM     18  O   UNL     1      -0.670  -5.461   4.281  0.00  0.00    -0.453 OA
ATOM     19  C   UNL     1      -0.018  -6.579   4.912  0.00  0.00    +0.466 C 
ATOM     20  O   UNL     1       1.376  -6.374   4.616  0.00  0.00    -0.453 OA
ENDBRANCH   1  12
BRANCH   1  21
ATOM     21  C   UNL     1       0.901  -4.117  -1.277  0.00  0.00    +0.109 C 
BRANCH  21  22
ATOM     22  C   UNL     1      -0.117  -5.226  -1.336  0.00  0.00    +0.217 C 
ATOM     23  O   UNL     1      -0.948  -5.334  -0.460  0.00  0.00    -0.276 OA
ATOM     24  N   UNL     1      -0.103  -6.100  -2.363  0.00  0.00    -0.299 N 
ATOM     25  C   UNL     1       0.900  -5.991  -3.433  0.00  0.00    +0.123 C 
ATOM     26  C   UNL     1       0.175  -6.007  -4.783  0.00  0.00    +0.103 C 
ATOM     27  N   UNL     1      -0.687  -7.194  -4.858  0.00  0.00    -0.295 NA
ATOM     28  C   UNL     1      -1.738  -7.155  -3.832  0.00  0.00    +0.103 C 
ATOM     29  C   UNL     1      -1.087  -7.190  -2.439  0.00  0.00    +0.123 C 
BRANCH  27  30
ATOM     30  C   UNL     1      -1.267  -7.339  -6.200  0.00  0.00    +0.119 C 
BRANCH  30  31
ATOM     31  C   UNL     1      -1.940  -8.683  -6.314  0.00  0.00    -0.030 A 
ATOM     32  C   UNL     1      -1.221  -9.779  -6.752  0.00  0.00    +0.009 A 
ATOM     33  C   UNL     1      -1.833 -11.014  -6.857  0.00  0.00    +0.050 A 
ATOM     34  C   UNL     1      -3.170 -11.155  -6.525  0.00  0.00    +0.166 A 
ATOM     35  C   UNL     1      -3.895 -10.051  -6.083  0.00  0.00    +0.167 A 
ATOM     36  C   UNL     1      -3.273  -8.818  -5.974  0.00  0.00    +0.054 A 
ATOM     37  O   UNL     1      -5.175 -10.445  -5.822  0.00  0.00    -0.453 OA
ATOM     38  C   UNL     1      -5.334 -11.708  -6.495  0.00  0.00    +0.466 C 
ATOM     39  O   UNL     1      -3.997 -12.242  -6.540  0.00  0.00    -0.453 OA
ENDBRANCH  30  31
ENDBRANCH  27  30
ENDBRANCH  21  22
ENDBRANCH   1  21
TORSDOF 6
