REMARK  Name = ZINC54723454
REMARK  8 active torsions:
REMARK  status: ('A' for Active; 'I' for Inactive)
REMARK    1  A    between atoms: C_1  and  C_2
REMARK    2  A    between atoms: C_3  and  C_19
REMARK    3  A    between atoms: C_4  and  C_18
REMARK    4  A    between atoms: N_5  and  C_7
REMARK    5  A    between atoms: C_7  and  C_8
REMARK    6  A    between atoms: C_11  and  N_15
REMARK    7  A    between atoms: C_19  and  C_21
REMARK    8  A    between atoms: C_19  and  O_22
REMARK                            x       y       z     vdW  Elec       q    Type
REMARK                         _______ _______ _______ _____ _____    ______ ____
ROOT
ATOM      1  C   UNL     1      -0.018   1.503   0.010  0.00  0.00    +0.068 C 
ATOM      2  C   UNL     1       0.002  -0.004   0.002  0.00  0.00    +0.066 A 
ATOM      3  C   UNL     1       0.008  -0.818  -1.135  0.00  0.00    +0.024 A 
ATOM      4  C   UNL     1       0.028  -2.107  -0.725  0.00  0.00    +0.042 A 
ATOM      5  N   UNL     1       0.034  -2.109   0.625  0.00  0.00    -0.264 N 
ATOM      6  N   UNL     1       0.023  -0.777   1.058  0.00  0.00    -0.176 NA
ATOM      7  C   UNL     1       0.040  -3.323  -1.615  0.00  0.00    +0.065 C 
ENDROOT
BRANCH   3   8
ATOM      8  C   UNL     1      -0.006  -0.343  -2.566  0.00  0.00    +0.145 C 
ATOM      9  C   UNL     1      -1.408   0.152  -2.925  0.00  0.00    +0.043 C 
BRANCH   8  10
ATOM     10  O   UNL     1       0.931   0.725  -2.722  0.00  0.00    -0.387 OA
ATOM     11  H   UNL     1       0.748   1.493  -2.165  0.00  0.00    +0.210 HD
ENDBRANCH   8  10
ENDBRANCH   3   8
BRANCH   5  12
ATOM     12  C   UNL     1       0.055  -3.295   1.485  0.00  0.00    +0.180 C 
BRANCH  12  13
ATOM     13  C   UNL     1       1.482  -3.682   1.773  0.00  0.00    -0.008 A 
ATOM     14  C   UNL     1       2.111  -4.635   0.994  0.00  0.00    +0.009 A 
ATOM     15  C   UNL     1       3.420  -4.990   1.259  0.00  0.00    +0.033 A 
ATOM     16  C   UNL     1       4.102  -4.392   2.302  0.00  0.00    +0.128 A 
ATOM     17  C   UNL     1       3.475  -3.439   3.081  0.00  0.00    +0.053 A 
ATOM     18  C   UNL     1       2.166  -3.078   2.813  0.00  0.00    +0.048 A 
ATOM     19 CL   UNL     1       1.380  -1.875   3.787  0.00  0.00    -0.083 Cl
BRANCH  16  20
ATOM     20  N   UNL     1       5.504  -4.774   2.586  0.00  0.00    +0.056 N 
ATOM     21  O   UNL     1       6.053  -5.609   1.904  0.00  0.00    -0.126 OA
ATOM     22  O   UNL     1       6.100  -4.251   3.498  0.00  0.00    -0.126 OA
ENDBRANCH  16  20
ENDBRANCH  12  13
ENDBRANCH   5  12
TORSDOF 5
