REMARK  Name = ZINC21324511
REMARK  10 active torsions:
REMARK  status: ('A' for Active; 'I' for Inactive)
REMARK    1  A    between atoms: C_1  and  C_2
REMARK    2  A    between atoms: C_4  and  C_30
REMARK    3  A    between atoms: C_5  and  N_9
REMARK    4  A    between atoms: C_6  and  C_8
REMARK    5  A    between atoms: C_10  and  C_12
REMARK    6  A    between atoms: C_12  and  N_13
REMARK    7  A    between atoms: C_14  and  C_16
REMARK    8  A    between atoms: C_16  and  S_17
REMARK    9  A    between atoms: S_17  and  C_18
REMARK   10  A    between atoms: C_21  and  C_23
REMARK                            x       y       z     vdW  Elec       q    Type
REMARK                         _______ _______ _______ _____ _____    ______ ____
ROOT
ATOM      1  N   UNL     1      -5.999   2.898  -1.138  0.00  0.00    -0.306 N 
ATOM      2  C   UNL     1      -7.260   3.314  -1.369  0.00  0.00    +0.224 C 
ATOM      3  O   UNL     1      -7.562   4.472  -1.175  0.00  0.00    -0.275 OA
ATOM      4  H   UNL     1      -5.725   1.847  -1.314  0.00  0.00    +0.149 HD
ENDROOT
BRANCH   1   5
ATOM      5  C   UNL     1      -4.993   3.846  -0.653  0.00  0.00    +0.200 C 
BRANCH   5   7
ATOM      6  N   UNL     1      -2.598   3.812  -0.036  0.00  0.00    -0.284 N 
ATOM      7  C   UNL     1      -3.676   3.135  -0.477  0.00  0.00    +0.234 C 
ATOM      8  O   UNL     1      -3.587   1.952  -0.732  0.00  0.00    -0.274 OA
ATOM      9  H   UNL     1      -2.696   4.864   0.271  0.00  0.00    +0.155 HD
BRANCH   6  14
ATOM     10  C   UNL     1       2.452   1.240   0.236  0.00  0.00    +0.044 C 
ATOM     11  C   UNL     1       1.110   1.923   0.163  0.00  0.00    -0.050 A 
ATOM     12  C   UNL     1       0.499   2.114  -1.062  0.00  0.00    +0.008 A 
ATOM     13  C   UNL     1      -0.728   2.745  -1.132  0.00  0.00    -0.029 A 
ATOM     14  C   UNL     1      -1.352   3.178   0.031  0.00  0.00    +0.039 A 
ATOM     15  C   UNL     1      -0.735   2.984   1.260  0.00  0.00    -0.029 A 
ATOM     16  C   UNL     1       0.494   2.357   1.323  0.00  0.00    +0.008 A 
ATOM     17  C   UNL     1      -1.406   3.457   2.523  0.00  0.00    +0.045 C 
ATOM     18  C   UNL     1      -1.391   2.959  -2.468  0.00  0.00    +0.045 C 
ENDBRANCH   6  14
ENDBRANCH   5   7
ENDBRANCH   1   5
BRANCH   2  19
ATOM     19  C   UNL     1      -8.295   2.339  -1.868  0.00  0.00    +0.174 C 
BRANCH  19  20
ATOM     20  S   UNL     1      -9.877   3.194  -2.080  0.00  0.00    -0.056 S 
BRANCH  20  21
ATOM     21  C   UNL     1     -10.872   1.858  -2.653  0.00  0.00    +0.278 A 
ATOM     22  N   UNL     1     -10.477   0.619  -2.841  0.00  0.00    -0.101 NA
ATOM     23  N   UNL     1     -11.467  -0.085  -3.265  0.00  0.00    -0.106 NA
ATOM     24  C   UNL     1     -12.531   0.673  -3.365  0.00  0.00    +0.249 A 
ATOM     25  O   UNL     1     -12.179   1.918  -2.974  0.00  0.00    -0.411 OA
BRANCH  24  26
ATOM     26  C   UNL     1     -13.871   0.244  -3.816  0.00  0.00    +0.040 A 
ATOM     27  C   UNL     1     -14.921   1.164  -3.867  0.00  0.00    +0.013 A 
ATOM     28  C   UNL     1     -16.169   0.759  -4.293  0.00  0.00    +0.002 A 
ATOM     29  C   UNL     1     -16.385  -0.558  -4.660  0.00  0.00    +0.015 A 
ATOM     30  C   UNL     1     -15.350  -1.476  -4.606  0.00  0.00    +0.019 A 
ATOM     31  C   UNL     1     -14.095  -1.082  -4.186  0.00  0.00    +0.028 A 
ATOM     32 BR   UNL     1     -15.656  -3.273  -5.109  0.00  0.00    -0.050 Br
ENDBRANCH  24  26
ENDBRANCH  20  21
ENDBRANCH  19  20
ENDBRANCH   2  19
TORSDOF 7
