REMARK  Name = ZINC59890619
REMARK  13 active torsions:
REMARK  status: ('A' for Active; 'I' for Inactive)
REMARK    1  A    between atoms: C_1  and  C_2
REMARK    2  A    between atoms: C_7  and  C_9
REMARK    3  A    between atoms: C_7  and  N_31
REMARK    4  A    between atoms: C_9  and  N_10
REMARK    5  A    between atoms: C_11  and  C_13
REMARK    6  A    between atoms: C_13  and  O_14
REMARK    7  A    between atoms: O_14  and  C_15
REMARK    8  A    between atoms: C_18  and  N_21
REMARK    9  A    between atoms: N_21  and  C_22
REMARK   10  A    between atoms: N_21  and  S_23
REMARK   11  A    between atoms: S_23  and  C_26
REMARK   12  A    between atoms: N_31  and  C_32
REMARK   13  A    between atoms: N_31  and  C_33
REMARK                            x       y       z     vdW  Elec       q    Type
REMARK                         _______ _______ _______ _____ _____    ______ ____
ROOT
ATOM      1  C   UNL     1      -1.726  -6.174   1.121  0.00  0.00    +0.324 C 
ENDROOT
BRANCH   1   3
ATOM      2  N   UNL     1      -0.743  -3.908   1.242  0.00  0.00    -0.314 N 
ATOM      3  C   UNL     1      -1.842  -4.672   1.088  0.00  0.00    +0.251 C 
ATOM      4  O   UNL     1      -2.925  -4.151   0.923  0.00  0.00    -0.272 OA
ATOM      5  H   UNL     1       0.123  -4.324   1.374  0.00  0.00    +0.149 HD
BRANCH   2   6
ATOM      6  C   UNL     1      -0.856  -2.447   1.209  0.00  0.00    +0.092 C 
BRANCH   6  12
ATOM      7  C   UNL     1      -0.427   1.736   0.189  0.00  0.00    +0.007 C 
ATOM      8  C   UNL     1      -0.304   0.213   0.113  0.00  0.00    -0.015 C 
ATOM      9  C   UNL     1       0.494  -0.173  -1.134  0.00  0.00    +0.003 C 
ATOM     10  C   UNL     1       0.617  -1.696  -1.210  0.00  0.00    -0.001 C 
ATOM     11  C   UNL     1       1.338  -2.212   0.037  0.00  0.00    -0.010 C 
ATOM     12  C   UNL     1       0.540  -1.826   1.284  0.00  0.00    -0.050 C 
ATOM     13  C   UNL     1       0.417  -0.303   1.360  0.00  0.00    -0.007 C 
BRANCH  12  14
ATOM     14  N   UNL     1       1.233  -2.321   2.481  0.00  0.00    +0.381 N 
ATOM     15  C   UNL     1       2.539  -1.661   2.600  0.00  0.00    -0.096 C 
ATOM     16  C   UNL     1       0.425  -2.026   3.672  0.00  0.00    -0.096 C 
ATOM     17  H   UNL     1       1.366  -3.319   2.404  0.00  0.00    -0.082 HD
ENDBRANCH  12  14
ENDBRANCH   6  12
ENDBRANCH   2   6
ENDBRANCH   1   3
BRANCH   1  18
ATOM     18  O   UNL     1      -3.018  -6.756   0.937  0.00  0.00    -0.483 OA
BRANCH  18  19
ATOM     19  C   UNL     1      -3.090  -8.114   0.941  0.00  0.00    +0.121 A 
ATOM     20  C   UNL     1      -1.941  -8.868   1.125  0.00  0.00    +0.047 A 
ATOM     21  C   UNL     1      -2.013 -10.248   1.129  0.00  0.00    +0.028 A 
ATOM     22  C   UNL     1      -3.236 -10.879   0.950  0.00  0.00    +0.051 A 
ATOM     23  C   UNL     1      -4.387 -10.123   0.766  0.00  0.00    +0.028 A 
ATOM     24  C   UNL     1      -4.314  -8.744   0.768  0.00  0.00    +0.047 A 
BRANCH  22  25
ATOM     25  N   UNL     1      -3.310 -12.277   0.954  0.00  0.00    -0.206 N 
ATOM     26  C   UNL     1      -4.170 -12.962   1.921  0.00  0.00    +0.157 C 
BRANCH  25  27
ATOM     27  S   UNL     1      -2.426 -13.155  -0.136  0.00  0.00    +0.081 S 
ATOM     28  O   UNL     1      -3.156 -14.349  -0.384  0.00  0.00    -0.149 OA
ATOM     29  O   UNL     1      -2.055 -12.260  -1.175  0.00  0.00    -0.149 OA
BRANCH  27  30
ATOM     30  C   UNL     1      -0.934 -13.636   0.670  0.00  0.00    +0.146 A 
ATOM     31  C   UNL     1      -0.676 -14.754   1.390  0.00  0.00    +0.036 A 
ATOM     32  C   UNL     1       0.583 -14.923   1.937  0.00  0.00    +0.010 A 
ATOM     33  C   UNL     1       1.520 -13.965   1.737  0.00  0.00    +0.047 A 
ATOM     34  S   UNL     1       0.630 -12.779   0.743  0.00  0.00    -0.077 S 
ENDBRANCH  27  30
ENDBRANCH  25  27
ENDBRANCH  22  25
ENDBRANCH  18  19
ENDBRANCH   1  18
TORSDOF 9
