REMARK  Name = ZINC63256634
REMARK  10 active torsions:
REMARK  status: ('A' for Active; 'I' for Inactive)
REMARK    1  A    between atoms: C_1  and  C_2
REMARK    2  A    between atoms: C_2  and  O_3
REMARK    3  A    between atoms: O_3  and  C_4
REMARK    4  A    between atoms: C_4  and  C_6
REMARK    5  A    between atoms: C_7  and  C_31
REMARK    6  A    between atoms: C_10  and  N_12
REMARK    7  A    between atoms: C_13  and  C_15
REMARK    8  A    between atoms: C_15  and  S_16
REMARK    9  A    between atoms: S_16  and  C_17
REMARK   10  A    between atoms: C_20  and  C_22
REMARK                            x       y       z     vdW  Elec       q    Type
REMARK                         _______ _______ _______ _____ _____    ______ ____
ROOT
ATOM      1  N   UNL     1       1.083  -0.378  -3.948  0.00  0.00    -0.299 N 
ATOM      2  C   UNL     1       1.498   0.899  -4.063  0.00  0.00    +0.224 C 
ATOM      3  O   UNL     1       2.659   1.181  -3.854  0.00  0.00    -0.275 OA
ATOM      4  H   UNL     1       0.155  -0.603  -4.114  0.00  0.00    +0.150 HD
ENDROOT
BRANCH   1   9
ATOM      5  C   UNL     1       1.448  -2.344  -2.515  0.00  0.00    +0.071 C 
ATOM      6  C   UNL     1       1.558  -3.655  -2.696  0.00  0.00    -0.018 C 
ATOM      7  C   UNL     1       2.268  -4.146  -3.944  0.00  0.00    +0.107 C 
ATOM      8  S   UNL     1       2.307  -2.607  -4.960  0.00  0.00    -0.129 S 
ATOM      9  C   UNL     1       2.035  -1.426  -3.572  0.00  0.00    +0.169 C 
BRANCH   6  10
ATOM     10  C   UNL     1       1.007  -4.604  -1.715  0.00  0.00    -0.021 A 
ATOM     11  C   UNL     1       1.529  -4.658  -0.419  0.00  0.00    +0.008 A 
ATOM     12  C   UNL     1       1.008  -5.549   0.494  0.00  0.00    +0.001 A 
ATOM     13  C   UNL     1      -0.030  -6.390   0.131  0.00  0.00    +0.000 A 
ATOM     14  C   UNL     1      -0.552  -6.343  -1.150  0.00  0.00    +0.001 A 
ATOM     15  C   UNL     1      -0.045  -5.453  -2.073  0.00  0.00    +0.008 A 
ENDBRANCH   6  10
BRANCH   5  16
ATOM     16  C   UNL     1       0.776  -1.800  -1.335  0.00  0.00    +0.338 C 
ATOM     17  O   UNL     1       0.312  -2.552  -0.499  0.00  0.00    -0.245 OA
BRANCH  16  18
ATOM     18  O   UNL     1       0.671  -0.465  -1.174  0.00  0.00    -0.462 OA
BRANCH  18  20
ATOM     19  C   UNL     1      -0.019   1.526   0.010  0.00  0.00    +0.048 C 
ATOM     20  C   UNL     1       0.002  -0.004   0.002  0.00  0.00    +0.229 C 
ENDBRANCH  18  20
ENDBRANCH  16  18
ENDBRANCH   5  16
ENDBRANCH   1   9
BRANCH   2  21
ATOM     21  C   UNL     1       0.518   1.978  -4.450  0.00  0.00    +0.174 C 
BRANCH  21  22
ATOM     22  S   UNL     1       1.375   3.575  -4.519  0.00  0.00    -0.056 S 
BRANCH  22  23
ATOM     23  C   UNL     1       0.112   4.716  -4.978  0.00  0.00    +0.278 A 
ATOM     24  N   UNL     1      -1.160   4.425  -5.203  0.00  0.00    -0.101 NA
ATOM     25  N   UNL     1      -1.794   5.500  -5.516  0.00  0.00    -0.107 NA
ATOM     26  C   UNL     1      -0.953   6.522  -5.505  0.00  0.00    +0.248 A 
ATOM     27  O   UNL     1       0.264   6.039  -5.158  0.00  0.00    -0.411 OA
BRANCH  26  28
ATOM     28  C   UNL     1      -1.266   7.859  -5.792  0.00  0.00    +0.044 C 
ATOM     29  C   UNL     1      -2.514   8.377  -6.139  0.00  0.00    +0.008 A 
ATOM     30  C   UNL     1      -3.781   7.780  -6.305  0.00  0.00    +0.010 A 
ATOM     31  C   UNL     1      -4.846   8.546  -6.654  0.00  0.00    +0.001 A 
ATOM     32  C   UNL     1      -4.722   9.923  -6.857  0.00  0.00    +0.002 A 
ATOM     33  C   UNL     1      -3.535  10.562  -6.715  0.00  0.00    +0.026 A 
ATOM     34  C   UNL     1      -2.377   9.828  -6.350  0.00  0.00    +0.043 A 
ATOM     35  N   UNL     1      -1.130  10.207  -6.152  0.00  0.00    -0.380 N 
ATOM     36  C   UNL     1      -0.322   9.041  -5.784  0.00  0.00    +0.154 C 
ATOM     37  H   UNL     1      -0.800  11.116  -6.234  0.00  0.00    +0.160 HD
ENDBRANCH  26  28
ENDBRANCH  22  23
ENDBRANCH  21  22
ENDBRANCH   2  21
TORSDOF 9
