REMARK  Name = ZINC00912749
REMARK  7 active torsions:
REMARK  status: ('A' for Active; 'I' for Inactive)
REMARK    1  A    between atoms: C_3  and  O_41
REMARK    2  A    between atoms: C_6  and  N_7
REMARK    3  A    between atoms: C_12  and  C_14
REMARK    4  A    between atoms: C_12  and  C_29
REMARK    5  A    between atoms: C_12  and  N_68
REMARK    6  A    between atoms: N_33  and  C_34
REMARK    7  A    between atoms: C_34  and  C_35
REMARK                            x       y       z     vdW  Elec       q    Type
REMARK                         _______ _______ _______ _____ _____    ______ ____
ROOT
ATOM      1  C   UNL     1      -1.334   2.138   0.020  0.00  0.00    +0.039 C 
ENDROOT
BRANCH   1   2
ATOM      2  C   UNL     1      -0.017   1.405   0.010  0.00  0.00    +0.011 A 
ATOM      3  C   UNL     1       1.146   2.105   0.002  0.00  0.00    +0.017 A 
ATOM      4  C   UNL     1       2.407   1.365  -0.013  0.00  0.00    +0.002 A 
ATOM      5  C   UNL     1       3.637   2.035  -0.023  0.00  0.00    +0.059 A 
ATOM      6  C   UNL     1       4.809   1.311  -0.036  0.00  0.00    +0.167 A 
ATOM      7  C   UNL     1       4.773  -0.090  -0.040  0.00  0.00    +0.168 A 
ATOM      8  C   UNL     1       3.563  -0.759  -0.031  0.00  0.00    +0.075 A 
ATOM      9  C   UNL     1       2.373  -0.043  -0.019  0.00  0.00    +0.053 A 
ATOM     10  N   UNL     1       1.156  -0.694  -0.012  0.00  0.00    -0.322 N 
ATOM     11  H   UNL     1       1.132  -1.694  -0.017  0.00  0.00    +0.169 HD
ATOM     12  C   UNL     1       0.002  -0.004   0.002  0.00  0.00    +0.251 A 
ATOM     13  O   UNL     1      -1.054  -0.613   0.008  0.00  0.00    -0.268 OA
ATOM     14  O   UNL     1       6.056  -0.555  -0.052  0.00  0.00    -0.453 OA
ATOM     15  C   UNL     1       6.874   0.557   0.358  0.00  0.00    +0.466 C 
ATOM     16  O   UNL     1       6.115   1.711  -0.047  0.00  0.00    -0.453 OA
ENDBRANCH   1   2
BRANCH   1  22
ATOM     17  N   UNL     1      -3.587   2.013  -3.551  0.00  0.00    -0.333 N 
ATOM     18  C   UNL     1      -4.301   1.831  -2.280  0.00  0.00    +0.086 C 
ATOM     19  C   UNL     1      -3.448   2.383  -1.135  0.00  0.00    -0.058 C 
ATOM     20  C   UNL     1      -1.439   1.870  -2.385  0.00  0.00    -0.058 C 
ATOM     21  C   UNL     1      -2.292   1.318  -3.529  0.00  0.00    +0.086 C 
ATOM     22  N   UNL     1      -2.159   1.661  -1.111  0.00  0.00    +0.391 N 
ATOM     23  H   UNL     1      -2.340   0.657  -0.991  0.00  0.00    -0.080 HD
BRANCH  17  29
ATOM     24  C   UNL     1      -5.636   1.065  -4.408  0.00  0.00    +0.026 A 
ATOM     25  C   UNL     1      -6.408   0.648  -5.474  0.00  0.00    +0.047 A 
ATOM     26  C   UNL     1      -5.913   0.737  -6.767  0.00  0.00    +0.117 A 
ATOM     27  C   UNL     1      -4.643   1.249  -6.990  0.00  0.00    +0.047 A 
ATOM     28  C   UNL     1      -3.872   1.672  -5.925  0.00  0.00    +0.026 A 
ATOM     29  C   UNL     1      -4.368   1.584  -4.631  0.00  0.00    +0.030 A 
BRANCH  26  30
ATOM     30  O   UNL     1      -6.671   0.320  -7.816  0.00  0.00    -0.507 OA
ATOM     31  H   UNL     1      -6.550  -0.612  -8.043  0.00  0.00    +0.292 HD
ENDBRANCH  26  30
ENDBRANCH  17  29
ENDBRANCH   1  22
BRANCH   1  32
ATOM     32  C   UNL     1      -2.059   1.851   1.310  0.00  0.00    +0.143 A 
ATOM     33  N   UNL     1      -2.684   0.743   1.626  0.00  0.00    -0.115 NA
ATOM     34  N   UNL     1      -3.171   0.885   2.810  0.00  0.00    -0.023 NA
ATOM     35  N   UNL     1      -2.880   2.058   3.254  0.00  0.00    -0.044 NA
ATOM     36  N   UNL     1      -2.195   2.684   2.358  0.00  0.00    -0.228 N 
BRANCH  36  37
ATOM     37  C   UNL     1      -1.664   4.045   2.462  0.00  0.00    +0.178 C 
BRANCH  37  38
ATOM     38  C   UNL     1      -2.698   5.038   1.927  0.00  0.00    +0.140 C 
ATOM     39  C   UNL     1      -2.179   6.490   2.078  0.00  0.00    +0.035 C 
ATOM     40  C   UNL     1      -2.986   7.210   0.964  0.00  0.00    +0.031 C 
ATOM     41  C   UNL     1      -3.090   6.118  -0.123  0.00  0.00    +0.160 C 
ATOM     42  O   UNL     1      -2.885   4.852   0.515  0.00  0.00    -0.375 OA
ENDBRANCH  37  38
ENDBRANCH  36  37
ENDBRANCH   1  32
TORSDOF 7
