REMARK  Name = ZINC09391889
REMARK  8 active torsions:
REMARK  status: ('A' for Active; 'I' for Inactive)
REMARK    1  A    between atoms: C_7  and  S_22
REMARK    2  A    between atoms: N_9  and  C_10
REMARK    3  A    between atoms: C_10  and  C_11
REMARK    4  A    between atoms: C_11  and  N_12
REMARK    5  A    between atoms: C_13  and  C_15
REMARK    6  A    between atoms: S_22  and  C_23
REMARK    7  A    between atoms: C_23  and  C_24
REMARK    8  A    between atoms: N_26  and  C_27
REMARK                            x       y       z     vdW  Elec       q    Type
REMARK                         _______ _______ _______ _____ _____    ______ ____
ROOT
ATOM      1  C   UNL     1       9.716  -6.579   6.827  0.00  0.00    +0.001 A 
ATOM      2  C   UNL     1      10.940  -6.069   7.240  0.00  0.00    +0.002 A 
ATOM      3  C   UNL     1      11.304  -4.778   6.929  0.00  0.00    +0.026 A 
ATOM      4  C   UNL     1      10.440  -3.974   6.192  0.00  0.00    +0.050 A 
ATOM      5  C   UNL     1       9.199  -4.494   5.780  0.00  0.00    +0.013 A 
ATOM      6  C   UNL     1       8.852  -5.807   6.103  0.00  0.00    +0.011 A 
ATOM      7  C   UNL     1       8.534  -3.419   5.034  0.00  0.00    +0.034 A 
ATOM      8  C   UNL     1       9.366  -2.360   5.044  0.00  0.00    +0.101 A 
ATOM      9  N   UNL     1      10.513  -2.678   5.735  0.00  0.00    -0.344 N 
ENDROOT
BRANCH   9  10
ATOM     10  C   UNL     1      11.643  -1.771   5.952  0.00  0.00    +0.140 C 
BRANCH  10  11
ATOM     11  C   UNL     1      12.702  -2.009   4.874  0.00  0.00    +0.126 C 
BRANCH  11  12
ATOM     12  N   UNL     1      13.832  -1.103   5.091  0.00  0.00    -0.310 N 
ATOM     13  C   UNL     1      14.891  -1.134   4.258  0.00  0.00    +0.244 C 
ATOM     14  O   UNL     1      14.908  -1.914   3.326  0.00  0.00    -0.270 OA
ATOM     15  H   UNL     1      13.819  -0.480   5.835  0.00  0.00    +0.149 HD
BRANCH  13  16
ATOM     16  C   UNL     1      16.031  -0.219   4.476  0.00  0.00    +0.037 A 
ATOM     17  C   UNL     1      16.012   0.682   5.542  0.00  0.00    +0.014 A 
ATOM     18  C   UNL     1      17.081   1.529   5.745  0.00  0.00    +0.021 A 
ATOM     19  C   UNL     1      18.168   1.495   4.887  0.00  0.00    +0.041 A 
ATOM     20  C   UNL     1      18.190   0.607   3.824  0.00  0.00    +0.021 A 
ATOM     21  C   UNL     1      17.129  -0.249   3.615  0.00  0.00    +0.014 A 
ATOM     22 CL   UNL     1      19.507   2.568   5.145  0.00  0.00    -0.084 Cl
ENDBRANCH  13  16
ENDBRANCH  11  12
ENDBRANCH  10  11
ENDBRANCH   9  10
BRANCH   7  23
ATOM     23  S   UNL     1       6.946  -3.497   4.275  0.00  0.00    -0.114 S 
BRANCH  23  24
ATOM     24  C   UNL     1       6.729  -1.853   3.541  0.00  0.00    +0.170 C 
BRANCH  24  25
ATOM     25  C   UNL     1       5.391  -1.784   2.850  0.00  0.00    +0.227 C 
ATOM     26  O   UNL     1       4.656  -2.749   2.853  0.00  0.00    -0.275 OA
ATOM     27  N   UNL     1       5.011  -0.649   2.229  0.00  0.00    -0.285 N 
ATOM     28  H   UNL     1       5.628   0.096   2.160  0.00  0.00    +0.155 HD
BRANCH  27  29
ATOM     29  C   UNL     1       3.725  -0.547   1.683  0.00  0.00    +0.037 A 
ATOM     30  C   UNL     1       2.658  -1.191   2.294  0.00  0.00    +0.027 A 
ATOM     31  C   UNL     1       1.388  -1.090   1.757  0.00  0.00    +0.051 A 
ATOM     32  C   UNL     1       1.177  -0.347   0.608  0.00  0.00    +0.166 A 
ATOM     33  C   UNL     1       2.246   0.301  -0.008  0.00  0.00    +0.168 A 
ATOM     34  C   UNL     1       3.517   0.199   0.531  0.00  0.00    +0.072 A 
ATOM     35  O   UNL     1       1.781   0.959  -1.110  0.00  0.00    -0.453 OA
ATOM     36  C   UNL     1       0.355   1.044  -0.934  0.00  0.00    +0.466 C 
ATOM     37  O   UNL     1       0.043  -0.094  -0.110  0.00  0.00    -0.453 OA
ENDBRANCH  27  29
ENDBRANCH  24  25
ENDBRANCH  23  24
ENDBRANCH   7  23
TORSDOF 8
