REMARK  Name = ZINC16453095
REMARK  6 active torsions:
REMARK  status: ('A' for Active; 'I' for Inactive)
REMARK    1  A    between atoms: C_1  and  C_2
REMARK    2  A    between atoms: C_2  and  C_3
REMARK    3  A    between atoms: C_2  and  N_4
REMARK    4  A    between atoms: C_5  and  S_9
REMARK    5  A    between atoms: S_9  and  C_10
REMARK    6  A    between atoms: C_10  and  N_11
REMARK                            x       y       z     vdW  Elec       q    Type
REMARK                         _______ _______ _______ _____ _____    ______ ____
ROOT
ATOM      1  N   UNL     1      -3.578  -0.906   3.644  0.00  0.00    -0.224 N 
ATOM      2  C   UNL     1      -4.144   0.303   3.804  0.00  0.00    +0.255 C 
ATOM      3  O   UNL     1      -3.565   1.321   4.127  0.00  0.00    -0.270 OA
ATOM      4  C   UNL     1      -5.590   0.188   3.516  0.00  0.00    +0.049 A 
ATOM      5  C   UNL     1      -6.651   1.080   3.516  0.00  0.00    +0.014 A 
ATOM      6  C   UNL     1      -7.923   0.634   3.194  0.00  0.00    +0.001 A 
ATOM      7  C   UNL     1      -8.140  -0.694   2.875  0.00  0.00    +0.001 A 
ATOM      8  C   UNL     1      -7.089  -1.597   2.872  0.00  0.00    +0.014 A 
ATOM      9  C   UNL     1      -5.811  -1.165   3.191  0.00  0.00    +0.049 A 
ATOM     10  C   UNL     1      -4.492  -1.825   3.286  0.00  0.00    +0.255 C 
ATOM     11  O   UNL     1      -4.271  -3.001   3.077  0.00  0.00    -0.270 OA
ENDROOT
BRANCH   1  12
ATOM     12  C   UNL     1      -2.153  -1.186   3.839  0.00  0.00    +0.194 C 
BRANCH  12  13
ATOM     13  S   UNL     1      -1.272  -0.955   2.275  0.00  0.00    -0.065 S 
BRANCH  13  15
ATOM     14  N   UNL     1      -0.698   1.558   1.213  0.00  0.00    -0.218 N 
ATOM     15  C   UNL     1      -1.246   0.805   2.196  0.00  0.00    +0.211 A 
ATOM     16  N   UNL     1      -1.754   1.635   3.082  0.00  0.00    -0.101 NA
ATOM     17  N   UNL     1      -1.562   2.852   2.720  0.00  0.00    -0.022 NA
ATOM     18  N   UNL     1      -0.924   2.891   1.600  0.00  0.00    -0.043 NA
BRANCH  14  20
ATOM     19  C   UNL     1       1.423   1.615  -0.003  0.00  0.00    +0.032 C 
ATOM     20  C   UNL     1      -0.013   1.086   0.008  0.00  0.00    +0.106 C 
ATOM     21  C   UNL     1      -0.753   1.593  -1.232  0.00  0.00    +0.032 C 
ENDBRANCH  14  20
ENDBRANCH  13  15
ENDBRANCH  12  13
ENDBRANCH   1  12
TORSDOF 4
