REMARK  Name = ZINC37929869
REMARK  5 active torsions:
REMARK  status: ('A' for Active; 'I' for Inactive)
REMARK    1  A    between atoms: C_1  and  C_2
REMARK    2  A    between atoms: C_7  and  N_8
REMARK    3  A    between atoms: N_8  and  S_9
REMARK    4  A    between atoms: S_9  and  C_12
REMARK    5  A    between atoms: C_17  and  N_18
REMARK                            x       y       z     vdW  Elec       q    Type
REMARK                         _______ _______ _______ _____ _____    ______ ____
ROOT
ATOM      1  S   UNL     1       0.776  -0.682   3.812  0.00  0.00    +0.074 S 
ATOM      2  O   UNL     1       0.571   0.106   4.976  0.00  0.00    -0.150 OA
ATOM      3  O   UNL     1       0.380  -2.045   3.734  0.00  0.00    -0.150 OA
ENDROOT
BRANCH   1   4
ATOM      4  C   UNL     1       2.505  -0.641   3.475  0.00  0.00    +0.130 A 
ATOM      5  C   UNL     1       3.193  -1.817   3.249  0.00  0.00    +0.050 A 
ATOM      6  C   UNL     1       4.551  -1.786   2.984  0.00  0.00    +0.043 A 
ATOM      7  C   UNL     1       5.223  -0.577   2.945  0.00  0.00    +0.022 A 
ATOM      8  C   UNL     1       4.541   0.602   3.171  0.00  0.00    +0.026 A 
ATOM      9  C   UNL     1       3.176   0.574   3.431  0.00  0.00    +0.052 A 
ATOM     10 CL   UNL     1       5.413  -3.266   2.700  0.00  0.00    -0.083 Cl
BRANCH   9  11
ATOM     11  N   UNL     1       2.481   1.766   3.654  0.00  0.00    -0.356 N 
ATOM     12  H   UNL     1       1.516   1.754   3.746  0.00  0.00    +0.142 HD
ATOM     13  H   UNL     1       2.965   2.604   3.717  0.00  0.00    +0.142 HD
ENDBRANCH   9  11
ENDBRANCH   1   4
BRANCH   1  14
ATOM     14  N   UNL     1       0.016   0.104   2.568  0.00  0.00    -0.216 N 
ATOM     15  H   UNL     1      -0.522   0.890   2.748  0.00  0.00    +0.174 HD
BRANCH  14  22
ATOM     16  C   UNL     1       0.112   2.012   0.461  0.00  0.00    +0.046 C 
ATOM     17  C   UNL     1       0.201   0.530   0.200  0.00  0.00    -0.028 A 
ATOM     18  C   UNL     1       0.339   0.063  -1.093  0.00  0.00    +0.006 A 
ATOM     19  C   UNL     1       0.421  -1.296  -1.333  0.00  0.00    +0.015 A 
ATOM     20  C   UNL     1       0.365  -2.193  -0.281  0.00  0.00    +0.020 A 
ATOM     21  C   UNL     1       0.227  -1.732   1.015  0.00  0.00    +0.040 A 
ATOM     22  C   UNL     1       0.150  -0.366   1.260  0.00  0.00    +0.052 A 
ATOM     23 BR   UNL     1       0.478  -4.051  -0.615  0.00  0.00    -0.050 Br
ENDBRANCH  14  22
ENDBRANCH   1  14
TORSDOF 4
