REMARK  Name = ZINC00727870
REMARK  7 active torsions:
REMARK  status: ('A' for Active; 'I' for Inactive)
REMARK    1  A    between atoms: C_1  and  C_2
REMARK    2  A    between atoms: C_3  and  C_28
REMARK    3  A    between atoms: C_4  and  C_10
REMARK    4  A    between atoms: N_12  and  C_22
REMARK    5  A    between atoms: C_14  and  C_15
REMARK    6  A    between atoms: C_28  and  O_30
REMARK    7  A    between atoms: O_30  and  C_31
REMARK                            x       y       z     vdW  Elec       q    Type
REMARK                         _______ _______ _______ _____ _____    ______ ____
ROOT
ATOM      1  C   UNL     1      -1.677  -2.851   1.194  0.00  0.00    +0.023 A 
ATOM      2  C   UNL     1      -1.126  -2.886   2.427  0.00  0.00    +0.121 A 
ATOM      3  N   UNL     1      -2.135  -2.966   3.333  0.00  0.00    -0.239 N 
ATOM      4  N   UNL     1      -3.347  -2.982   2.631  0.00  0.00    -0.166 NA
ATOM      5  C   UNL     1      -3.077  -2.906   1.345  0.00  0.00    +0.098 A 
ENDROOT
BRANCH   1   9
ATOM      6  C   UNL     1       2.921  -2.694   0.085  0.00  0.00    +0.061 C 
ATOM      7  C   UNL     1       1.500  -3.109  -0.196  0.00  0.00    +0.021 C 
ATOM      8  C   UNL     1       0.485  -2.308   0.192  0.00  0.00    +0.078 C 
ATOM      9  C   UNL     1      -0.928  -2.763  -0.111  0.00  0.00    +0.147 C 
ATOM     10  N   UNL     1      -1.079  -4.051  -0.808  0.00  0.00    -0.288 N 
ATOM     11  C   UNL     1       0.033  -4.739  -1.132  0.00  0.00    +0.304 C 
ATOM     12  O   UNL     1      -0.081  -5.804  -1.708  0.00  0.00    -0.252 OA
ATOM     13  N   UNL     1       1.260  -4.287  -0.845  0.00  0.00    -0.273 N 
ATOM     14  H   UNL     1      -1.959  -4.396  -1.029  0.00  0.00    +0.151 HD
ATOM     15  H   UNL     1       2.021  -4.827  -1.108  0.00  0.00    +0.156 HD
BRANCH   8  16
ATOM     16  C   UNL     1       0.732  -1.085   0.859  0.00  0.00    +0.338 C 
ATOM     17  O   UNL     1       1.867  -0.787   1.182  0.00  0.00    -0.245 OA
BRANCH  16  18
ATOM     18  O   UNL     1      -0.290  -0.249   1.137  0.00  0.00    -0.465 OA
ATOM     19  C   UNL     1       0.014   0.913   1.910  0.00  0.00    +0.280 C 
ENDBRANCH  16  18
ENDBRANCH   8  16
ENDBRANCH   1   9
BRANCH   5  20
ATOM     20  C   UNL     1      -4.073  -2.888   0.245  0.00  0.00    +0.003 A 
ATOM     21  C   UNL     1      -3.913  -2.013  -0.828  0.00  0.00    +0.011 A 
ATOM     22  C   UNL     1      -4.842  -2.000  -1.848  0.00  0.00    +0.016 A 
ATOM     23  C   UNL     1      -5.931  -2.853  -1.807  0.00  0.00    +0.018 A 
ATOM     24  C   UNL     1      -6.095  -3.723  -0.743  0.00  0.00    +0.016 A 
ATOM     25  C   UNL     1      -5.168  -3.748   0.279  0.00  0.00    +0.011 A 
ATOM     26 BR   UNL     1      -7.201  -2.829  -3.208  0.00  0.00    -0.050 Br
ENDBRANCH   5  20
BRANCH   3  27
ATOM     27  C   UNL     1      -1.988  -3.024   4.725  0.00  0.00    +0.065 A 
ATOM     28  C   UNL     1      -0.722  -2.995   5.293  0.00  0.00    +0.028 A 
ATOM     29  C   UNL     1      -0.581  -3.052   6.666  0.00  0.00    +0.002 A 
ATOM     30  C   UNL     1      -1.700  -3.138   7.474  0.00  0.00    +0.000 A 
ATOM     31  C   UNL     1      -2.962  -3.167   6.912  0.00  0.00    +0.002 A 
ATOM     32  C   UNL     1      -3.110  -3.105   5.540  0.00  0.00    +0.028 A 
ENDBRANCH   3  27
TORSDOF 5
