REMARK  Name = ZINC12403517
REMARK  10 active torsions:
REMARK  status: ('A' for Active; 'I' for Inactive)
REMARK    1  A    between atoms: C_1  and  C_2
REMARK    2  A    between atoms: C_5  and  C_9
REMARK    3  A    between atoms: N_11  and  N_12
REMARK    4  A    between atoms: C_13  and  C_15
REMARK    5  A    between atoms: C_15  and  O_16
REMARK    6  A    between atoms: O_16  and  C_17
REMARK    7  A    between atoms: C_20  and  C_24
REMARK    8  A    between atoms: C_24  and  C_25
REMARK    9  A    between atoms: C_24  and  C_26
REMARK   10  A    between atoms: C_24  and  C_27
REMARK                            x       y       z     vdW  Elec       q    Type
REMARK                         _______ _______ _______ _____ _____    ______ ____
ROOT
ATOM      1  N   UNL     1       2.088   4.348   0.005  0.00  0.00    -0.231 N 
ATOM      2  C   UNL     1       1.030   3.512   0.011  0.00  0.00    +0.267 C 
ATOM      3  O   UNL     1      -0.097   3.960   0.024  0.00  0.00    -0.271 OA
ATOM      4  H   UNL     1       2.989   3.989  -0.005  0.00  0.00    +0.173 HD
ENDROOT
BRANCH   1   7
ATOM      5  C   UNL     1       2.943   6.569   0.009  0.00  0.00    +0.260 C 
ATOM      6  O   UNL     1       4.072   6.120  -0.004  0.00  0.00    -0.269 OA
ATOM      7  N   UNL     1       1.885   5.734   0.015  0.00  0.00    -0.230 N 
ATOM      8  H   UNL     1       0.984   6.092   0.025  0.00  0.00    +0.173 HD
BRANCH   5  13
ATOM      9  C   UNL     1       2.110  12.264   0.049  0.00  0.00    +0.045 C 
ATOM     10  C   UNL     1       2.328  10.773   0.038  0.00  0.00    -0.036 A 
ATOM     11  C   UNL     1       1.241   9.917   0.044  0.00  0.00    +0.005 A 
ATOM     12  C   UNL     1       1.434   8.551   0.029  0.00  0.00    +0.013 A 
ATOM     13  C   UNL     1       2.729   8.032   0.019  0.00  0.00    +0.039 A 
ATOM     14  C   UNL     1       3.822   8.900   0.013  0.00  0.00    +0.028 A 
ATOM     15  C   UNL     1       3.616  10.265   0.023  0.00  0.00    +0.021 A 
ATOM     16 BR   UNL     1       5.095  11.443   0.015  0.00  0.00    -0.050 Br
ENDBRANCH   5  13
ENDBRANCH   1   7
BRANCH   2  17
ATOM     17  C   UNL     1       1.248   2.021   0.001  0.00  0.00    +0.326 C 
BRANCH  17  18
ATOM     18  O   UNL     1      -0.016   1.355   0.009  0.00  0.00    -0.482 OA
BRANCH  18  19
ATOM     19  C   UNL     1       0.002  -0.004   0.002  0.00  0.00    +0.135 A 
ATOM     20  C   UNL     1       1.212  -0.682  -0.013  0.00  0.00    +0.047 A 
ATOM     21  C   UNL     1       1.228  -2.064  -0.020  0.00  0.00    +0.008 A 
ATOM     22  C   UNL     1       0.040  -2.771  -0.012  0.00  0.00    -0.041 A 
ATOM     23  C   UNL     1      -1.168  -2.098   0.004  0.00  0.00    +0.023 A 
ATOM     24  C   UNL     1      -1.190  -0.716   0.015  0.00  0.00    +0.060 A 
ATOM     25 BR   UNL     1      -2.841   0.205   0.043  0.00  0.00    -0.047 Br
BRANCH  22  26
ATOM     26  C   UNL     1       0.061  -4.278  -0.019  0.00  0.00    -0.013 C 
ATOM     27  C   UNL     1       0.802  -4.783   1.220  0.00  0.00    +0.015 C 
ATOM     28  C   UNL     1      -1.374  -4.808  -0.007  0.00  0.00    +0.015 C 
ATOM     29  C   UNL     1       0.777  -4.771  -1.278  0.00  0.00    +0.015 C 
ENDBRANCH  22  26
ENDBRANCH  18  19
ENDBRANCH  17  18
ENDBRANCH   2  17
TORSDOF 6
