REMARK  Name = ZINC04176316
REMARK  5 active torsions:
REMARK  status: ('A' for Active; 'I' for Inactive)
REMARK    1  A    between atoms: C_1  and  C_2
REMARK    2  A    between atoms: C_2  and  C_3
REMARK    3  A    between atoms: C_6  and  N_9
REMARK    4  A    between atoms: C_23  and  C_26
REMARK    5  A    between atoms: C_23  and  N_67
REMARK                            x       y       z     vdW  Elec       q    Type
REMARK                         _______ _______ _______ _____ _____    ______ ____
ROOT
ATOM      1  N   UNL     1       5.252   0.120   6.550  0.00  0.00    -0.248 N 
ATOM      2  C   UNL     1       6.036  -0.192   7.607  0.00  0.00    +0.267 A 
ATOM      3  O   UNL     1       5.984   0.447   8.642  0.00  0.00    -0.267 OA
ATOM      4  C   UNL     1       6.953  -1.330   7.460  0.00  0.00    +0.065 A 
ATOM      5  C   UNL     1       7.801  -1.731   8.492  0.00  0.00    +0.015 A 
ATOM      6  C   UNL     1       8.635  -2.798   8.302  0.00  0.00    +0.001 A 
ATOM      7  C   UNL     1       8.645  -3.485   7.094  0.00  0.00    +0.002 A 
ATOM      8  C   UNL     1       7.825  -3.113   6.067  0.00  0.00    +0.028 A 
ATOM      9  C   UNL     1       6.961  -2.026   6.230  0.00  0.00    +0.080 A 
ATOM     10  N   UNL     1       6.127  -1.627   5.241  0.00  0.00    -0.215 NA
ATOM     11  C   UNL     1       5.322  -0.606   5.394  0.00  0.00    +0.206 A 
ATOM     12  N   UNL     1       4.507  -0.253   4.348  0.00  0.00    -0.301 N 
ATOM     13  C   UNL     1       5.081  -0.680   3.066  0.00  0.00    +0.107 C 
ATOM     14  C   UNL     1       4.223  -0.144   1.918  0.00  0.00    +0.016 C 
ATOM     15  C   UNL     1       2.795  -0.678   2.062  0.00  0.00    +0.015 C 
ATOM     16  C   UNL     1       2.238  -0.260   3.426  0.00  0.00    +0.016 C 
ATOM     17  C   UNL     1       3.154  -0.793   4.530  0.00  0.00    +0.107 C 
ENDROOT
BRANCH  15  23
ATOM     18  C   UNL     1       0.595  -0.677   1.053  0.00  0.00    -0.077 C 
ATOM     19  C   UNL     1      -0.209  -0.188  -0.154  0.00  0.00    -0.019 C 
ATOM     20  C   UNL     1      -0.264   1.342  -0.138  0.00  0.00    -0.004 C 
ATOM     21  C   UNL     1       1.163   1.896  -0.149  0.00  0.00    -0.019 C 
ATOM     22  C   UNL     1       1.928   1.347   1.057  0.00  0.00    -0.077 C 
ATOM     23  N   UNL     1       1.965  -0.129   0.970  0.00  0.00    +0.389 N 
ATOM     24  H   UNL     1       2.378  -0.399   0.070  0.00  0.00    -0.080 HD
ENDBRANCH  15  23
BRANCH   1  28
ATOM     25  C   UNL     1       2.602   3.326   6.818  0.00  0.00    -0.047 A 
ATOM     26  C   UNL     1       2.393   2.193   7.583  0.00  0.00    +0.005 A 
ATOM     27  C   UNL     1       3.270   1.129   7.496  0.00  0.00    +0.026 A 
ATOM     28  C   UNL     1       4.361   1.198   6.640  0.00  0.00    +0.053 A 
ATOM     29  C   UNL     1       4.570   2.339   5.877  0.00  0.00    +0.026 A 
ATOM     30  C   UNL     1       3.687   3.398   5.965  0.00  0.00    +0.005 A 
BRANCH  25  32
ATOM     31  C   UNL     1       2.114   5.446   8.008  0.00  0.00    +0.009 C 
ATOM     32  C   UNL     1       1.643   4.485   6.915  0.00  0.00    +0.032 C 
ENDBRANCH  25  32
ENDBRANCH   1  28
BRANCH  15  33
ATOM     33  C   UNL     1       2.807  -2.182   1.960  0.00  0.00    +0.200 C 
ATOM     34  O   UNL     1       2.779  -2.857   2.967  0.00  0.00    -0.278 OA
ATOM     35  N   UNL     1       2.848  -2.775   0.751  0.00  0.00    -0.330 N 
ATOM     36  H   UNL     1       2.942  -2.236  -0.050  0.00  0.00    +0.145 HD
ATOM     37  H   UNL     1       2.784  -3.740   0.682  0.00  0.00    +0.145 HD
ENDBRANCH  15  33
TORSDOF 4
