REMARK  Name = ZINC00928071
REMARK  11 active torsions:
REMARK  status: ('A' for Active; 'I' for Inactive)
REMARK    1  A    between atoms: C_1  and  C_2
REMARK    2  A    between atoms: C_2  and  O_3
REMARK    3  A    between atoms: O_3  and  C_4
REMARK    4  A    between atoms: C_11  and  C_16
REMARK    5  A    between atoms: C_16  and  N_17
REMARK    6  A    between atoms: N_17  and  C_18
REMARK    7  A    between atoms: N_17  and  C_31
REMARK    8  A    between atoms: C_18  and  C_19
REMARK    9  A    between atoms: N_23  and  C_24
REMARK   10  A    between atoms: C_24  and  C_25
REMARK   11  A    between atoms: C_31  and  C_32
REMARK                            x       y       z     vdW  Elec       q    Type
REMARK                         _______ _______ _______ _____ _____    ______ ____
ROOT
ATOM      1  N   UNL     1       1.867  -6.017   5.005  0.00  0.00    +0.389 N 
ATOM      2  H   UNL     1       1.447  -5.119   5.192  0.00  0.00    -0.081 HD
ENDROOT
BRANCH   1   3
ATOM      3  C   UNL     1       2.862  -5.880   3.934  0.00  0.00    -0.037 C 
BRANCH   3  11
ATOM      4  C   UNL     1       1.098  -1.457  -0.035  0.00  0.00    +0.121 A 
ATOM      5  C   UNL     1       0.432  -2.305  -0.917  0.00  0.00    +0.047 A 
ATOM      6  C   UNL     1       0.375  -3.660  -0.680  0.00  0.00    +0.030 A 
ATOM      7  C   UNL     1       0.985  -4.194   0.451  0.00  0.00    +0.049 A 
ATOM      8  C   UNL     1       1.659  -3.341   1.345  0.00  0.00    +0.002 A 
ATOM      9  C   UNL     1       1.715  -1.967   1.089  0.00  0.00    +0.055 A 
ATOM     10  C   UNL     1       2.297  -3.917   2.530  0.00  0.00    +0.017 A 
ATOM     11  C   UNL     1       2.216  -5.256   2.724  0.00  0.00    +0.001 A 
ATOM     12  C   UNL     1       1.528  -6.068   1.797  0.00  0.00    +0.251 A 
ATOM     13  O   UNL     1       1.467  -7.270   1.991  0.00  0.00    -0.268 OA
ATOM     14  N   UNL     1       0.939  -5.550   0.706  0.00  0.00    -0.322 N 
ATOM     15  H   UNL     1       0.474  -6.137   0.089  0.00  0.00    +0.169 HD
BRANCH   4  16
ATOM     16  O   UNL     1       1.145  -0.122  -0.285  0.00  0.00    -0.492 OA
BRANCH  16  18
ATOM     17  C   UNL     1       0.646   1.858  -1.579  0.00  0.00    +0.048 C 
ATOM     18  C   UNL     1       0.486   0.341  -1.466  0.00  0.00    +0.225 C 
ENDBRANCH  16  18
ENDBRANCH   4  16
ENDBRANCH   3  11
ENDBRANCH   1   3
BRANCH   1  19
ATOM     19  C   UNL     1       2.522  -6.513   6.223  0.00  0.00    +0.001 C 
BRANCH  19  20
ATOM     20  C   UNL     1       3.516  -5.491   6.711  0.00  0.00    +0.135 A 
ATOM     21  N   UNL     1       4.763  -5.366   6.328  0.00  0.00    -0.115 NA
ATOM     22  N   UNL     1       5.280  -4.378   6.973  0.00  0.00    -0.023 NA
ATOM     23  N   UNL     1       4.395  -3.869   7.757  0.00  0.00    -0.044 NA
ATOM     24  N   UNL     1       3.292  -4.524   7.620  0.00  0.00    -0.227 N 
BRANCH  24  25
ATOM     25  C   UNL     1       2.034  -4.266   8.325  0.00  0.00    +0.182 C 
BRANCH  25  26
ATOM     26  C   UNL     1       2.067  -4.940   9.673  0.00  0.00    -0.026 A 
ATOM     27  C   UNL     1       1.614  -6.239   9.807  0.00  0.00    +0.005 A 
ATOM     28  C   UNL     1       1.643  -6.857  11.043  0.00  0.00    +0.000 A 
ATOM     29  C   UNL     1       2.126  -6.176  12.145  0.00  0.00    +0.000 A 
ATOM     30  C   UNL     1       2.580  -4.877  12.011  0.00  0.00    +0.000 A 
ATOM     31  C   UNL     1       2.554  -4.261  10.774  0.00  0.00    +0.005 A 
ENDBRANCH  25  26
ENDBRANCH  24  25
ENDBRANCH  19  20
ENDBRANCH   1  19
BRANCH   1  32
ATOM     32  C   UNL     1       0.826  -6.966   4.588  0.00  0.00    -0.046 C 
BRANCH  32  33
ATOM     33  C   UNL     1      -0.272  -7.019   5.652  0.00  0.00    +0.102 C 
ATOM     34  C   UNL     1      -1.354  -8.039   5.238  0.00  0.00    +0.032 C 
ATOM     35  C   UNL     1      -2.663  -7.327   5.676  0.00  0.00    +0.030 C 
ATOM     36  C   UNL     1      -2.294  -5.845   5.414  0.00  0.00    +0.160 C 
ATOM     37  O   UNL     1      -0.903  -5.738   5.764  0.00  0.00    -0.378 OA
ENDBRANCH  32  33
ENDBRANCH   1  32
TORSDOF 10
