REMARK  Name = ZINC04205804
REMARK  3 active torsions:
REMARK  status: ('A' for Active; 'I' for Inactive)
REMARK    1  A    between atoms: C_4  and  N_7
REMARK    2  A    between atoms: N_7  and  C_8
REMARK    3  A    between atoms: C_11  and  C_13
REMARK                            x       y       z     vdW  Elec       q    Type
REMARK                         _______ _______ _______ _____ _____    ______ ____
ROOT
ATOM      1  N   UNL     1      -4.192   0.747   0.076  0.00  0.00    -0.271 N 
ATOM      2  C   UNL     1      -4.966   0.351  -0.955  0.00  0.00    +0.234 C 
ATOM      3  O   UNL     1      -4.489   0.242  -2.064  0.00  0.00    -0.274 OA
ENDROOT
BRANCH   1   7
ATOM      4  C   UNL     1      -0.130   1.560  -0.521  0.00  0.00    +0.004 C 
ATOM      5  C   UNL     1      -1.065   1.836  -1.705  0.00  0.00    +0.006 C 
ATOM      6  C   UNL     1      -2.323   0.982  -1.539  0.00  0.00    +0.051 C 
ATOM      7  C   UNL     1      -2.877   1.143  -0.153  0.00  0.00    +0.010 C 
ATOM      8  C   UNL     1      -2.201   1.632   0.849  0.00  0.00    -0.008 C 
ATOM      9  C   UNL     1      -0.777   2.109   0.752  0.00  0.00    +0.029 C 
ENDBRANCH   1   7
BRANCH   1  10
ATOM     10  C   UNL     1      -4.735   0.761   1.436  0.00  0.00    +0.081 C 
ATOM     11  C   UNL     1      -3.900   0.105   2.537  0.00  0.00    +0.025 C 
ATOM     12  C   UNL     1      -5.176  -0.576   2.035  0.00  0.00    +0.025 C 
ENDBRANCH   1  10
BRANCH   2  13
ATOM     13  C   UNL     1      -6.423   0.043  -0.728  0.00  0.00    +0.204 C 
ATOM     14 CL   UNL     1      -7.216  -0.311  -2.308  0.00  0.00    -0.116 Cl
ENDBRANCH   2  13
TORSDOF 3
