REMARK  Name = ZINC26964550
REMARK  8 active torsions:
REMARK  status: ('A' for Active; 'I' for Inactive)
REMARK    1  A    between atoms: C_4  and  C_7
REMARK    2  A    between atoms: C_7  and  C_8
REMARK    3  A    between atoms: C_8  and  N_9
REMARK    4  A    between atoms: C_10  and  C_12
REMARK    5  A    between atoms: C_12  and  N_27
REMARK    6  A    between atoms: C_13  and  C_14
REMARK    7  A    between atoms: C_17  and  C_19
REMARK    8  A    between atoms: C_28  and  C_30
REMARK                            x       y       z     vdW  Elec       q    Type
REMARK                         _______ _______ _______ _____ _____    ______ ____
ROOT
ATOM      1  C   UNL     1       1.240   1.637  -0.005  0.00  0.00    +0.100 C 
ATOM      2  C   UNL     1       2.358   0.863   0.061  0.00  0.00    +0.074 C 
ENDROOT
BRANCH   2   3
ATOM      3  C   UNL     1       3.636   1.456  -0.049  0.00  0.00    +0.131 A 
ATOM      4  C   UNL     1       4.843   0.783  -0.089  0.00  0.00    +0.050 A 
ATOM      5  C   UNL     1       5.842   1.754  -0.206  0.00  0.00    +0.050 A 
ATOM      6  C   UNL     1       5.221   2.971  -0.223  0.00  0.00    +0.137 A 
ATOM      7  O   UNL     1       3.893   2.779  -0.129  0.00  0.00    -0.455 OA
BRANCH   6   8
ATOM      8  C   UNL     1       5.896   4.279  -0.328  0.00  0.00    +0.036 A 
ATOM      9  C   UNL     1       6.961   4.589   0.521  0.00  0.00    +0.014 A 
ATOM     10  C   UNL     1       7.590   5.811   0.415  0.00  0.00    +0.021 A 
ATOM     11  C   UNL     1       7.162   6.736  -0.524  0.00  0.00    +0.042 A 
ATOM     12  C   UNL     1       6.104   6.438  -1.366  0.00  0.00    +0.040 A 
ATOM     13  C   UNL     1       5.468   5.215  -1.274  0.00  0.00    +0.053 A 
ATOM     14 CL   UNL     1       4.141   4.843  -2.329  0.00  0.00    -0.083 Cl
ATOM     15 CL   UNL     1       7.955   8.275  -0.645  0.00  0.00    -0.083 Cl
ENDBRANCH   6   8
ENDBRANCH   2   3
BRANCH   1  17
ATOM     16  N   UNL     1       1.485   3.814   1.061  0.00  0.00    -0.310 N 
ATOM     17  C   UNL     1       1.363   3.095  -0.072  0.00  0.00    +0.258 C 
ATOM     18  O   UNL     1       1.353   3.658  -1.152  0.00  0.00    -0.269 OA
ATOM     19  H   UNL     1       1.578   3.302   2.030  0.00  0.00    +0.149 HD
BRANCH  16  20
ATOM     20  C   UNL     1       1.496   5.278   1.002  0.00  0.00    +0.109 C 
BRANCH  20  21
ATOM     21  C   UNL     1       1.646   5.844   2.416  0.00  0.00    +0.054 C 
BRANCH  21  25
ATOM     22  C   UNL     1       1.677  10.112   2.245  0.00  0.00    +0.000 A 
ATOM     23  C   UNL     1       0.481   9.435   2.393  0.00  0.00    +0.000 A 
ATOM     24  C   UNL     1       0.471   8.054   2.448  0.00  0.00    +0.004 A 
ATOM     25  C   UNL     1       1.657   7.350   2.355  0.00  0.00    -0.046 A 
ATOM     26  C   UNL     1       2.853   8.027   2.213  0.00  0.00    +0.004 A 
ATOM     27  C   UNL     1       2.863   9.408   2.152  0.00  0.00    +0.000 A 
ENDBRANCH  21  25
ENDBRANCH  20  21
ENDBRANCH  16  20
ENDBRANCH   1  17
BRANCH   1  28
ATOM     28  N   UNL     1      -0.025   1.040  -0.009  0.00  0.00    -0.277 N 
ATOM     29  C   UNL     1      -1.132   1.808   0.034  0.00  0.00    +0.248 C 
ATOM     30  O   UNL     1      -1.035   3.019  -0.016  0.00  0.00    -0.270 OA
ATOM     31  H   UNL     1      -0.117  -0.055  -0.048  0.00  0.00    +0.155 HD
BRANCH  29  32
ATOM     32  C   UNL     1      -2.465   1.177   0.142  0.00  0.00    +0.037 A 
ATOM     33  C   UNL     1      -2.580  -0.213   0.194  0.00  0.00    +0.013 A 
ATOM     34  C   UNL     1      -3.827  -0.795   0.300  0.00  0.00    +0.001 A 
ATOM     35  C   UNL     1      -4.961  -0.004   0.344  0.00  0.00    +0.000 A 
ATOM     36  C   UNL     1      -4.854   1.374   0.287  0.00  0.00    +0.001 A 
ATOM     37  C   UNL     1      -3.614   1.969   0.187  0.00  0.00    +0.013 A 
ENDBRANCH  29  32
ENDBRANCH   1  28
TORSDOF 8
