REMARK  Name = ZINC39854437
REMARK  7 active torsions:
REMARK  status: ('A' for Active; 'I' for Inactive)
REMARK    1  A    between atoms: C_1  and  C_2
REMARK    2  A    between atoms: C_4  and  C_25
REMARK    3  A    between atoms: C_5  and  N_11
REMARK    4  A    between atoms: C_6  and  N_8
REMARK    5  A    between atoms: C_12  and  C_14
REMARK    6  A    between atoms: C_19  and  C_20
REMARK    7  A    between atoms: C_19  and  C_21
REMARK                            x       y       z     vdW  Elec       q    Type
REMARK                         _______ _______ _______ _____ _____    ______ ____
ROOT
ATOM      1  N   UNL     1      -0.464  -4.122   0.064  0.00  0.00    -0.283 N 
ATOM      2  C   UNL     1      -0.521  -4.732   1.264  0.00  0.00    +0.231 C 
ATOM      3  O   UNL     1      -0.289  -4.104   2.276  0.00  0.00    -0.274 OA
ATOM      4  H   UNL     1      -0.577  -4.639  -0.749  0.00  0.00    +0.155 HD
ENDROOT
BRANCH   2   5
ATOM      5  C   UNL     1      -0.873  -6.195   1.350  0.00  0.00    +0.110 C 
ATOM      6  C   UNL     1       0.113  -7.174   0.643  0.00  0.00    +0.024 C 
ATOM      7  C   UNL     1      -0.166  -8.547   1.298  0.00  0.00    +0.006 C 
ATOM      8  C   UNL     1      -1.300  -8.263   2.330  0.00  0.00    +0.003 C 
ATOM      9  C   UNL     1      -0.914  -6.813   2.792  0.00  0.00    -0.011 C 
ATOM     10  C   UNL     1      -2.002  -6.177   3.660  0.00  0.00    +0.012 C 
ATOM     11  C   UNL     1       0.455  -6.771   3.475  0.00  0.00    +0.012 C 
ATOM     12  C   UNL     1      -2.556  -7.972   1.453  0.00  0.00    +0.079 C 
ATOM     13  C   UNL     1      -2.266  -6.579   0.832  0.00  0.00    +0.149 C 
ATOM     14  O   UNL     1      -2.970  -5.944   0.084  0.00  0.00    -0.296 OA
ENDBRANCH   2   5
BRANCH   1  19
ATOM     15  C   UNL     1       0.441   1.470  -0.236  0.00  0.00    +0.044 C 
ATOM     16  C   UNL     1       0.201  -0.015  -0.156  0.00  0.00    -0.048 A 
ATOM     17  C   UNL     1       1.107  -0.826   0.502  0.00  0.00    +0.008 A 
ATOM     18  C   UNL     1       0.889  -2.188   0.577  0.00  0.00    -0.027 A 
ATOM     19  C   UNL     1      -0.241  -2.743  -0.010  0.00  0.00    +0.067 A 
ATOM     20  C   UNL     1      -1.149  -1.925  -0.670  0.00  0.00    +0.148 A 
ATOM     21  C   UNL     1      -0.928  -0.564  -0.737  0.00  0.00    +0.038 A 
ATOM     22  C   UNL     1       1.878  -3.071   1.294  0.00  0.00    +0.046 C 
BRANCH  20  23
ATOM     23  N   UNL     1      -2.354  -2.513  -1.296  0.00  0.00    +0.058 N 
ATOM     24  O   UNL     1      -3.167  -1.796  -1.832  0.00  0.00    -0.126 OA
ATOM     25  O   UNL     1      -2.526  -3.709  -1.273  0.00  0.00    -0.126 OA
ENDBRANCH  20  23
ENDBRANCH   1  19
TORSDOF 3
