REMARK  Name = ZINC48246918
REMARK  4 active torsions:
REMARK  status: ('A' for Active; 'I' for Inactive)
REMARK    1  A    between atoms: C_1  and  C_2
REMARK    2  A    between atoms: C_2  and  C_4
REMARK    3  A    between atoms: C_2  and  N_7
REMARK    4  A    between atoms: C_4  and  C_5
REMARK                            x       y       z     vdW  Elec       q    Type
REMARK                         _______ _______ _______ _____ _____    ______ ____
ROOT
ATOM      1  N   UNL     1       0.570  -0.467   1.275  0.00  0.00    +0.382 N 
ATOM      2  C   UNL     1       1.885   0.151   1.476  0.00  0.00    -0.078 C 
ATOM      3  C   UNL     1       2.451  -0.267   2.835  0.00  0.00    -0.015 C 
ATOM      4  C   UNL     1       2.594  -1.793   2.870  0.00  0.00    -0.011 C 
ATOM      5  C   UNL     1       3.594  -2.226   1.796  0.00  0.00    +0.004 C 
ATOM      6  C   UNL     1       3.717  -3.750   1.793  0.00  0.00    +0.000 C 
ATOM      7  C   UNL     1       2.351  -4.370   1.489  0.00  0.00    +0.000 C 
ATOM      8  C   UNL     1       1.351  -3.945   2.565  0.00  0.00    +0.002 C 
ATOM      9  C   UNL     1       1.225  -2.421   2.597  0.00  0.00    -0.025 C 
ATOM     10  C   UNL     1       0.703  -1.929   1.247  0.00  0.00    -0.075 C 
ATOM     11  H   UNL     1      -0.043  -0.201   2.032  0.00  0.00    -0.081 HD
ENDROOT
BRANCH   1  13
ATOM     12  C   UNL     1       0.995  -0.278  -1.129  0.00  0.00    -0.012 C 
ATOM     13  C   UNL     1       0.002  -0.004   0.002  0.00  0.00    -0.058 C 
BRANCH  13  14
ATOM     14  C   UNL     1      -0.276   1.498   0.084  0.00  0.00    +0.103 C 
BRANCH  14  15
ATOM     15  C   UNL     1      -1.288   1.754   1.121  0.00  0.00    +0.061 C 
ATOM     16  N   UNL     1      -2.069   1.952   1.922  0.00  0.00    -0.197 NA
ENDBRANCH  14  15
ENDBRANCH  13  14
ENDBRANCH   1  13
TORSDOF 3
