REMARK  Name = ZINC39657095
REMARK  10 active torsions:
REMARK  status: ('A' for Active; 'I' for Inactive)
REMARK    1  A    between atoms: C_1  and  C_2
REMARK    2  A    between atoms: C_4  and  C_11
REMARK    3  A    between atoms: N_5  and  C_7
REMARK    4  A    between atoms: C_7  and  C_8
REMARK    5  A    between atoms: C_7  and  C_9
REMARK    6  A    between atoms: C_7  and  C_10
REMARK    7  A    between atoms: C_15  and  C_24
REMARK    8  A    between atoms: N_26  and  C_27
REMARK    9  A    between atoms: C_27  and  C_29
REMARK   10  A    between atoms: C_27  and  C_30
REMARK                            x       y       z     vdW  Elec       q    Type
REMARK                         _______ _______ _______ _____ _____    ______ ____
ROOT
ATOM      1  C   UNL     1      -0.550  -3.796  -1.563  0.00  0.00    +0.265 C 
ATOM      2  O   UNL     1      -0.670  -3.749  -2.772  0.00  0.00    -0.268 OA
ATOM      3  N   UNL     1      -0.476  -4.987  -0.938  0.00  0.00    -0.295 N 
ATOM      4  C   UNL     1      -0.463  -5.249   0.520  0.00  0.00    +0.121 C 
ATOM      5  C   UNL     1      -1.331  -6.514   0.698  0.00  0.00    +0.100 C 
ATOM      6  C   UNL     1      -1.277  -7.222  -0.666  0.00  0.00    -0.004 C 
ATOM      7  C   UNL     1      -0.394  -6.333  -1.555  0.00  0.00    +0.115 C 
ATOM      8  C   UNL     1      -0.654  -8.607  -0.519  0.00  0.00    -0.010 C 
ATOM      9  C   UNL     1      -0.664  -9.314  -1.878  0.00  0.00    -0.082 C 
ATOM     10  N   UNL     1      -2.045  -9.425  -2.363  0.00  0.00    +0.379 N 
ATOM     11  C   UNL     1      -2.605  -8.088  -2.591  0.00  0.00    -0.082 C 
ATOM     12  C   UNL     1      -2.677  -7.329  -1.262  0.00  0.00    -0.010 C 
ATOM     13  H   UNL     1      -2.055  -9.944  -3.228  0.00  0.00    -0.086 HD
ATOM     14  H   UNL     1      -2.603  -9.910  -1.677  0.00  0.00    -0.086 HD
ENDROOT
BRANCH   1  18
ATOM     15  C   UNL     1      -0.023  -0.407   2.174  0.00  0.00    +0.067 C 
ATOM     16  C   UNL     1      -0.260  -1.060   0.836  0.00  0.00    +0.061 A 
ATOM     17  C   UNL     1      -0.201  -2.429   0.567  0.00  0.00    +0.057 A 
ATOM     18  C   UNL     1      -0.487  -2.550  -0.782  0.00  0.00    +0.124 A 
ATOM     19  N   UNL     1      -0.699  -1.282  -1.243  0.00  0.00    -0.254 N 
ATOM     20  N   UNL     1      -0.564  -0.444  -0.278  0.00  0.00    -0.175 NA
BRANCH  19  21
ATOM     21  C   UNL     1      -1.034  -0.930  -2.625  0.00  0.00    +0.056 C 
ATOM     22  C   UNL     1      -2.278  -1.706  -3.061  0.00  0.00    +0.036 C 
ATOM     23  C   UNL     1      -1.310   0.572  -2.717  0.00  0.00    +0.036 C 
ATOM     24  C   UNL     1       0.138  -1.290  -3.541  0.00  0.00    +0.036 C 
ENDBRANCH  19  21
ENDBRANCH   1  18
BRANCH   5  25
ATOM     25  C   UNL     1      -2.749  -6.134   1.038  0.00  0.00    +0.219 C 
ATOM     26  O   UNL     1      -3.226  -5.112   0.593  0.00  0.00    -0.275 OA
ATOM     27  N   UNL     1      -3.487  -6.930   1.836  0.00  0.00    -0.308 N 
ATOM     28  H   UNL     1      -3.086  -7.713   2.245  0.00  0.00    +0.149 HD
BRANCH  27  29
ATOM     29  C   UNL     1      -4.896  -6.613   2.087  0.00  0.00    +0.100 C 
ATOM     30  C   UNL     1      -5.756  -7.191   0.962  0.00  0.00    +0.033 C 
BRANCH  29  31
ATOM     31  C   UNL     1      -5.319  -7.214   3.402  0.00  0.00    -0.027 A 
ATOM     32  C   UNL     1      -4.875  -8.473   3.763  0.00  0.00    +0.006 A 
ATOM     33  C   UNL     1      -5.263  -9.024   4.969  0.00  0.00    +0.015 A 
ATOM     34  C   UNL     1      -6.096  -8.316   5.817  0.00  0.00    +0.018 A 
ATOM     35  C   UNL     1      -6.540  -7.056   5.456  0.00  0.00    +0.015 A 
ATOM     36  C   UNL     1      -6.148  -6.504   4.252  0.00  0.00    +0.006 A 
ATOM     37 BR   UNL     1      -6.628  -9.069   7.467  0.00  0.00    -0.050 Br
ENDBRANCH  29  31
ENDBRANCH  27  29
ENDBRANCH   5  25
TORSDOF 5
