REMARK  Name = ZINC40426492
REMARK  12 active torsions:
REMARK  status: ('A' for Active; 'I' for Inactive)
REMARK    1  A    between atoms: C_1  and  C_2
REMARK    2  A    between atoms: C_4  and  C_40
REMARK    3  A    between atoms: C_6  and  N_8
REMARK    4  A    between atoms: C_9  and  C_11
REMARK    5  A    between atoms: C_11  and  C_13
REMARK    6  A    between atoms: C_11  and  N_17
REMARK    7  A    between atoms: C_13  and  C_14
REMARK    8  A    between atoms: C_14  and  C_15
REMARK    9  A    between atoms: C_14  and  C_16
REMARK   10  A    between atoms: C_23  and  C_30
REMARK   11  A    between atoms: N_28  and  C_29
REMARK   12  A    between atoms: C_35  and  C_36
REMARK                            x       y       z     vdW  Elec       q    Type
REMARK                         _______ _______ _______ _____ _____    ______ ____
ROOT
ATOM      1  N   UNL     1      -0.179  -2.970   4.702  0.00  0.00    -0.281 N 
ATOM      2  C   UNL     1       0.873  -2.919   5.728  0.00  0.00    +0.160 C 
ATOM      3  C   UNL     1       0.342  -1.975   6.783  0.00  0.00    +0.042 C 
ATOM      4  C   UNL     1      -0.870  -1.569   6.353  0.00  0.00    +0.058 C 
ATOM      5  C   UNL     1      -1.173  -2.160   5.110  0.00  0.00    +0.247 C 
ATOM      6  O   UNL     1      -2.202  -1.967   4.489  0.00  0.00    -0.270 OA
ATOM      7  C   UNL     1      -1.640  -0.602   7.230  0.00  0.00    +0.142 C 
ATOM      8  N   UNL     1      -0.997  -0.183   8.486  0.00  0.00    -0.288 N 
ATOM      9  C   UNL     1       0.222  -0.678   8.779  0.00  0.00    +0.307 C 
ATOM     10  O   UNL     1       0.761  -0.339   9.815  0.00  0.00    -0.252 OA
ATOM     11  N   UNL     1       0.859  -1.531   7.966  0.00  0.00    -0.260 N 
ATOM     12  C   UNL     1       2.182  -2.015   8.370  0.00  0.00    +0.139 C 
ATOM     13  H   UNL     1      -1.440   0.434   9.089  0.00  0.00    +0.151 HD
ENDROOT
BRANCH   7  14
ATOM     14  C   UNL     1      -2.961  -1.240   7.575  0.00  0.00    -0.011 A 
ATOM     15  C   UNL     1      -3.004  -2.317   8.439  0.00  0.00    +0.006 A 
ATOM     16  C   UNL     1      -4.216  -2.902   8.756  0.00  0.00    +0.000 A 
ATOM     17  C   UNL     1      -5.385  -2.409   8.208  0.00  0.00    +0.001 A 
ATOM     18  C   UNL     1      -5.343  -1.331   7.344  0.00  0.00    +0.013 A 
ATOM     19  C   UNL     1      -4.131  -0.743   7.031  0.00  0.00    +0.060 A 
BRANCH  19  20
ATOM     20  C   UNL     1      -4.085   0.436   6.093  0.00  0.00    +0.418 C 
ATOM     21  F   UNL     1      -5.384   0.757   5.684  0.00  0.00    -0.166 F 
ATOM     22  F   UNL     1      -3.519   1.533   6.751  0.00  0.00    -0.166 F 
ATOM     23  F   UNL     1      -3.311   0.112   4.974  0.00  0.00    -0.166 F 
ENDBRANCH  19  20
ENDBRANCH   7  14
BRANCH   1  24
ATOM     24  C   UNL     1      -0.148  -3.750   3.462  0.00  0.00    +0.163 C 
BRANCH  24  26
ATOM     25  N   UNL     1      -0.205  -3.317   1.028  0.00  0.00    -0.284 N 
ATOM     26  C   UNL     1      -0.220  -2.819   2.280  0.00  0.00    +0.238 C 
ATOM     27  O   UNL     1      -0.290  -1.621   2.455  0.00  0.00    -0.273 OA
ATOM     28  H   UNL     1      -0.223  -4.277   0.887  0.00  0.00    +0.155 HD
BRANCH  25  34
ATOM     29  C   UNL     1      -1.493  -2.293  -3.605  0.00  0.00    +0.044 C 
ATOM     30  C   UNL     1      -0.781  -1.929  -2.328  0.00  0.00    -0.048 A 
ATOM     31  C   UNL     1      -0.087  -0.736  -2.241  0.00  0.00    +0.006 A 
ATOM     32  C   UNL     1       0.568  -0.398  -1.071  0.00  0.00    -0.048 A 
ATOM     33  C   UNL     1       0.530  -1.252   0.015  0.00  0.00    +0.026 A 
ATOM     34  C   UNL     1      -0.166  -2.450  -0.070  0.00  0.00    +0.034 A 
ATOM     35  C   UNL     1      -0.827  -2.784  -1.245  0.00  0.00    +0.026 A 
ATOM     36  C   UNL     1       1.323   0.902  -0.980  0.00  0.00    +0.044 C 
ENDBRANCH  25  34
ENDBRANCH  24  26
BRANCH  24  37
ATOM     37  C   UNL     1      -1.341  -4.707   3.432  0.00  0.00    +0.035 C 
BRANCH  37  38
ATOM     38  C   UNL     1      -1.206  -5.728   4.563  0.00  0.00    -0.015 C 
ATOM     39  C   UNL     1      -2.462  -6.599   4.616  0.00  0.00    +0.007 C 
ATOM     40  C   UNL     1       0.017  -6.612   4.308  0.00  0.00    +0.007 C 
ENDBRANCH  37  38
ENDBRANCH  24  37
ENDBRANCH   1  24
TORSDOF 7
