REMARK  Name = ZINC08991280
REMARK  9 active torsions:
REMARK  status: ('A' for Active; 'I' for Inactive)
REMARK    1  A    between atoms: C_1  and  C_2
REMARK    2  A    between atoms: C_2  and  N_3
REMARK    3  A    between atoms: C_5  and  C_14
REMARK    4  A    between atoms: C_10  and  O_12
REMARK    5  A    between atoms: O_12  and  C_13
REMARK    6  A    between atoms: C_21  and  O_33
REMARK    7  A    between atoms: C_22  and  C_25
REMARK    8  A    between atoms: C_25  and  N_63
REMARK    9  A    between atoms: C_29  and  C_32
REMARK                            x       y       z     vdW  Elec       q    Type
REMARK                         _______ _______ _______ _____ _____    ______ ____
ROOT
ATOM      1  C   UNL     1      -4.865   2.219   4.880  0.00  0.00    +0.060 C 
ATOM      2  C   UNL     1      -5.934   2.439   5.696  0.00  0.00    +0.176 C 
ATOM      3  C   UNL     1      -7.229   1.881   5.535  0.00  0.00    +0.231 C 
ATOM      4  O   UNL     1      -7.605   1.122   4.657  0.00  0.00    -0.283 OA
ATOM      5  C   UNL     1      -8.021   2.413   6.658  0.00  0.00    +0.068 A 
ATOM      6  C   UNL     1      -9.346   2.247   7.063  0.00  0.00    +0.019 A 
ATOM      7  C   UNL     1      -9.803   2.894   8.176  0.00  0.00    +0.046 A 
ATOM      8  C   UNL     1      -8.951   3.718   8.907  0.00  0.00    +0.122 A 
ATOM      9  C   UNL     1      -7.634   3.893   8.516  0.00  0.00    +0.020 A 
ATOM     10  C   UNL     1      -7.154   3.242   7.388  0.00  0.00    +0.144 A 
ATOM     11  O   UNL     1      -5.941   3.232   6.794  0.00  0.00    -0.451 OA
ENDROOT
BRANCH   1  14
ATOM     12  N   UNL     1      -5.423  -0.660   2.709  0.00  0.00    -0.346 N 
ATOM     13  C   UNL     1      -5.551  -0.021   3.897  0.00  0.00    +0.094 A 
ATOM     14  C   UNL     1      -4.950   1.218   3.819  0.00  0.00    +0.004 A 
ATOM     15  C   UNL     1      -4.409   1.331   2.451  0.00  0.00    +0.011 A 
ATOM     16  C   UNL     1      -4.736   0.128   1.805  0.00  0.00    +0.050 A 
ATOM     17  C   UNL     1      -4.352  -0.064   0.482  0.00  0.00    +0.030 A 
ATOM     18  C   UNL     1      -3.663   0.924  -0.186  0.00  0.00    +0.047 A 
ATOM     19  C   UNL     1      -3.334   2.115   0.455  0.00  0.00    +0.121 A 
ATOM     20  C   UNL     1      -3.708   2.322   1.770  0.00  0.00    +0.056 A 
BRANCH  12  22
ATOM     21  C   UNL     1      -4.836  -3.034   2.648  0.00  0.00    +0.027 C 
ATOM     22  C   UNL     1      -5.941  -2.000   2.422  0.00  0.00    +0.118 C 
ENDBRANCH  12  22
BRANCH  19  23
ATOM     23  O   UNL     1      -2.649   3.079  -0.216  0.00  0.00    -0.495 OA
ATOM     24  C   UNL     1      -2.295   2.800  -1.571  0.00  0.00    +0.277 C 
ENDBRANCH  19  23
ENDBRANCH   1  14
BRANCH   8  25
ATOM     25  O   UNL     1      -9.416   4.357  10.011  0.00  0.00    -0.506 OA
ATOM     26  H   UNL     1      -9.312   3.853  10.830  0.00  0.00    +0.292 HD
ENDBRANCH   8  25
BRANCH   9  27
ATOM     27  C   UNL     1      -6.722   4.788   9.316  0.00  0.00    -0.036 C 
BRANCH  27  34
ATOM     28  C   UNL     1      -8.133   6.732   9.014  0.00  0.00    -0.078 C 
ATOM     29  C   UNL     1      -8.134   8.203   8.592  0.00  0.00    -0.018 C 
ATOM     30  C   UNL     1      -7.754   8.304   7.112  0.00  0.00    -0.001 C 
ATOM     31  C   UNL     1      -6.382   7.657   6.900  0.00  0.00    -0.031 C 
ATOM     32  C   UNL     1      -6.432   6.202   7.372  0.00  0.00    -0.075 C 
ATOM     33  C   UNL     1      -6.021   7.700   5.414  0.00  0.00    +0.005 C 
ATOM     34  N   UNL     1      -6.779   6.175   8.809  0.00  0.00    +0.383 N 
ATOM     35  H   UNL     1      -6.101   6.747   9.326  0.00  0.00    -0.081 HD
ENDBRANCH  27  34
ENDBRANCH   9  27
TORSDOF 6
