REMARK  Name = ZINC63746474
REMARK  12 active torsions:
REMARK  status: ('A' for Active; 'I' for Inactive)
REMARK    1  A    between atoms: C_1  and  C_2
REMARK    2  A    between atoms: C_2  and  O_3
REMARK    3  A    between atoms: O_3  and  C_4
REMARK    4  A    between atoms: C_9  and  S_14
REMARK    5  A    between atoms: S_14  and  C_15
REMARK    6  A    between atoms: C_15  and  C_16
REMARK    7  A    between atoms: N_21  and  C_24
REMARK    8  A    between atoms: C_24  and  C_25
REMARK    9  A    between atoms: N_27  and  C_28
REMARK   10  A    between atoms: C_28  and  C_29
REMARK   11  A    between atoms: C_28  and  C_30
REMARK   12  A    between atoms: C_28  and  C_31
REMARK                            x       y       z     vdW  Elec       q    Type
REMARK                         _______ _______ _______ _____ _____    ______ ____
ROOT
ATOM      1  C   UNL     1      -3.894  -6.465   4.160  0.00  0.00    +0.226 C 
ATOM      2  O   UNL     1      -4.601  -7.451   4.168  0.00  0.00    -0.275 OA
ATOM      3  N   UNL     1      -3.491  -5.916   5.323  0.00  0.00    -0.298 N 
ATOM      4  C   UNL     1      -2.639  -4.717   5.336  0.00  0.00    +0.123 C 
ATOM      5  C   UNL     1      -3.277  -3.676   6.262  0.00  0.00    +0.104 C 
ATOM      6  N   UNL     1      -3.520  -4.280   7.579  0.00  0.00    -0.291 NA
ATOM      7  C   UNL     1      -4.480  -5.389   7.488  0.00  0.00    +0.104 C 
ATOM      8  C   UNL     1      -3.895  -6.496   6.612  0.00  0.00    +0.123 C 
ENDROOT
BRANCH   1   9
ATOM      9  C   UNL     1      -3.468  -5.854   2.850  0.00  0.00    +0.168 C 
BRANCH   9  10
ATOM     10  S   UNL     1      -4.168  -6.814   1.479  0.00  0.00    -0.106 S 
BRANCH  10  16
ATOM     11  C   UNL     1      -1.498  -1.845   0.006  0.00  0.00    +0.123 A 
ATOM     12  C   UNL     1      -0.317  -2.699  -0.004  0.00  0.00    +0.048 A 
ATOM     13  C   UNL     1      -0.409  -4.042  -0.010  0.00  0.00    +0.031 A 
ATOM     14  C   UNL     1      -1.733  -4.683  -0.006  0.00  0.00    +0.061 A 
ATOM     15  N   UNL     1      -2.101  -5.931  -0.012  0.00  0.00    -0.355 N 
ATOM     16  C   UNL     1      -3.568  -5.960  -0.005  0.00  0.00    +0.236 C 
ATOM     17  N   UNL     1      -4.010  -4.560   0.005  0.00  0.00    -0.355 N 
ATOM     18  C   UNL     1      -2.940  -3.813   0.004  0.00  0.00    +0.064 A 
ATOM     19  C   UNL     1      -2.752  -2.361   0.016  0.00  0.00    +0.073 A 
ATOM     20  H   UNL     1      -1.513  -6.702  -0.019  0.00  0.00    +0.162 HD
ATOM     21  H   UNL     1      -4.929  -4.248   0.011  0.00  0.00    +0.162 HD
BRANCH  11  22
ATOM     22  O   UNL     1      -1.339  -0.499   0.012  0.00  0.00    -0.492 OA
BRANCH  22  24
ATOM     23  C   UNL     1      -0.019   1.526   0.010  0.00  0.00    +0.048 C 
ATOM     24  C   UNL     1       0.002  -0.004   0.002  0.00  0.00    +0.225 C 
ENDBRANCH  22  24
ENDBRANCH  11  22
ENDBRANCH  10  16
ENDBRANCH   9  10
ENDBRANCH   1   9
BRANCH   6  25
ATOM     25  C   UNL     1      -3.971  -3.271   8.546  0.00  0.00    +0.180 C 
BRANCH  25  26
ATOM     26  C   UNL     1      -3.974  -3.867   9.930  0.00  0.00    +0.227 C 
ATOM     27  O   UNL     1      -3.633  -5.019  10.095  0.00  0.00    -0.274 OA
ATOM     28  N   UNL     1      -4.355  -3.120  10.985  0.00  0.00    -0.310 N 
ATOM     29  H   UNL     1      -4.628  -2.198  10.853  0.00  0.00    +0.149 HD
BRANCH  28  30
ATOM     30  C   UNL     1      -4.357  -3.700  12.330  0.00  0.00    +0.026 C 
ATOM     31  C   UNL     1      -2.942  -4.155  12.692  0.00  0.00    +0.031 C 
ATOM     32  C   UNL     1      -4.828  -2.648  13.338  0.00  0.00    +0.031 C 
ATOM     33  C   UNL     1      -5.305  -4.900  12.367  0.00  0.00    +0.031 C 
ENDBRANCH  28  30
ENDBRANCH  25  26
ENDBRANCH   6  25
TORSDOF 8
