REMARK  Name = ZINC02643264
REMARK  7 active torsions:
REMARK  status: ('A' for Active; 'I' for Inactive)
REMARK    1  A    between atoms: C_1  and  C_2
REMARK    2  A    between atoms: C_5  and  C_8
REMARK    3  A    between atoms: N_13  and  C_15
REMARK    4  A    between atoms: C_15  and  N_54
REMARK    5  A    between atoms: N_18  and  S_21
REMARK    6  A    between atoms: S_21  and  C_24
REMARK    7  A    between atoms: C_29  and  N_30
REMARK                            x       y       z     vdW  Elec       q    Type
REMARK                         _______ _______ _______ _____ _____    ______ ____
ROOT
ATOM      1  C   UNL     1      -1.114   2.928   2.197  0.00  0.00    -0.059 C 
ATOM      2  C   UNL     1      -2.136   2.689   1.081  0.00  0.00    +0.091 C 
ATOM      3  N   UNL     1      -2.630   1.308   1.187  0.00  0.00    -0.180 NA
ATOM      4  C   UNL     1      -3.131   0.846   2.491  0.00  0.00    +0.091 C 
ATOM      5  C   UNL     1      -2.065   1.156   3.554  0.00  0.00    -0.059 C 
ATOM      6  N   UNL     1      -1.744   2.598   3.495  0.00  0.00    +0.394 N 
ATOM      7  H   UNL     1      -2.612   3.137   3.589  0.00  0.00    -0.079 HD
ENDROOT
BRANCH   3   8
ATOM      8  S   UNL     1      -2.630   0.301  -0.128  0.00  0.00    +0.063 S 
ATOM      9  O   UNL     1      -2.490   1.129  -1.274  0.00  0.00    -0.153 OA
ATOM     10  O   UNL     1      -3.726  -0.588   0.040  0.00  0.00    -0.153 OA
BRANCH   8  11
ATOM     11  C   UNL     1      -1.168  -0.679  -0.033  0.00  0.00    +0.136 A 
ATOM     12  C   UNL     1      -0.151  -0.321   0.833  0.00  0.00    +0.031 A 
ATOM     13  C   UNL     1       0.995  -1.090   0.907  0.00  0.00    +0.002 A 
ATOM     14  C   UNL     1       1.125  -2.216   0.116  0.00  0.00    +0.002 A 
ATOM     15  C   UNL     1       0.106  -2.577  -0.746  0.00  0.00    +0.035 A 
ATOM     16  C   UNL     1      -1.038  -1.805  -0.824  0.00  0.00    +0.152 A 
BRANCH  16  17
ATOM     17  N   UNL     1      -2.127  -2.188  -1.750  0.00  0.00    +0.058 N 
ATOM     18  O   UNL     1      -2.075  -3.249  -2.347  0.00  0.00    -0.126 OA
ATOM     19  O   UNL     1      -3.079  -1.445  -1.913  0.00  0.00    -0.126 OA
ENDBRANCH  16  17
ENDBRANCH   8  11
ENDBRANCH   3   8
BRANCH   6  20
ATOM     20  C   UNL     1      -0.834   2.958   4.602  0.00  0.00    +0.072 C 
BRANCH  20  26
ATOM     21  C   UNL     1      -2.469   2.187   7.721  0.00  0.00    +0.160 A 
ATOM     22  N   UNL     1      -1.724   1.043   7.519  0.00  0.00    -0.317 N 
ATOM     23  H   UNL     1      -1.696   0.271   8.105  0.00  0.00    +0.169 HD
ATOM     24  C   UNL     1      -1.041   1.182   6.365  0.00  0.00    +0.174 A 
ATOM     25  S   UNL     1       0.026   0.034   5.677  0.00  0.00    -0.012 S 
ATOM     26  N   UNL     1      -1.349   2.390   5.850  0.00  0.00    -0.257 N 
ATOM     27  N   UNL     1      -2.249   3.006   6.731  0.00  0.00    -0.153 NA
BRANCH  21  32
ATOM     28  C   UNL     1      -5.943   3.186  12.201  0.00  0.00    +0.044 C 
ATOM     29  C   UNL     1      -5.033   2.925  11.028  0.00  0.00    -0.050 A 
ATOM     30  C   UNL     1      -4.895   3.880  10.037  0.00  0.00    +0.004 A 
ATOM     31  C   UNL     1      -4.063   3.647   8.961  0.00  0.00    +0.012 A 
ATOM     32  C   UNL     1      -3.362   2.444   8.873  0.00  0.00    +0.019 A 
ATOM     33  C   UNL     1      -3.510   1.482   9.873  0.00  0.00    +0.012 A 
ATOM     34  C   UNL     1      -4.341   1.730  10.946  0.00  0.00    +0.004 A 
ENDBRANCH  21  32
ENDBRANCH  20  26
ENDBRANCH   6  20
TORSDOF 6
