REMARK  Name = ZINC05868759
REMARK  8 active torsions:
REMARK  status: ('A' for Active; 'I' for Inactive)
REMARK    1  A    between atoms: C_1  and  C_2
REMARK    2  A    between atoms: C_2  and  C_3
REMARK    3  A    between atoms: C_3  and  C_4
REMARK    4  A    between atoms: C_4  and  S_5
REMARK    5  A    between atoms: S_5  and  C_6
REMARK    6  A    between atoms: C_13  and  C_25
REMARK    7  A    between atoms: C_18  and  C_22
REMARK    8  A    between atoms: C_18  and  C_23
REMARK                            x       y       z     vdW  Elec       q    Type
REMARK                         _______ _______ _______ _____ _____    ______ ____
ROOT
ATOM      1  C   UNL     1       1.529  -4.368  -2.621  0.00  0.00    +0.171 A 
ATOM      2  N   UNL     1       2.094  -5.135  -3.596  0.00  0.00    -0.322 N 
ATOM      3  C   UNL     1       2.058  -6.501  -3.502  0.00  0.00    +0.111 A 
ATOM      4  C   UNL     1       1.455  -7.080  -2.429  0.00  0.00    +0.069 A 
ATOM      5  C   UNL     1       0.877  -6.250  -1.444  0.00  0.00    +0.280 A 
ATOM      6  N   UNL     1       0.945  -4.917  -1.576  0.00  0.00    -0.185 NA
ATOM      7  O   UNL     1       0.322  -6.744  -0.473  0.00  0.00    -0.265 OA
ATOM      8  C   UNL     1       1.404  -8.572  -2.284  0.00  0.00    +0.092 C 
ATOM      9  C   UNL     1       1.685  -9.260  -3.595  0.00  0.00    +0.024 C 
ATOM     10  C   UNL     1       1.323 -10.613  -3.722  0.00  0.00    +0.162 C 
ATOM     11  C   UNL     1       1.592 -11.377  -4.989  0.00  0.00    +0.086 C 
ATOM     12  C   UNL     1       2.816 -10.773  -5.685  0.00  0.00    -0.023 C 
ATOM     13  C   UNL     1       2.549  -9.286  -5.930  0.00  0.00    +0.058 C 
ATOM     14  C   UNL     1       2.270  -8.598  -4.616  0.00  0.00    +0.017 C 
ATOM     15  N   UNL     1       2.621  -7.282  -4.484  0.00  0.00    -0.304 N 
ATOM     16  C   UNL     1       4.047 -10.933  -4.790  0.00  0.00    +0.011 C 
ATOM     17  C   UNL     1       3.050 -11.480  -7.021  0.00  0.00    +0.011 C 
ATOM     18  O   UNL     1       0.782 -11.175  -2.790  0.00  0.00    -0.292 OA
ATOM     19  H   UNL     1       3.273  -6.896  -5.089  0.00  0.00    +0.153 HD
ATOM     20  H   UNL     1       2.522  -4.713  -4.357  0.00  0.00    +0.169 HD
ENDROOT
BRANCH   8  21
ATOM     21  C   UNL     1       2.433  -9.004  -1.271  0.00  0.00    -0.032 A 
ATOM     22  C   UNL     1       3.779  -8.731  -1.466  0.00  0.00    +0.024 A 
ATOM     23  C   UNL     1       4.694  -9.143  -0.515  0.00  0.00    +0.111 A 
ATOM     24  N   UNL     1       4.300  -9.788   0.565  0.00  0.00    -0.263 NA
ATOM     25  C   UNL     1       3.029 -10.064   0.783  0.00  0.00    +0.111 A 
ATOM     26  C   UNL     1       2.057  -9.678  -0.119  0.00  0.00    +0.024 A 
ENDBRANCH   8  21
BRANCH   1  27
ATOM     27  S   UNL     1       1.588  -2.612  -2.758  0.00  0.00    -0.088 S 
BRANCH  27  28
ATOM     28  C   UNL     1       0.739  -2.027  -1.265  0.00  0.00    +0.077 C 
BRANCH  28  29
ATOM     29  C   UNL     1       0.718  -0.497  -1.257  0.00  0.00    +0.011 C 
BRANCH  29  31
ATOM     30  C   UNL     1      -0.019   1.526   0.010  0.00  0.00    +0.004 C 
ATOM     31  C   UNL     1       0.002  -0.004   0.002  0.00  0.00    -0.003 C 
ENDBRANCH  29  31
ENDBRANCH  28  29
ENDBRANCH  27  28
ENDBRANCH   1  27
TORSDOF 5
