REMARK  Name = ZINC12896995
REMARK  5 active torsions:
REMARK  status: ('A' for Active; 'I' for Inactive)
REMARK    1  A    between atoms: C_1  and  C_2
REMARK    2  A    between atoms: C_16  and  N_17
REMARK    3  A    between atoms: C_16  and  N_66
REMARK    4  A    between atoms: N_20  and  C_29
REMARK    5  A    between atoms: C_21  and  C_23
REMARK                            x       y       z     vdW  Elec       q    Type
REMARK                         _______ _______ _______ _____ _____    ______ ____
ROOT
ATOM      1  C   UNL     1      -0.502   1.086   2.276  0.00  0.00    -0.008 C 
ATOM      2  C   UNL     1      -0.085   0.829   0.827  0.00  0.00    -0.038 C 
ATOM      3  C   UNL     1      -1.141   1.376  -0.097  0.00  0.00    -0.054 A 
ATOM      4  C   UNL     1      -2.474   1.172   0.228  0.00  0.00    +0.051 A 
ATOM      5  C   UNL     1      -3.480   1.652  -0.594  0.00  0.00    +0.162 A 
ATOM      6  C   UNL     1      -3.149   2.346  -1.753  0.00  0.00    +0.162 A 
ATOM      7  C   UNL     1      -1.817   2.547  -2.073  0.00  0.00    +0.053 A 
ATOM      8  C   UNL     1      -0.813   2.065  -1.247  0.00  0.00    -0.038 A 
ATOM      9  C   UNL     1       0.620   2.311  -1.633  0.00  0.00    -0.018 C 
ATOM     10  C   UNL     1       0.798   2.076  -3.144  0.00  0.00    +0.010 C 
ATOM     11  C   UNL     1       0.666   3.489  -3.765  0.00  0.00    +0.001 C 
ATOM     12  C   UNL     1       1.381   4.388  -2.726  0.00  0.00    +0.001 C 
ATOM     13  C   UNL     1       0.989   3.778  -1.364  0.00  0.00    +0.010 C 
ATOM     14  C   UNL     1       1.553   1.388  -0.853  0.00  0.00    -0.064 C 
ATOM     15  O   UNL     1      -4.117   2.830  -2.569  0.00  0.00    -0.485 OA
ATOM     16  C   UNL     1      -5.453   2.382  -2.402  0.00  0.00    +0.270 C 
ATOM     17  C   UNL     1      -5.794   2.163  -0.936  0.00  0.00    +0.270 C 
ATOM     18  O   UNL     1      -4.777   1.437  -0.263  0.00  0.00    -0.485 OA
ATOM     19  N   UNL     1       1.204   1.498   0.580  0.00  0.00    +0.398 N 
ATOM     20  H   UNL     1       1.119   2.491   0.828  0.00  0.00    -0.078 HD
ENDROOT
BRANCH  19  21
ATOM     21  C   UNL     1       2.263   0.883   1.409  0.00  0.00    +0.072 C 
BRANCH  21  22
ATOM     22  N   UNL     1       3.438   1.758   1.402  0.00  0.00    -0.257 N 
ATOM     23  C   UNL     1       4.517   1.637   0.602  0.00  0.00    +0.177 A 
ATOM     24  S   UNL     1       4.762   0.434  -0.591  0.00  0.00    -0.011 S 
ATOM     25  N   UNL     1       5.367   2.638   0.909  0.00  0.00    -0.300 N 
ATOM     26  C   UNL     1       4.806   3.386   1.925  0.00  0.00    +0.164 A 
ATOM     27  N   UNL     1       3.649   2.869   2.230  0.00  0.00    -0.152 NA
BRANCH  26  28
ATOM     28  C   UNL     1       5.416   4.575   2.561  0.00  0.00    +0.037 A 
ATOM     29  C   UNL     1       4.611   5.590   3.090  0.00  0.00    +0.014 A 
ATOM     30  C   UNL     1       5.231   6.678   3.679  0.00  0.00    +0.020 A 
ATOM     31  C   UNL     1       6.613   6.732   3.716  0.00  0.00    +0.111 A 
ATOM     32  N   UNL     1       7.346   5.762   3.204  0.00  0.00    -0.263 NA
ATOM     33  C   UNL     1       6.802   4.705   2.638  0.00  0.00    +0.122 A 
ENDBRANCH  26  28
BRANCH  25  34
ATOM     34  C   UNL     1       6.665   2.885   0.278  0.00  0.00    +0.091 C 
ATOM     35  C   UNL     1       6.923   2.239  -1.085  0.00  0.00    +0.027 C 
ATOM     36  C   UNL     1       7.631   1.704   0.161  0.00  0.00    +0.027 C 
ENDBRANCH  25  34
ENDBRANCH  21  22
ENDBRANCH  19  21
TORSDOF 4
