REMARK  Name = ZINC09254195
REMARK  8 active torsions:
REMARK  status: ('A' for Active; 'I' for Inactive)
REMARK    1  A    between atoms: C_1  and  C_2
REMARK    2  A    between atoms: C_15  and  C_17
REMARK    3  A    between atoms: C_17  and  S_18
REMARK    4  A    between atoms: S_18  and  C_19
REMARK    5  A    between atoms: C_22  and  C_31
REMARK    6  A    between atoms: N_23  and  C_24
REMARK    7  A    between atoms: C_24  and  C_25
REMARK    8  A    between atoms: C_31  and  N_65
REMARK                            x       y       z     vdW  Elec       q    Type
REMARK                         _______ _______ _______ _____ _____    ______ ____
ROOT
ATOM      1  C   UNL     1       4.970   5.383   1.692  0.00  0.00    +0.192 A 
ATOM      2  N   UNL     1       5.815   4.776   0.891  0.00  0.00    -0.123 NA
ATOM      3  N   UNL     1       6.972   5.328   0.978  0.00  0.00    -0.135 NA
ATOM      4  C   UNL     1       6.938   6.306   1.837  0.00  0.00    +0.118 A 
ATOM      5  N   UNL     1       5.661   6.377   2.323  0.00  0.00    -0.303 N 
ENDROOT
BRANCH   1   6
ATOM      6  S   UNL     1       3.268   4.985   1.915  0.00  0.00    -0.077 S 
BRANCH   6   7
ATOM      7  C   UNL     1       3.115   3.598   0.762  0.00  0.00    +0.173 C 
BRANCH   7  21
ATOM      8  C   UNL     1      -0.761   2.031  -1.228  0.00  0.00    +0.029 C 
ATOM      9  C   UNL     1      -0.019   1.526   0.010  0.00  0.00    +0.087 C 
ATOM     10  C   UNL     1       0.002  -0.004   0.002  0.00  0.00    +0.118 C 
ATOM     11  C   UNL     1       1.040  -0.514   0.967  0.00  0.00    +0.219 C 
ATOM     12  O   UNL     1       0.694  -0.981   2.031  0.00  0.00    -0.275 OA
ATOM     13  N   UNL     1       2.354  -0.453   0.655  0.00  0.00    -0.284 N 
ATOM     14  C   UNL     1       2.777   0.163  -0.528  0.00  0.00    +0.055 A 
ATOM     15  C   UNL     1       3.669  -0.467  -1.379  0.00  0.00    +0.025 A 
ATOM     16  C   UNL     1       4.092   0.175  -2.529  0.00  0.00    +0.002 A 
ATOM     17  C   UNL     1       3.628   1.443  -2.830  0.00  0.00    +0.002 A 
ATOM     18  C   UNL     1       2.730   2.074  -1.989  0.00  0.00    +0.025 A 
ATOM     19  C   UNL     1       2.292   1.433  -0.842  0.00  0.00    +0.058 A 
ATOM     20  N   UNL     1       1.351   2.041   0.000  0.00  0.00    -0.266 N 
ATOM     21  C   UNL     1       1.701   3.079   0.784  0.00  0.00    +0.230 C 
ATOM     22  O   UNL     1       0.876   3.597   1.508  0.00  0.00    -0.274 OA
ATOM     23  H   UNL     1       3.009  -0.840   1.257  0.00  0.00    +0.155 HD
ENDBRANCH   7  21
ENDBRANCH   6   7
ENDBRANCH   1   6
BRANCH   5  24
ATOM     24  C   UNL     1       5.143   7.322   3.315  0.00  0.00    +0.160 C 
BRANCH  24  25
ATOM     25  C   UNL     1       5.311   6.743   4.696  0.00  0.00    -0.028 A 
ATOM     26  C   UNL     1       4.305   5.975   5.251  0.00  0.00    +0.005 A 
ATOM     27  C   UNL     1       4.461   5.441   6.516  0.00  0.00    +0.000 A 
ATOM     28  C   UNL     1       5.619   5.683   7.231  0.00  0.00    +0.000 A 
ATOM     29  C   UNL     1       6.623   6.455   6.678  0.00  0.00    +0.000 A 
ATOM     30  C   UNL     1       6.469   6.986   5.411  0.00  0.00    +0.005 A 
ENDBRANCH  24  25
ENDBRANCH   5  24
BRANCH   4  31
ATOM     31  C   UNL     1       8.091   7.196   2.225  0.00  0.00    -0.001 C 
BRANCH  31  36
ATOM     32  C   UNL     1       9.179   5.196   3.087  0.00  0.00    -0.078 C 
ATOM     33  C   UNL     1      10.321   4.926   4.098  0.00  0.00    -0.020 C 
ATOM     34  C   UNL     1      11.086   6.269   4.122  0.00  0.00    -0.020 C 
ATOM     35  C   UNL     1      10.073   7.317   3.624  0.00  0.00    -0.078 C 
ATOM     36  N   UNL     1       8.825   6.594   3.378  0.00  0.00    +0.384 N 
ATOM     37  H   UNL     1       8.230   6.634   4.214  0.00  0.00    -0.081 HD
ENDBRANCH  31  36
ENDBRANCH   4  31
TORSDOF 7
