REMARK  Name = ZINC05186263
REMARK  6 active torsions:
REMARK  status: ('A' for Active; 'I' for Inactive)
REMARK    1  A    between atoms: C_1  and  C_2
REMARK    2  A    between atoms: C_7  and  C_13
REMARK    3  A    between atoms: C_13  and  O_14
REMARK    4  A    between atoms: O_14  and  C_15
REMARK    5  A    between atoms: C_15  and  C_17
REMARK    6  A    between atoms: C_20  and  C_22
REMARK                            x       y       z     vdW  Elec       q    Type
REMARK                         _______ _______ _______ _____ _____    ______ ____
ROOT
ATOM      1  C   UNL     1      -2.485   0.947   0.019  0.00  0.00    +0.045 C 
ATOM      2  C   UNL     1      -1.197   1.728   0.017  0.00  0.00    -0.034 A 
ATOM      3  C   UNL     1      -1.229   3.130   0.030  0.00  0.00    +0.008 A 
ATOM      4  C   UNL     1      -0.059   3.829   0.024  0.00  0.00    +0.047 A 
ATOM      5  C   UNL     1       1.163   3.132   0.008  0.00  0.00    +0.141 A 
ATOM      6  N   UNL     1       2.308   3.814   0.002  0.00  0.00    -0.231 NA
ATOM      7  C   UNL     1       3.478   3.195  -0.013  0.00  0.00    +0.086 A 
ATOM      8  C   UNL     1       3.530   1.815  -0.021  0.00  0.00    +0.097 A 
ATOM      9  C   UNL     1       2.332   1.092  -0.014  0.00  0.00    +0.259 A 
ATOM     10  O   UNL     1       2.345  -0.129  -0.021  0.00  0.00    -0.267 OA
ATOM     11  N   UNL     1       1.162   1.765   0.000  0.00  0.00    -0.268 N 
ATOM     12  C   UNL     1      -0.013   1.076   0.008  0.00  0.00    +0.099 A 
ENDROOT
BRANCH   7  13
ATOM     13  C   UNL     1       4.753   3.997  -0.020  0.00  0.00    +0.287 C 
BRANCH  13  14
ATOM     14  O   UNL     1       4.844   4.752  -1.257  0.00  0.00    -0.458 OA
BRANCH  14  15
ATOM     15  C   UNL     1       5.929   5.524  -1.422  0.00  0.00    +0.311 C 
ATOM     16  O   UNL     1       6.776   5.568  -0.562  0.00  0.00    -0.251 OA
BRANCH  15  17
ATOM     17  C   UNL     1       6.092   6.336  -2.682  0.00  0.00    +0.101 C 
ATOM     18  C   UNL     1       7.204   5.925  -3.649  0.00  0.00    +0.019 C 
ATOM     19  C   UNL     1       7.351   7.196  -2.810  0.00  0.00    +0.000 C 
ATOM     20  C   UNL     1       7.219   8.538  -3.532  0.00  0.00    +0.008 C 
ENDBRANCH  15  17
ENDBRANCH  14  15
ENDBRANCH  13  14
ENDBRANCH   7  13
TORSDOF 4
