REMARK  Name = ZINC01409292
REMARK  7 active torsions:
REMARK  status: ('A' for Active; 'I' for Inactive)
REMARK    1  A    between atoms: C_1  and  N_2
REMARK    2  A    between atoms: N_7  and  C_10
REMARK    3  A    between atoms: N_11  and  C_24
REMARK    4  A    between atoms: N_14  and  C_15
REMARK    5  A    between atoms: C_15  and  C_16
REMARK    6  A    between atoms: C_16  and  C_17
REMARK    7  A    between atoms: C_24  and  C_25
REMARK                            x       y       z     vdW  Elec       q    Type
REMARK                         _______ _______ _______ _____ _____    ______ ____
ROOT
ATOM      1  C   UNL     1       0.074  -4.574   1.037  0.00  0.00    +0.155 C 
ATOM      2  N   UNL     1       0.060  -3.192   1.524  0.00  0.00    -0.280 N 
ATOM      3  C   UNL     1       0.037  -2.140   0.622  0.00  0.00    +0.170 A 
ATOM      4  C   UNL     1       0.024  -0.838   1.112  0.00  0.00    +0.153 A 
ATOM      5  C   UNL     1       0.035  -0.627   2.502  0.00  0.00    +0.282 A 
ATOM      6  O   UNL     1       0.024   0.505   2.953  0.00  0.00    -0.265 OA
ATOM      7  N   UNL     1       0.057  -1.691   3.331  0.00  0.00    -0.262 N 
ATOM      8  C   UNL     1       0.069  -2.946   2.848  0.00  0.00    +0.333 A 
ATOM      9  O   UNL     1       0.089  -3.881   3.625  0.00  0.00    -0.246 OA
ATOM     10  C   UNL     1       0.069  -1.476   4.780  0.00  0.00    +0.157 C 
ATOM     11  N   UNL     1       0.002  -0.004   0.002  0.00  0.00    -0.302 N 
ATOM     12  C   UNL     1      -0.003  -0.809  -1.093  0.00  0.00    +0.198 A 
ATOM     13  N   UNL     1       0.024  -2.070  -0.710  0.00  0.00    -0.196 NA
ATOM     14  N   UNL     1      -0.029  -0.376  -2.399  0.00  0.00    -0.314 N 
ATOM     15  H   UNL     1      -0.045   0.574  -2.594  0.00  0.00    +0.149 HD
ENDROOT
BRANCH  14  16
ATOM     16  C   UNL     1      -0.032  -1.349  -3.494  0.00  0.00    +0.109 C 
BRANCH  16  17
ATOM     17  C   UNL     1      -0.062  -0.610  -4.833  0.00  0.00    +0.054 C 
BRANCH  17  18
ATOM     18  C   UNL     1      -0.065  -1.611  -5.960  0.00  0.00    -0.046 A 
ATOM     19  C   UNL     1       1.131  -2.049  -6.497  0.00  0.00    +0.006 A 
ATOM     20  C   UNL     1       1.129  -2.970  -7.527  0.00  0.00    +0.038 A 
ATOM     21  C   UNL     1      -0.071  -3.447  -8.027  0.00  0.00    +0.123 A 
ATOM     22  C   UNL     1      -1.268  -3.003  -7.491  0.00  0.00    +0.038 A 
ATOM     23  C   UNL     1      -1.264  -2.086  -6.458  0.00  0.00    +0.006 A 
ATOM     24  F   UNL     1      -0.074  -4.344  -9.037  0.00  0.00    -0.205 F 
ENDBRANCH  17  18
ENDBRANCH  16  17
ENDBRANCH  14  16
BRANCH  11  25
ATOM     25  C   UNL     1      -0.018   1.461   0.010  0.00  0.00    +0.160 C 
BRANCH  25  26
ATOM     26  C   UNL     1       1.396   1.982  -0.001  0.00  0.00    -0.028 A 
ATOM     27  C   UNL     1       2.054   2.221   1.192  0.00  0.00    +0.005 A 
ATOM     28  C   UNL     1       3.352   2.695   1.182  0.00  0.00    +0.000 A 
ATOM     29  C   UNL     1       3.990   2.940  -0.020  0.00  0.00    +0.000 A 
ATOM     30  C   UNL     1       3.330   2.707  -1.212  0.00  0.00    +0.000 A 
ATOM     31  C   UNL     1       2.033   2.228  -1.203  0.00  0.00    +0.005 A 
ENDBRANCH  25  26
ENDBRANCH  11  25
TORSDOF 5
