REMARK  Name = ZINC35966646
REMARK  12 active torsions:
REMARK  status: ('A' for Active; 'I' for Inactive)
REMARK    1  A    between atoms: C_1  and  C_2
REMARK    2  A    between atoms: C_2  and  N_3
REMARK    3  A    between atoms: C_6  and  C_11
REMARK    4  A    between atoms: C_16  and  C_17
REMARK    5  A    between atoms: N_23  and  C_25
REMARK    6  A    between atoms: C_25  and  C_27
REMARK    7  A    between atoms: C_25  and  C_31
REMARK    8  A    between atoms: C_27  and  C_28
REMARK    9  A    between atoms: C_28  and  C_29
REMARK   10  A    between atoms: C_28  and  C_30
REMARK   11  A    between atoms: N_33  and  C_34
REMARK   12  A    between atoms: C_34  and  C_35
REMARK                            x       y       z     vdW  Elec       q    Type
REMARK                         _______ _______ _______ _____ _____    ______ ____
ROOT
ATOM      1  N   UNL     1       1.111  -0.355   1.802  0.00  0.00    -0.257 N 
ATOM      2  C   UNL     1       2.270  -1.075   1.856  0.00  0.00    +0.042 C 
ATOM      3  C   UNL     1       2.942  -1.232   3.014  0.00  0.00    +0.058 C 
ATOM      4  C   UNL     1       2.367  -0.581   4.256  0.00  0.00    +0.142 C 
ATOM      5  N   UNL     1       1.113   0.174   4.093  0.00  0.00    -0.288 N 
ATOM      6  C   UNL     1       0.561   0.245   2.866  0.00  0.00    +0.307 C 
ATOM      7  O   UNL     1      -0.471   0.870   2.721  0.00  0.00    -0.252 OA
ATOM      8  C   UNL     1       4.098  -2.012   2.808  0.00  0.00    +0.247 C 
ATOM      9  O   UNL     1       4.891  -2.311   3.682  0.00  0.00    -0.270 OA
ATOM     10  N   UNL     1       4.212  -2.382   1.520  0.00  0.00    -0.281 N 
ATOM     11  C   UNL     1       3.059  -1.819   0.802  0.00  0.00    +0.160 C 
ATOM     12  H   UNL     1       0.697   0.613   4.851  0.00  0.00    +0.151 HD
ENDROOT
BRANCH   4  13
ATOM     13  C   UNL     1       3.406   0.358   4.811  0.00  0.00    -0.011 A 
ATOM     14  C   UNL     1       3.695   1.538   4.151  0.00  0.00    +0.006 A 
ATOM     15  C   UNL     1       4.648   2.400   4.660  0.00  0.00    +0.000 A 
ATOM     16  C   UNL     1       5.312   2.083   5.830  0.00  0.00    +0.001 A 
ATOM     17  C   UNL     1       5.022   0.904   6.491  0.00  0.00    +0.013 A 
ATOM     18  C   UNL     1       4.066   0.044   5.984  0.00  0.00    +0.060 A 
BRANCH  18  19
ATOM     19  C   UNL     1       3.747  -1.239   6.708  0.00  0.00    +0.418 C 
ATOM     20  F   UNL     1       4.495  -1.308   7.888  0.00  0.00    -0.166 F 
ATOM     21  F   UNL     1       2.383  -1.272   7.018  0.00  0.00    -0.166 F 
ATOM     22  F   UNL     1       4.066  -2.328   5.889  0.00  0.00    -0.166 F 
ENDBRANCH  18  19
ENDBRANCH   4  13
BRANCH   1  24
ATOM     23  C   UNL     1       0.961   1.012  -0.221  0.00  0.00    +0.025 C 
ATOM     24  C   UNL     1       0.435  -0.226   0.509  0.00  0.00    +0.111 C 
ENDBRANCH   1  24
BRANCH  10  25
ATOM     25  C   UNL     1       5.284  -3.195   0.940  0.00  0.00    +0.163 C 
BRANCH  25  26
ATOM     26  C   UNL     1       5.177  -4.607   1.453  0.00  0.00    +0.234 C 
ATOM     27  O   UNL     1       4.293  -4.906   2.227  0.00  0.00    -0.274 OA
ATOM     28  N   UNL     1       6.065  -5.539   1.053  0.00  0.00    -0.311 N 
ATOM     29  H   UNL     1       6.773  -5.300   0.434  0.00  0.00    +0.149 HD
BRANCH  28  30
ATOM     30  C   UNL     1       5.962  -6.912   1.552  0.00  0.00    +0.135 C 
BRANCH  30  31
ATOM     31  C   UNL     1       7.082  -7.761   0.946  0.00  0.00    +0.135 C 
ATOM     32  C   UNL     1       6.909  -9.235   1.370  0.00  0.00    +0.035 C 
ATOM     33  C   UNL     1       8.376  -9.679   1.624  0.00  0.00    +0.031 C 
ATOM     34  C   UNL     1       8.988  -8.368   2.178  0.00  0.00    +0.160 C 
ATOM     35  O   UNL     1       8.350  -7.313   1.437  0.00  0.00    -0.375 OA
ENDBRANCH  30  31
ENDBRANCH  28  30
ENDBRANCH  25  26
BRANCH  25  36
ATOM     36  C   UNL     1       6.640  -2.608   1.338  0.00  0.00    +0.035 C 
BRANCH  36  37
ATOM     37  C   UNL     1       6.819  -1.242   0.675  0.00  0.00    -0.015 C 
ATOM     38  C   UNL     1       5.801  -0.256   1.253  0.00  0.00    +0.007 C 
ATOM     39  C   UNL     1       8.235  -0.727   0.942  0.00  0.00    +0.007 C 
ENDBRANCH  36  37
ENDBRANCH  25  36
ENDBRANCH  10  25
TORSDOF 9
