REMARK  Name = ZINC16927557
REMARK  9 active torsions:
REMARK  status: ('A' for Active; 'I' for Inactive)
REMARK    1  A    between atoms: C_1  and  C_2
REMARK    2  A    between atoms: C_2  and  C_4
REMARK    3  A    between atoms: C_2  and  N_49
REMARK    4  A    between atoms: C_7  and  S_16
REMARK    5  A    between atoms: N_8  and  C_9
REMARK    6  A    between atoms: S_16  and  C_17
REMARK    7  A    between atoms: C_17  and  C_18
REMARK    8  A    between atoms: C_28  and  N_49
REMARK    9  A    between atoms: C_29  and  N_49
REMARK                            x       y       z     vdW  Elec       q    Type
REMARK                         _______ _______ _______ _____ _____    ______ ____
ROOT
ATOM      1  C   UNL     1      10.431   0.876  -1.769  0.00  0.00    +0.125 A 
ATOM      2  N   UNL     1      10.149   0.867  -0.497  0.00  0.00    -0.135 NA
ATOM      3  N   UNL     1       8.876   0.854  -0.326  0.00  0.00    -0.122 NA
ATOM      4  C   UNL     1       8.268   0.854  -1.489  0.00  0.00    +0.196 A 
ATOM      5  N   UNL     1       9.242   0.864  -2.449  0.00  0.00    -0.275 N 
ENDROOT
BRANCH   5   6
ATOM      6  C   UNL     1       9.061   0.863  -3.841  0.00  0.00    +0.050 A 
ATOM      7  C   UNL     1       9.489  -0.219  -4.597  0.00  0.00    +0.028 A 
ATOM      8  C   UNL     1       9.306  -0.219  -5.966  0.00  0.00    +0.022 A 
ATOM      9  C   UNL     1       8.705   0.863  -6.585  0.00  0.00    +0.041 A 
ATOM     10  C   UNL     1       8.282   1.945  -5.833  0.00  0.00    +0.022 A 
ATOM     11  C   UNL     1       8.459   1.948  -4.463  0.00  0.00    +0.028 A 
ATOM     12 CL   UNL     1       8.481   0.863  -8.306  0.00  0.00    -0.084 Cl
ENDBRANCH   5   6
BRANCH   1  14
ATOM     13  C   UNL     1      12.413   2.291  -2.237  0.00  0.00    -0.005 C 
ATOM     14  C   UNL     1      11.809   0.892  -2.379  0.00  0.00    -0.003 C 
BRANCH  14  17
ATOM     15  C   UNL     1      13.979  -0.180  -2.331  0.00  0.00    -0.096 C 
ATOM     16  C   UNL     1      12.796   0.253  -0.263  0.00  0.00    -0.096 C 
ATOM     17  N   UNL     1      12.649  -0.108  -1.689  0.00  0.00    +0.382 N 
ATOM     18  H   UNL     1      12.197  -1.027  -1.756  0.00  0.00    -0.082 HD
ENDBRANCH  14  17
ENDBRANCH   1  14
BRANCH   4  19
ATOM     19  S   UNL     1       6.527   0.838  -1.762  0.00  0.00    -0.079 S 
BRANCH  19  20
ATOM     20  C   UNL     1       5.941   0.823  -0.050  0.00  0.00    +0.134 C 
BRANCH  20  21
ATOM     21  C   UNL     1       4.434   0.807  -0.035  0.00  0.00    +0.070 A 
ATOM     22  C   UNL     1       3.634   1.897  -0.022  0.00  0.00    +0.116 A 
ATOM     23  N   UNL     1       2.341   1.449  -0.013  0.00  0.00    -0.305 N 
ATOM     24  C   UNL     1       1.140   2.098   0.002  0.00  0.00    +0.112 A 
ATOM     25  C   UNL     1      -0.017   1.401   0.010  0.00  0.00    +0.058 A 
ATOM     26  C   UNL     1       0.002  -0.004   0.002  0.00  0.00    +0.025 A 
ATOM     27  C   UNL     1       1.193  -0.662  -0.013  0.00  0.00    +0.048 A 
ATOM     28  C   UNL     1       2.391   0.080  -0.020  0.00  0.00    +0.138 A 
ATOM     29  N   UNL     1       3.666  -0.285  -0.034  0.00  0.00    -0.232 NA
ATOM     30 CL   UNL     1      -1.534   2.245   0.021  0.00  0.00    -0.082 Cl
ENDBRANCH  20  21
ENDBRANCH  19  20
ENDBRANCH   4  19
TORSDOF 6
