REMARK  Name = ZINC11879354
REMARK  5 active torsions:
REMARK  status: ('A' for Active; 'I' for Inactive)
REMARK    1  A    between atoms: C_7  and  N_13
REMARK    2  A    between atoms: C_14  and  C_16
REMARK    3  A    between atoms: N_18  and  C_21
REMARK    4  A    between atoms: C_21  and  C_22
REMARK    5  A    between atoms: C_22  and  N_51
REMARK                            x       y       z     vdW  Elec       q    Type
REMARK                         _______ _______ _______ _____ _____    ______ ____
ROOT
ATOM      1  N   UNL     1      -2.297  -0.337   0.631  0.00  0.00    -0.303 N 
ATOM      2  C   UNL     1      -3.111  -1.363   0.315  0.00  0.00    +0.266 C 
ATOM      3  O   UNL     1      -4.026  -1.194  -0.468  0.00  0.00    -0.268 OA
ATOM      4  H   UNL     1      -1.567  -0.471   1.256  0.00  0.00    +0.150 HD
ENDROOT
BRANCH   1  11
ATOM      5  C   UNL     1       1.176   1.783   0.000  0.00  0.00    +0.000 A 
ATOM      6  C   UNL     1       1.161   3.166   0.008  0.00  0.00    +0.002 A 
ATOM      7  C   UNL     1      -0.042   3.846   0.022  0.00  0.00    +0.023 A 
ATOM      8  C   UNL     1      -1.236   3.138   0.030  0.00  0.00    +0.038 A 
ATOM      9  C   UNL     1      -1.218   1.750   0.017  0.00  0.00    -0.006 A 
ATOM     10  C   UNL     1      -0.013   1.076   0.008  0.00  0.00    +0.007 A 
ATOM     11  C   UNL     1      -2.514   0.983   0.033  0.00  0.00    +0.114 C 
ATOM     12  C   UNL     1      -3.556   1.748   0.850  0.00  0.00    +0.123 C 
ATOM     13  C   UNL     1      -3.585   3.190   0.421  0.00  0.00    +0.219 C 
ATOM     14  O   UNL     1      -4.638   3.791   0.413  0.00  0.00    -0.275 OA
ATOM     15  N   UNL     1      -2.457   3.820   0.045  0.00  0.00    -0.285 N 
ATOM     16  H   UNL     1      -2.491   4.753  -0.217  0.00  0.00    +0.155 HD
ENDBRANCH   1  11
BRANCH   2  17
ATOM     17  C   UNL     1      -2.892  -2.691   0.918  0.00  0.00    +0.167 A 
ATOM     18  C   UNL     1      -3.642  -3.809   0.682  0.00  0.00    +0.143 A 
ATOM     19  N   UNL     1      -3.110  -4.800   1.425  0.00  0.00    -0.253 N 
ATOM     20  N   UNL     1      -2.020  -4.250   2.114  0.00  0.00    -0.065 NA
ATOM     21  N   UNL     1      -1.918  -3.008   1.788  0.00  0.00    -0.125 NA
BRANCH  19  22
ATOM     22  C   UNL     1      -3.579  -6.186   1.497  0.00  0.00    +0.127 C 
BRANCH  22  23
ATOM     23  C   UNL     1      -2.425  -7.133   1.163  0.00  0.00    -0.055 C 
BRANCH  23  29
ATOM     24  C   UNL     1      -3.264  -8.883   2.611  0.00  0.00    -0.079 C 
ATOM     25  C   UNL     1      -3.885 -10.282   2.626  0.00  0.00    -0.019 C 
ATOM     26  C   UNL     1      -2.875 -11.288   2.068  0.00  0.00    -0.004 C 
ATOM     27  C   UNL     1      -2.471 -10.864   0.653  0.00  0.00    -0.019 C 
ATOM     28  C   UNL     1      -1.892  -9.448   0.696  0.00  0.00    -0.079 C 
ATOM     29  N   UNL     1      -2.921  -8.524   1.219  0.00  0.00    +0.381 N 
ATOM     30  H   UNL     1      -3.764  -8.601   0.638  0.00  0.00    -0.082 HD
ENDBRANCH  23  29
ENDBRANCH  22  23
ENDBRANCH  19  22
ENDBRANCH   2  17
TORSDOF 5
