REMARK  Name = ZINC35969962
REMARK  11 active torsions:
REMARK  status: ('A' for Active; 'I' for Inactive)
REMARK    1  A    between atoms: C_1  and  C_2
REMARK    2  A    between atoms: C_5  and  C_8
REMARK    3  A    between atoms: C_10  and  C_34
REMARK    4  A    between atoms: C_11  and  C_33
REMARK    5  A    between atoms: C_15  and  C_18
REMARK    6  A    between atoms: C_19  and  N_21
REMARK    7  A    between atoms: C_24  and  N_27
REMARK    8  A    between atoms: C_34  and  O_36
REMARK    9  A    between atoms: O_36  and  C_37
REMARK   10  A    between atoms: C_37  and  C_38
REMARK   11  A    between atoms: C_37  and  C_39
REMARK                            x       y       z     vdW  Elec       q    Type
REMARK                         _______ _______ _______ _____ _____    ______ ____
ROOT
ATOM      1  C   UNL     1      -0.055  -4.031   0.053  0.00  0.00    +0.150 C 
ATOM      2  C   UNL     1       1.287  -4.669  -0.229  0.00  0.00    +0.082 C 
ATOM      3  C   UNL     1       1.633  -5.791   0.499  0.00  0.00    +0.053 C 
ATOM      4  N   UNL     1       0.806  -6.281   1.409  0.00  0.00    -0.230 NA
ATOM      5  C   UNL     1      -0.374  -5.774   1.702  0.00  0.00    +0.166 C 
ATOM      6  N   UNL     1      -0.900  -4.668   1.098  0.00  0.00    -0.267 N 
ATOM      7  C   UNL     1      -2.151  -4.261   1.517  0.00  0.00    +0.048 C 
ATOM      8  C   UNL     1      -2.753  -4.984   2.487  0.00  0.00    +0.072 C 
ATOM      9  S   UNL     1      -1.543  -6.249   2.809  0.00  0.00    -0.060 S 
ATOM     10  C   UNL     1       2.959  -6.463   0.255  0.00  0.00    +0.066 C 
ENDROOT
BRANCH   1  15
ATOM     11  C   UNL     1       0.872   1.455   1.615  0.00  0.00    +0.044 C 
ATOM     12  C   UNL     1       0.631   0.024   1.208  0.00  0.00    -0.050 A 
ATOM     13  C   UNL     1       0.181  -0.265  -0.067  0.00  0.00    +0.004 A 
ATOM     14  C   UNL     1      -0.041  -1.577  -0.441  0.00  0.00    +0.006 A 
ATOM     15  C   UNL     1       0.188  -2.600   0.460  0.00  0.00    -0.022 A 
ATOM     16  C   UNL     1       0.638  -2.312   1.735  0.00  0.00    +0.006 A 
ATOM     17  C   UNL     1       0.864  -1.000   2.107  0.00  0.00    +0.004 A 
ENDBRANCH   1  15
BRANCH   7  18
ATOM     18  C   UNL     1      -2.804  -3.082   0.930  0.00  0.00    +0.091 C 
ATOM     19  C   UNL     1      -4.077  -2.786   1.254  0.00  0.00    +0.241 C 
ATOM     20  O   UNL     1      -4.717  -3.503   2.211  0.00  0.00    -0.271 OA
BRANCH  19  21
ATOM     21  N   UNL     1      -4.733  -1.751   0.610  0.00  0.00    -0.298 N 
ATOM     22  C   UNL     1      -4.423  -1.423  -0.788  0.00  0.00    +0.106 C 
ATOM     23  C   UNL     1      -5.726  -1.423  -1.595  0.00  0.00    +0.004 C 
ATOM     24  C   UNL     1      -6.730  -0.475  -0.934  0.00  0.00    -0.066 C 
ATOM     25  C   UNL     1      -7.039  -0.963   0.483  0.00  0.00    +0.004 C 
ATOM     26  C   UNL     1      -5.756  -0.962   1.311  0.00  0.00    +0.106 C 
BRANCH  24  27
ATOM     27  N   UNL     1      -7.968  -0.447  -1.724  0.00  0.00    +0.382 N 
ATOM     28  C   UNL     1      -7.670   0.014  -3.085  0.00  0.00    -0.078 C 
ATOM     29  C   UNL     1      -8.941  -0.033  -3.934  0.00  0.00    -0.019 C 
ATOM     30  C   UNL     1     -10.001   0.877  -3.306  0.00  0.00    -0.004 C 
ATOM     31  C   UNL     1     -10.251   0.433  -1.862  0.00  0.00    -0.019 C 
ATOM     32  C   UNL     1      -8.931   0.462  -1.090  0.00  0.00    -0.078 C 
ATOM     33  H   UNL     1      -8.361  -1.376  -1.764  0.00  0.00    -0.081 HD
ENDBRANCH  24  27
ENDBRANCH  19  21
ENDBRANCH   7  18
BRANCH   2  34
ATOM     34  C   UNL     1       2.151  -4.140  -1.196  0.00  0.00    +0.339 C 
ATOM     35  O   UNL     1       3.273  -4.597  -1.325  0.00  0.00    -0.245 OA
BRANCH  34  36
ATOM     36  O   UNL     1       1.740  -3.123  -1.985  0.00  0.00    -0.459 OA
BRANCH  36  37
ATOM     37  C   UNL     1       2.673  -2.632  -2.950  0.00  0.00    +0.171 C 
ATOM     38  C   UNL     1       2.508  -3.407  -4.259  0.00  0.00    +0.052 C 
ATOM     39  C   UNL     1       2.413  -1.146  -3.201  0.00  0.00    +0.052 C 
ENDBRANCH  36  37
ENDBRANCH  34  36
ENDBRANCH   2  34
TORSDOF 7
