REMARK  Name = ZINC59982405
REMARK  12 active torsions:
REMARK  status: ('A' for Active; 'I' for Inactive)
REMARK    1  A    between atoms: C_1  and  C_2
REMARK    2  A    between atoms: C_5  and  C_33
REMARK    3  A    between atoms: N_8  and  C_10
REMARK    4  A    between atoms: C_10  and  C_11
REMARK    5  A    between atoms: C_10  and  C_12
REMARK    6  A    between atoms: C_10  and  C_13
REMARK    7  A    between atoms: C_13  and  N_14
REMARK    8  A    between atoms: C_15  and  C_17
REMARK    9  A    between atoms: C_17  and  N_18
REMARK   10  A    between atoms: N_18  and  C_19
REMARK   11  A    between atoms: N_18  and  S_20
REMARK   12  A    between atoms: S_20  and  C_23
REMARK                            x       y       z     vdW  Elec       q    Type
REMARK                         _______ _______ _______ _____ _____    ______ ____
ROOT
ATOM      1  N   UNL     1       0.625  -0.480   3.560  0.00  0.00    -0.316 N 
ATOM      2  C   UNL     1      -0.331  -0.065   4.415  0.00  0.00    +0.229 C 
ATOM      3  O   UNL     1      -0.087   0.809   5.220  0.00  0.00    -0.274 OA
ATOM      4  H   UNL     1       0.430  -1.178   2.916  0.00  0.00    +0.149 HD
ENDROOT
BRANCH   1   5
ATOM      5  C   UNL     1       1.959   0.125   3.603  0.00  0.00    +0.092 C 
BRANCH   5   6
ATOM      6  C   UNL     1       2.882  -0.607   2.627  0.00  0.00    -0.055 C 
ATOM      7  C   UNL     1       4.296  -0.031   2.733  0.00  0.00    -0.008 C 
ATOM      8  C   UNL     1       2.363  -0.424   1.199  0.00  0.00    -0.008 C 
BRANCH   6  14
ATOM      9  C   UNL     1       1.893  -4.205   4.598  0.00  0.00    +0.005 C 
ATOM     10  C   UNL     1       3.330  -3.692   4.716  0.00  0.00    -0.031 C 
ATOM     11  C   UNL     1       4.235  -4.483   3.767  0.00  0.00    +0.003 C 
ATOM     12  C   UNL     1       3.784  -4.237   2.325  0.00  0.00    -0.031 C 
ATOM     13  C   UNL     1       3.814  -2.735   2.036  0.00  0.00    -0.075 C 
ATOM     14  N   UNL     1       2.909  -2.038   2.958  0.00  0.00    +0.384 N 
ATOM     15  C   UNL     1       3.377  -2.209   4.340  0.00  0.00    -0.075 C 
ATOM     16  C   UNL     1       4.729  -4.962   1.363  0.00  0.00    +0.005 C 
ATOM     17  H   UNL     1       1.980  -2.420   2.869  0.00  0.00    -0.081 HD
ENDBRANCH   6  14
ENDBRANCH   5   6
ENDBRANCH   1   5
BRANCH   2  18
ATOM     18  C   UNL     1      -1.703  -0.687   4.370  0.00  0.00    +0.204 C 
BRANCH  18  19
ATOM     19  N   UNL     1      -2.553  -0.068   5.391  0.00  0.00    -0.171 NA
ATOM     20  C   UNL     1      -3.262   1.179   5.096  0.00  0.00    +0.132 C 
BRANCH  19  21
ATOM     21  S   UNL     1      -2.711  -0.779   6.878  0.00  0.00    +0.061 S 
ATOM     22  O   UNL     1      -3.946  -0.327   7.415  0.00  0.00    -0.153 OA
ATOM     23  O   UNL     1      -2.416  -2.158   6.703  0.00  0.00    -0.153 OA
BRANCH  21  24
ATOM     24  C   UNL     1      -1.443  -0.120   7.909  0.00  0.00    +0.109 A 
ATOM     25  C   UNL     1      -0.208  -0.739   7.965  0.00  0.00    +0.032 A 
ATOM     26  C   UNL     1       0.789  -0.226   8.773  0.00  0.00    +0.051 A 
ATOM     27  C   UNL     1       0.553   0.913   9.528  0.00  0.00    +0.162 A 
ATOM     28  C   UNL     1      -0.687   1.537   9.470  0.00  0.00    +0.164 A 
ATOM     29  C   UNL     1      -1.682   1.019   8.654  0.00  0.00    +0.078 A 
ATOM     30  O   UNL     1      -0.937   2.660  10.197  0.00  0.00    -0.485 OA
ATOM     31  C   UNL     1      -0.041   2.939  11.279  0.00  0.00    +0.270 C 
ATOM     32  C   UNL     1       1.396   2.756  10.773  0.00  0.00    +0.270 C 
ATOM     33  O   UNL     1       1.544   1.405  10.322  0.00  0.00    -0.485 OA
ENDBRANCH  21  24
ENDBRANCH  19  21
ENDBRANCH  18  19
ENDBRANCH   2  18
TORSDOF 7
