REMARK  Name = ZINC06301188
REMARK  10 active torsions:
REMARK  status: ('A' for Active; 'I' for Inactive)
REMARK    1  A    between atoms: C_1  and  C_2
REMARK    2  A    between atoms: C_4  and  C_37
REMARK    3  A    between atoms: C_9  and  C_14
REMARK    4  A    between atoms: C_14  and  C_16
REMARK    5  A    between atoms: C_14  and  N_67
REMARK    6  A    between atoms: N_20  and  C_21
REMARK    7  A    between atoms: C_21  and  C_22
REMARK    8  A    between atoms: C_25  and  O_28
REMARK    9  A    between atoms: O_28  and  C_29
REMARK   10  A    between atoms: C_33  and  C_36
REMARK                            x       y       z     vdW  Elec       q    Type
REMARK                         _______ _______ _______ _____ _____    ______ ____
ROOT
ATOM      1  C   UNL     1       0.069   1.179   4.925  0.00  0.00    +0.039 C 
ENDROOT
BRANCH   1  10
ATOM      2  C   UNL     1      -3.126   0.019  11.563  0.00  0.00    +0.044 C 
ATOM      3  C   UNL     1      -2.747   0.936  10.430  0.00  0.00    -0.050 A 
ATOM      4  C   UNL     1      -3.090   2.280  10.488  0.00  0.00    +0.008 A 
ATOM      5  C   UNL     1      -2.754   3.137   9.463  0.00  0.00    -0.026 A 
ATOM      6  C   UNL     1      -2.064   2.653   8.356  0.00  0.00    +0.052 A 
ATOM      7  C   UNL     1      -1.718   1.290   8.300  0.00  0.00    -0.001 A 
ATOM      8  C   UNL     1      -2.069   0.438   9.353  0.00  0.00    +0.013 A 
ATOM      9  C   UNL     1      -0.997   0.788   7.129  0.00  0.00    +0.017 A 
ATOM     10  C   UNL     1      -0.678   1.661   6.142  0.00  0.00    +0.011 A 
ATOM     11  C   UNL     1      -1.048   3.019   6.247  0.00  0.00    +0.251 A 
ATOM     12  O   UNL     1      -0.755   3.786   5.346  0.00  0.00    -0.268 OA
ATOM     13  N   UNL     1      -1.715   3.488   7.316  0.00  0.00    -0.322 N 
ATOM     14  H   UNL     1      -1.955   4.427   7.356  0.00  0.00    +0.169 HD
ATOM     15  C   UNL     1      -3.132   4.594   9.540  0.00  0.00    +0.046 C 
ENDBRANCH   1  10
BRANCH   1  22
ATOM     16  C   UNL     1      -2.053   0.990   3.775  0.00  0.00    -0.077 C 
ATOM     17  C   UNL     1      -2.854   1.494   2.572  0.00  0.00    -0.018 C 
ATOM     18  C   UNL     1      -2.164   1.046   1.281  0.00  0.00    -0.001 C 
ATOM     19  C   UNL     1      -0.729   1.579   1.267  0.00  0.00    -0.031 C 
ATOM     20  C   UNL     1       0.011   1.073   2.507  0.00  0.00    -0.074 C 
ATOM     21  C   UNL     1      -0.013   1.086   0.008  0.00  0.00    +0.005 C 
ATOM     22  N   UNL     1      -0.690   1.558   3.715  0.00  0.00    +0.389 N 
ATOM     23  H   UNL     1      -0.757   2.582   3.672  0.00  0.00    -0.080 HD
ENDBRANCH   1  22
BRANCH   1  24
ATOM     24  C   UNL     1       1.425   1.833   4.876  0.00  0.00    +0.143 A 
ATOM     25  N   UNL     1       1.684   3.073   4.538  0.00  0.00    -0.115 NA
ATOM     26  N   UNL     1       2.958   3.250   4.621  0.00  0.00    -0.023 NA
ATOM     27  N   UNL     1       3.518   2.155   5.002  0.00  0.00    -0.044 NA
ATOM     28  N   UNL     1       2.606   1.260   5.175  0.00  0.00    -0.226 N 
BRANCH  28  29
ATOM     29  C   UNL     1       2.815  -0.123   5.612  0.00  0.00    +0.182 C 
BRANCH  29  30
ATOM     30  C   UNL     1       3.034  -1.002   4.408  0.00  0.00    -0.026 A 
ATOM     31  C   UNL     1       1.955  -1.610   3.792  0.00  0.00    +0.009 A 
ATOM     32  C   UNL     1       2.152  -2.412   2.685  0.00  0.00    +0.046 A 
ATOM     33  C   UNL     1       3.435  -2.616   2.197  0.00  0.00    +0.120 A 
ATOM     34  C   UNL     1       4.516  -2.010   2.820  0.00  0.00    +0.046 A 
ATOM     35  C   UNL     1       4.313  -1.205   3.924  0.00  0.00    +0.009 A 
BRANCH  33  36
ATOM     36  O   UNL     1       3.632  -3.410   1.111  0.00  0.00    -0.495 OA
ATOM     37  C   UNL     1       2.473  -4.001   0.521  0.00  0.00    +0.277 C 
ENDBRANCH  33  36
ENDBRANCH  29  30
ENDBRANCH  28  29
ENDBRANCH   1  24
TORSDOF 6
