REMARK  Name = ZINC38959123
REMARK  2 active torsions:
REMARK  status: ('A' for Active; 'I' for Inactive)
REMARK    1  A    between atoms: N_10  and  C_11
REMARK    2  A    between atoms: C_11  and  C_13
REMARK                            x       y       z     vdW  Elec       q    Type
REMARK                         _______ _______ _______ _____ _____    ______ ____
ROOT
ATOM      1  C   UNL     1      -0.015   1.372   0.021  0.00  0.00    +0.002 A 
ATOM      2  C   UNL     1       1.161   2.105   0.025  0.00  0.00    +0.001 A 
ATOM      3  C   UNL     1       2.374   1.440   0.013  0.00  0.00    +0.017 A 
ATOM      4  C   UNL     1       2.394   0.066  -0.002  0.00  0.00    +0.039 A 
ATOM      5  C   UNL     1       1.219  -0.701  -0.007  0.00  0.00    +0.055 A 
ATOM      6  C   UNL     1       0.003  -0.003   0.005  0.00  0.00    +0.027 A 
ATOM      7  N   UNL     1       1.443  -2.064  -0.022  0.00  0.00    -0.335 N 
ATOM      8  H   UNL     1       0.694  -2.680  -0.027  0.00  0.00    +0.168 HD
ATOM      9  C   UNL     1       2.714  -2.540  -0.032  0.00  0.00    +0.164 A 
ATOM     10  N   UNL     1       3.110  -3.811  -0.048  0.00  0.00    -0.153 NA
ATOM     11  S   UNL     1       3.675  -1.161  -0.021  0.00  0.00    -0.052 S 
ENDROOT
BRANCH  10  12
ATOM     12  C   UNL     1       2.215  -4.787   0.055  0.00  0.00    +0.279 C 
ATOM     13  O   UNL     1       1.028  -4.524   0.068  0.00  0.00    -0.270 OA
BRANCH  12  14
ATOM     14  C   UNL     1       2.671  -6.220   0.156  0.00  0.00    +0.265 C 
ATOM     15  C   UNL     1       3.315  -6.691  -1.171  0.00  0.00    +0.085 C 
ATOM     16  C   UNL     1       2.817  -8.124  -1.263  0.00  0.00    +0.030 C 
ATOM     17  C   UNL     1       1.825  -8.250  -0.405  0.00  0.00    +0.160 C 
ATOM     18  O   UNL     1       1.546  -7.112   0.271  0.00  0.00    -0.473 OA
ATOM     19 BR   UNL     1       0.882  -9.868  -0.143  0.00  0.00    -0.009 Br
ENDBRANCH  12  14
ENDBRANCH  10  12
TORSDOF 2
