REMARK  Name = ZINC08837922
REMARK  3 active torsions:
REMARK  status: ('A' for Active; 'I' for Inactive)
REMARK    1  A    between atoms: C_12  and  C_32
REMARK    2  A    between atoms: N_20  and  C_23
REMARK    3  A    between atoms: C_26  and  N_29
REMARK                            x       y       z     vdW  Elec       q    Type
REMARK                         _______ _______ _______ _____ _____    ______ ____
ROOT
ATOM      1  C   UNL     1      -2.399   8.963   2.658  0.00  0.00    +0.001 A 
ATOM      2  C   UNL     1      -1.972   7.672   2.401  0.00  0.00    +0.002 A 
ATOM      3  C   UNL     1      -2.758   6.805   1.666  0.00  0.00    +0.024 A 
ATOM      4  C   UNL     1      -3.981   7.223   1.174  0.00  0.00    +0.038 A 
ATOM      5  C   UNL     1      -4.405   8.555   1.412  0.00  0.00    -0.004 A 
ATOM      6  C   UNL     1      -3.615   9.403   2.172  0.00  0.00    +0.010 A 
ATOM      7  C   UNL     1      -5.712   8.978   0.864  0.00  0.00    +0.007 C 
ATOM      8  C   UNL     1      -6.243   8.291  -0.157  0.00  0.00    -0.003 C 
ATOM      9  C   UNL     1      -5.437   7.143  -0.698  0.00  0.00    +0.110 C 
ATOM     10  N   UNL     1      -4.821   6.431   0.470  0.00  0.00    -0.310 N 
ATOM     11  C   UNL     1      -4.527   5.049   0.072  0.00  0.00    +0.177 C 
ATOM     12  C   UNL     1      -5.085   4.955  -1.298  0.00  0.00    +0.119 C 
ATOM     13  C   UNL     1      -6.277   6.008  -1.283  0.00  0.00    +0.114 C 
ATOM     14  C   UNL     1      -6.529   5.952  -2.765  0.00  0.00    +0.232 C 
ATOM     15  O   UNL     1      -6.852   6.870  -3.488  0.00  0.00    -0.274 OA
ATOM     16  N   UNL     1      -6.319   4.651  -3.127  0.00  0.00    -0.210 N 
ATOM     17  C   UNL     1      -5.617   3.944  -2.183  0.00  0.00    +0.232 C 
ATOM     18  O   UNL     1      -5.475   2.742  -2.108  0.00  0.00    -0.274 OA
ENDROOT
BRANCH  11  19
ATOM     19  C   UNL     1      -3.039   4.806   0.057  0.00  0.00    +0.270 C 
ATOM     20  O   UNL     1      -2.329   5.454  -0.675  0.00  0.00    -0.269 OA
ATOM     21  N   UNL     1      -2.502   3.867   0.860  0.00  0.00    -0.178 N 
ATOM     22  C   UNL     1      -1.166   3.531   0.959  0.00  0.00    +0.098 A 
ATOM     23  C   UNL     1      -0.009   3.982   0.338  0.00  0.00    +0.030 A 
ATOM     24  C   UNL     1       1.206   3.423   0.669  0.00  0.00    +0.002 A 
ATOM     25  C   UNL     1       1.280   2.412   1.617  0.00  0.00    +0.002 A 
ATOM     26  C   UNL     1       0.153   1.956   2.239  0.00  0.00    +0.032 A 
ATOM     27  C   UNL     1      -1.093   2.504   1.915  0.00  0.00    +0.113 A 
ATOM     28  N   UNL     1      -2.354   2.259   2.349  0.00  0.00    -0.129 NA
ATOM     29  N   UNL     1      -3.191   3.030   1.750  0.00  0.00    -0.057 NA
ENDBRANCH  11  19
BRANCH  16  30
ATOM     30  C   UNL     1      -6.770   4.099  -4.334  0.00  0.00    +0.044 A 
ATOM     31  C   UNL     1      -6.509   2.768  -4.631  0.00  0.00    +0.026 A 
ATOM     32  C   UNL     1      -6.959   2.225  -5.818  0.00  0.00    +0.034 A 
ATOM     33  C   UNL     1      -7.660   3.009  -6.716  0.00  0.00    +0.126 A 
ATOM     34  C   UNL     1      -7.917   4.336  -6.426  0.00  0.00    +0.034 A 
ATOM     35  C   UNL     1      -7.474   4.883  -5.238  0.00  0.00    +0.026 A 
BRANCH  33  36
ATOM     36  N   UNL     1      -8.136   2.425  -7.991  0.00  0.00    +0.056 N 
ATOM     37  O   UNL     1      -8.754   3.115  -8.783  0.00  0.00    -0.126 OA
ATOM     38  O   UNL     1      -7.910   1.257  -8.248  0.00  0.00    -0.126 OA
ENDBRANCH  33  36
ENDBRANCH  16  30
TORSDOF 3
