REMARK  Name = ZINC30961234
REMARK  10 active torsions:
REMARK  status: ('A' for Active; 'I' for Inactive)
REMARK    1  A    between atoms: C_1  and  C_2
REMARK    2  A    between atoms: C_2  and  C_3
REMARK    3  A    between atoms: C_2  and  C_4
REMARK    4  A    between atoms: C_4  and  C_6
REMARK    5  A    between atoms: C_4  and  N_28
REMARK    6  A    between atoms: N_8  and  N_9
REMARK    7  A    between atoms: C_10  and  C_11
REMARK    8  A    between atoms: N_13  and  C_20
REMARK    9  A    between atoms: C_20  and  C_21
REMARK   10  A    between atoms: C_29  and  C_31
REMARK                            x       y       z     vdW  Elec       q    Type
REMARK                         _______ _______ _______ _____ _____    ______ ____
ROOT
ATOM      1  C   UNL     1      -4.197   4.951  -0.367  0.00  0.00    +0.253 C 
ATOM      2  O   UNL     1      -4.934   5.912  -0.286  0.00  0.00    -0.272 OA
ATOM      3  N   UNL     1      -2.861   5.124  -0.356  0.00  0.00    -0.205 N 
ATOM      4  H   UNL     1      -2.193   4.249  -0.357  0.00  0.00    +0.177 HD
ENDROOT
BRANCH   3   5
ATOM      5  N   UNL     1      -2.322   6.417  -0.342  0.00  0.00    -0.188 NA
ATOM      6  C   UNL     1      -1.041   6.588  -0.480  0.00  0.00    +0.140 C 
BRANCH   6   7
ATOM      7  C   UNL     1      -0.220   5.532  -1.094  0.00  0.00    +0.020 A 
ATOM      8  C   UNL     1      -0.671   4.429  -1.749  0.00  0.00    +0.096 A 
ATOM      9  N   UNL     1       0.388   3.684  -2.177  0.00  0.00    -0.342 N 
ATOM     10  C   UNL     1       1.573   4.285  -1.811  0.00  0.00    +0.050 A 
ATOM     11  C   UNL     1       1.252   5.464  -1.119  0.00  0.00    +0.009 A 
ATOM     12  C   UNL     1       2.266   6.282  -0.626  0.00  0.00    +0.010 A 
ATOM     13  C   UNL     1       3.583   5.925  -0.815  0.00  0.00    +0.001 A 
ATOM     14  C   UNL     1       3.902   4.763  -1.503  0.00  0.00    +0.002 A 
ATOM     15  C   UNL     1       2.909   3.945  -1.996  0.00  0.00    +0.026 A 
BRANCH   9  16
ATOM     16  C   UNL     1       0.280   2.426  -2.920  0.00  0.00    +0.157 C 
BRANCH  16  17
ATOM     17  C   UNL     1       0.323   1.268  -1.957  0.00  0.00    -0.028 A 
ATOM     18  C   UNL     1       1.540   0.756  -1.546  0.00  0.00    +0.008 A 
ATOM     19  C   UNL     1       1.580  -0.302  -0.659  0.00  0.00    +0.038 A 
ATOM     20  C   UNL     1       0.402  -0.858  -0.190  0.00  0.00    +0.123 A 
ATOM     21  C   UNL     1      -0.816  -0.348  -0.607  0.00  0.00    +0.038 A 
ATOM     22  C   UNL     1      -0.854   0.715  -1.490  0.00  0.00    +0.008 A 
ATOM     23  F   UNL     1       0.440  -1.896   0.674  0.00  0.00    -0.205 F 
ENDBRANCH  16  17
ENDBRANCH   9  16
ENDBRANCH   6   7
ENDBRANCH   3   5
BRANCH   1  24
ATOM     24  C   UNL     1      -4.777   3.565  -0.480  0.00  0.00    +0.163 C 
BRANCH  24  25
ATOM     25  N   UNL     1      -6.182   3.654  -0.885  0.00  0.00    -0.300 N 
ATOM     26  C   UNL     1      -6.766   2.623  -1.526  0.00  0.00    +0.245 C 
ATOM     27  O   UNL     1      -6.127   1.618  -1.768  0.00  0.00    -0.270 OA
ATOM     28  H   UNL     1      -6.761   4.564  -0.666  0.00  0.00    +0.150 HD
BRANCH  26  29
ATOM     29  C   UNL     1      -8.184   2.713  -1.935  0.00  0.00    +0.038 A 
ATOM     30  C   UNL     1      -8.792   1.646  -2.599  0.00  0.00    +0.013 A 
ATOM     31  C   UNL     1     -10.115   1.736  -2.977  0.00  0.00    +0.002 A 
ATOM     32  C   UNL     1     -10.841   2.881  -2.700  0.00  0.00    +0.020 A 
ATOM     33  C   UNL     1     -10.245   3.943  -2.041  0.00  0.00    +0.042 A 
ATOM     34  C   UNL     1      -8.922   3.863  -1.653  0.00  0.00    +0.033 A 
ATOM     35 CL   UNL     1     -11.165   5.375  -1.696  0.00  0.00    -0.084 Cl
ENDBRANCH  26  29
ENDBRANCH  24  25
BRANCH  24  37
ATOM     36  C   UNL     1      -5.182   1.421   0.737  0.00  0.00    +0.009 C 
ATOM     37  C   UNL     1      -4.681   2.860   0.874  0.00  0.00    +0.012 C 
ATOM     38  C   UNL     1      -3.224   2.849   1.341  0.00  0.00    +0.009 C 
ENDBRANCH  24  37
ENDBRANCH   1  24
TORSDOF 8
