REMARK  Name = ZINC08443099
REMARK  9 active torsions:
REMARK  status: ('A' for Active; 'I' for Inactive)
REMARK    1  A    between atoms: C_1  and  C_2
REMARK    2  A    between atoms: N_4  and  C_21
REMARK    3  A    between atoms: C_8  and  C_9
REMARK    4  A    between atoms: C_12  and  C_14
REMARK    5  A    between atoms: C_24  and  C_27
REMARK    6  A    between atoms: C_27  and  O_29
REMARK    7  A    between atoms: O_29  and  C_30
REMARK    8  A    between atoms: C_30  and  C_31
REMARK    9  A    between atoms: C_30  and  C_32
REMARK                            x       y       z     vdW  Elec       q    Type
REMARK                         _______ _______ _______ _____ _____    ______ ____
ROOT
ATOM      1  C   UNL     1      -0.018   1.503   0.010  0.00  0.00    +0.068 C 
ATOM      2  C   UNL     1       0.002  -0.004   0.002  0.00  0.00    +0.069 C 
ATOM      3  N   UNL     1       0.008  -0.766  -1.051  0.00  0.00    -0.177 NA
ATOM      4  N   UNL     1       0.028  -2.115  -0.699  0.00  0.00    -0.156 N 
ATOM      5  C   UNL     1       0.036  -2.243   0.643  0.00  0.00    +0.272 C 
ATOM      6  O   UNL     1       0.053  -3.282   1.281  0.00  0.00    -0.268 OA
ATOM      7  C   UNL     1       0.025  -0.877   1.182  0.00  0.00    +0.065 C 
ATOM      8  C   UNL     1       0.033  -0.493   2.522  0.00  0.00    +0.061 C 
ENDROOT
BRANCH   4   9
ATOM      9  C   UNL     1       0.039  -3.178  -1.604  0.00  0.00    +0.060 A 
ATOM     10  C   UNL     1       0.053  -4.488  -1.136  0.00  0.00    +0.026 A 
ATOM     11  C   UNL     1       0.064  -5.538  -2.025  0.00  0.00    +0.017 A 
ATOM     12  C   UNL     1       0.060  -5.287  -3.401  0.00  0.00    +0.059 A 
ATOM     13  C   UNL     1       0.046  -3.970  -3.867  0.00  0.00    +0.017 A 
ATOM     14  C   UNL     1       0.030  -2.924  -2.972  0.00  0.00    +0.026 A 
BRANCH  12  15
ATOM     15  C   UNL     1       0.072  -6.410  -4.357  0.00  0.00    +0.339 C 
ATOM     16  O   UNL     1       0.085  -7.555  -3.950  0.00  0.00    -0.245 OA
BRANCH  15  17
ATOM     17  O   UNL     1       0.069  -6.166  -5.682  0.00  0.00    -0.458 OA
BRANCH  17  18
ATOM     18  C   UNL     1       0.081  -7.301  -6.550  0.00  0.00    +0.171 C 
ATOM     19  C   UNL     1      -1.357  -7.722  -6.860  0.00  0.00    +0.052 C 
ATOM     20  C   UNL     1       0.798  -6.939  -7.853  0.00  0.00    +0.052 C 
ENDBRANCH  17  18
ENDBRANCH  15  17
ENDBRANCH  12  15
ENDBRANCH   4   9
BRANCH   8  21
ATOM     21  C   UNL     1       0.056  -1.466   3.529  0.00  0.00    +0.129 A 
ATOM     22  C   UNL     1       0.060  -1.223   4.898  0.00  0.00    +0.050 A 
ATOM     23  C   UNL     1       0.084  -2.466   5.526  0.00  0.00    +0.050 A 
ATOM     24  C   UNL     1       0.094  -3.423   4.532  0.00  0.00    +0.136 A 
ATOM     25  O   UNL     1       0.071  -2.803   3.339  0.00  0.00    -0.455 OA
BRANCH  24  26
ATOM     26  C   UNL     1       0.119  -4.882   4.743  0.00  0.00    +0.017 A 
ATOM     27  C   UNL     1       0.130  -5.404   6.039  0.00  0.00    +0.013 A 
ATOM     28  C   UNL     1       0.153  -6.769   6.229  0.00  0.00    +0.021 A 
ATOM     29  C   UNL     1       0.166  -7.624   5.139  0.00  0.00    +0.041 A 
ATOM     30  C   UNL     1       0.155  -7.113   3.851  0.00  0.00    +0.021 A 
ATOM     31  C   UNL     1       0.127  -5.750   3.647  0.00  0.00    +0.013 A 
ATOM     32 CL   UNL     1       0.195  -9.341   5.387  0.00  0.00    -0.084 Cl
ENDBRANCH  24  26
ENDBRANCH   8  21
TORSDOF 6
