REMARK  Name = ZINC12917185
REMARK  7 active torsions:
REMARK  status: ('A' for Active; 'I' for Inactive)
REMARK    1  A    between atoms: C_1  and  C_2
REMARK    2  A    between atoms: C_7  and  N_8
REMARK    3  A    between atoms: N_8  and  C_9
REMARK    4  A    between atoms: C_9  and  C_10
REMARK    5  A    between atoms: C_10  and  C_12
REMARK    6  A    between atoms: C_13  and  N_24
REMARK    7  A    between atoms: N_14  and  C_21
REMARK                            x       y       z     vdW  Elec       q    Type
REMARK                         _______ _______ _______ _____ _____    ______ ____
ROOT
ATOM      1  C   UNL     1       3.568   1.594  -0.511  0.00  0.00    +0.121 A 
ATOM      2  C   UNL     1       2.277   1.045  -0.413  0.00  0.00    +0.116 A 
ATOM      3  N   UNL     1       1.268   1.817   0.089  0.00  0.00    -0.278 N 
ATOM      4  C   UNL     1       1.486   3.081   0.482  0.00  0.00    +0.331 A 
ATOM      5  O   UNL     1       0.553   3.728   0.917  0.00  0.00    -0.246 OA
ATOM      6  N   UNL     1       2.697   3.657   0.416  0.00  0.00    -0.274 N 
ATOM      7  H   UNL     1       2.813   4.600   0.728  0.00  0.00    +0.173 HD
ATOM      8  C   UNL     1       3.760   2.980  -0.065  0.00  0.00    +0.266 A 
ATOM      9  O   UNL     1       4.856   3.506  -0.126  0.00  0.00    -0.267 OA
ENDROOT
BRANCH   3  10
ATOM     10  C   UNL     1      -0.081   1.254   0.195  0.00  0.00    +0.094 C 
ATOM     11  C   UNL     1      -1.242   2.101  -0.328  0.00  0.00    +0.027 C 
ATOM     12  C   UNL     1      -0.787   0.862  -1.104  0.00  0.00    +0.027 C 
ENDBRANCH   3  10
BRANCH   2  13
ATOM     13  N   UNL     1       2.038  -0.234  -0.811  0.00  0.00    -0.344 N 
ATOM     14  H   UNL     1       1.128  -0.569  -0.844  0.00  0.00    +0.144 HD
ATOM     15  H   UNL     1       2.776  -0.810  -1.061  0.00  0.00    +0.144 HD
ENDBRANCH   2  13
BRANCH   1  16
ATOM     16  C   UNL     1       4.644   0.837  -1.022  0.00  0.00    +0.188 C 
ATOM     17  O   UNL     1       4.445  -0.273  -1.474  0.00  0.00    -0.290 OA
BRANCH  16  18
ATOM     18  C   UNL     1       6.039   1.407  -1.008  0.00  0.00    +0.181 C 
BRANCH  18  19
ATOM     19  N   UNL     1       6.969   0.435  -1.589  0.00  0.00    -0.336 N 
ATOM     20  H   UNL     1       6.640  -0.420  -1.907  0.00  0.00    +0.147 HD
BRANCH  19  27
ATOM     21  C   UNL     1       8.705  -1.515  -2.719  0.00  0.00    +0.046 C 
ATOM     22  C   UNL     1       9.213  -0.182  -2.230  0.00  0.00    -0.028 A 
ATOM     23  C   UNL     1      10.556   0.125  -2.328  0.00  0.00    +0.025 A 
ATOM     24  C   UNL     1      11.023   1.345  -1.874  0.00  0.00    +0.041 A 
ATOM     25  C   UNL     1      10.146   2.264  -1.325  0.00  0.00    +0.022 A 
ATOM     26  C   UNL     1       8.801   1.965  -1.229  0.00  0.00    +0.024 A 
ATOM     27  C   UNL     1       8.329   0.740  -1.685  0.00  0.00    +0.030 A 
ATOM     28 CL   UNL     1      12.713   1.724  -1.992  0.00  0.00    -0.084 Cl
ENDBRANCH  19  27
ENDBRANCH  18  19
ENDBRANCH  16  18
ENDBRANCH   1  16
TORSDOF 6
