REMARK  Name = ZINC36266454
REMARK  3 active torsions:
REMARK  status: ('A' for Active; 'I' for Inactive)
REMARK    1  A    between atoms: C_1  and  C_2
REMARK    2  A    between atoms: N_12  and  S_13
REMARK    3  A    between atoms: S_13  and  C_16
REMARK                            x       y       z     vdW  Elec       q    Type
REMARK                         _______ _______ _______ _____ _____    ______ ____
ROOT
ATOM      1  S   UNL     1       2.327  -0.024   1.593  0.00  0.00    +0.065 S 
ATOM      2  O   UNL     1       2.683   1.344   1.441  0.00  0.00    -0.153 OA
ATOM      3  O   UNL     1       2.256  -0.655   2.865  0.00  0.00    -0.153 OA
ENDROOT
BRANCH   1  12
ATOM      4  C   UNL     1       0.398   2.107   0.127  0.00  0.00    +0.026 C 
ATOM      5  C   UNL     1       0.255   0.620  -0.204  0.00  0.00    +0.077 C 
ATOM      6  C   UNL     1      -1.259   0.234  -0.294  0.00  0.00    +0.023 C 
ATOM      7  C   UNL     1      -1.475  -0.318   1.077  0.00  0.00    -0.010 C 
ATOM      8  C   UNL     1      -2.485  -1.290   1.585  0.00  0.00    -0.078 C 
ATOM      9  N   UNL     1      -1.826  -1.808   2.831  0.00  0.00    +0.380 N 
ATOM     10  C   UNL     1      -0.353  -1.622   2.680  0.00  0.00    -0.062 C 
ATOM     11  C   UNL     1      -0.173  -1.208   1.216  0.00  0.00    +0.065 C 
ATOM     12  N   UNL     1       0.839  -0.206   0.891  0.00  0.00    -0.172 NA
ATOM     13  H   UNL     1      -2.156  -1.290   3.632  0.00  0.00    -0.086 HD
ATOM     14  H   UNL     1      -2.037  -2.788   2.946  0.00  0.00    -0.086 HD
ENDBRANCH   1  12
BRANCH   1  15
ATOM     15  C   UNL     1       3.474  -0.953   0.632  0.00  0.00    +0.155 A 
ATOM     16  C   UNL     1       3.865  -2.215   1.050  0.00  0.00    +0.153 A 
ATOM     17  C   UNL     1       4.766  -2.945   0.295  0.00  0.00    +0.078 A 
ATOM     18  C   UNL     1       5.277  -2.413  -0.877  0.00  0.00    +0.127 A 
ATOM     19  C   UNL     1       4.886  -1.153  -1.294  0.00  0.00    +0.055 A 
ATOM     20  C   UNL     1       3.980  -0.426  -0.541  0.00  0.00    +0.050 A 
ATOM     21 BR   UNL     1       3.441   1.294  -1.115  0.00  0.00    -0.048 Br
ATOM     22  F   UNL     1       6.157  -3.125  -1.615  0.00  0.00    -0.205 F 
ATOM     23  F   UNL     1       3.367  -2.732   2.194  0.00  0.00    -0.203 F 
ENDBRANCH   1  15
TORSDOF 2
