REMARK  Name = ZINC40569734
REMARK  11 active torsions:
REMARK  status: ('A' for Active; 'I' for Inactive)
REMARK    1  A    between atoms: C_1  and  C_2
REMARK    2  A    between atoms: C_2  and  C_3
REMARK    3  A    between atoms: C_3  and  C_4
REMARK    4  A    between atoms: N_10  and  C_11
REMARK    5  A    between atoms: C_11  and  C_12
REMARK    6  A    between atoms: C_18  and  C_28
REMARK    7  A    between atoms: C_20  and  C_24
REMARK    8  A    between atoms: C_21  and  N_23
REMARK    9  A    between atoms: C_24  and  O_26
REMARK   10  A    between atoms: O_26  and  C_27
REMARK   11  A    between atoms: C_31  and  C_34
REMARK                            x       y       z     vdW  Elec       q    Type
REMARK                         _______ _______ _______ _____ _____    ______ ____
ROOT
ATOM      1  C   UNL     1      -1.191  -2.109  -0.036  0.00  0.00    +0.026 A 
ATOM      2  C   UNL     1      -1.459  -2.455   1.242  0.00  0.00    +0.068 A 
ATOM      3  C   UNL     1      -1.553  -3.818   1.593  0.00  0.00    +0.141 A 
ATOM      4  C   UNL     1      -1.369  -4.773   0.617  0.00  0.00    +0.071 A 
ATOM      5  C   UNL     1      -1.093  -4.367  -0.695  0.00  0.00    +0.259 A 
ATOM      6  O   UNL     1      -0.928  -5.203  -1.571  0.00  0.00    -0.267 OA
ATOM      7  N   UNL     1      -1.016  -3.057  -0.994  0.00  0.00    -0.309 N 
ATOM      8  C   UNL     1      -1.459  -6.238   0.947  0.00  0.00    +0.100 C 
ATOM      9  C   UNL     1      -2.140  -6.428   2.274  0.00  0.00    +0.105 C 
ATOM     10  C   UNL     1      -2.280  -5.398   3.146  0.00  0.00    +0.195 C 
ATOM     11  O   UNL     1      -1.821  -4.166   2.870  0.00  0.00    -0.441 OA
ENDROOT
BRANCH   8  12
ATOM     12  C   UNL     1      -0.071  -6.822   1.012  0.00  0.00    -0.035 A 
ATOM     13  C   UNL     1       0.842  -6.332   1.926  0.00  0.00    +0.005 A 
ATOM     14  C   UNL     1       2.115  -6.868   1.986  0.00  0.00    +0.012 A 
ATOM     15  C   UNL     1       2.474  -7.894   1.132  0.00  0.00    +0.055 A 
ATOM     16  C   UNL     1       1.560  -8.384   0.218  0.00  0.00    +0.012 A 
ATOM     17  C   UNL     1       0.286  -7.851   0.161  0.00  0.00    +0.005 A 
BRANCH  15  18
ATOM     18  C   UNL     1       3.862  -8.477   1.196  0.00  0.00    +0.417 C 
ATOM     19  F   UNL     1       3.879  -9.542   2.104  0.00  0.00    -0.166 F 
ATOM     20  F   UNL     1       4.233  -8.939  -0.071  0.00  0.00    -0.166 F 
ATOM     21  F   UNL     1       4.763  -7.492   1.615  0.00  0.00    -0.166 F 
ENDBRANCH  15  18
ENDBRANCH   8  12
BRANCH  10  22
ATOM     22  N   UNL     1      -2.908  -5.620   4.343  0.00  0.00    -0.329 N 
ATOM     23  H   UNL     1      -3.177  -6.519   4.590  0.00  0.00    +0.145 HD
ATOM     24  H   UNL     1      -3.083  -4.879   4.944  0.00  0.00    +0.145 HD
ENDBRANCH  10  22
BRANCH   9  25
ATOM     25  C   UNL     1      -2.639  -7.694   2.617  0.00  0.00    +0.341 C 
ATOM     26  O   UNL     1      -3.702  -8.073   2.160  0.00  0.00    -0.245 OA
BRANCH  25  27
ATOM     27  O   UNL     1      -1.941  -8.491   3.455  0.00  0.00    -0.465 OA
ATOM     28  C   UNL     1      -2.509  -9.766   3.761  0.00  0.00    +0.280 C 
ENDBRANCH  25  27
ENDBRANCH   9  25
BRANCH   1  29
ATOM     29  C   UNL     1      -1.091  -0.651  -0.406  0.00  0.00    +0.053 C 
BRANCH  29  31
ATOM     30  C   UNL     1      -2.388   1.364  -1.109  0.00  0.00    +0.004 C 
ATOM     31  C   UNL     1      -2.465  -0.140  -0.840  0.00  0.00    +0.003 C 
ENDBRANCH  29  31
ENDBRANCH   1  29
BRANCH   7  32
ATOM     32  C   UNL     1      -0.733  -2.646  -2.371  0.00  0.00    +0.156 C 
BRANCH  32  33
ATOM     33  C   UNL     1       0.774  -2.451  -2.546  0.00  0.00    +0.138 C 
ATOM     34  C   UNL     1       1.074  -1.933  -3.969  0.00  0.00    +0.035 C 
ATOM     35  C   UNL     1       2.369  -2.707  -4.335  0.00  0.00    +0.031 C 
ATOM     36  C   UNL     1       2.122  -4.054  -3.610  0.00  0.00    +0.160 C 
ATOM     37  O   UNL     1       1.448  -3.705  -2.389  0.00  0.00    -0.375 OA
ENDBRANCH  32  33
ENDBRANCH   7  32
TORSDOF 9
