REMARK  Name = ZINC16758545
REMARK  10 active torsions:
REMARK  status: ('A' for Active; 'I' for Inactive)
REMARK    1  A    between atoms: C_1  and  C_2
REMARK    2  A    between atoms: N_13  and  C_32
REMARK    3  A    between atoms: C_14  and  S_16
REMARK    4  A    between atoms: S_16  and  C_17
REMARK    5  A    between atoms: C_17  and  C_18
REMARK    6  A    between atoms: N_20  and  C_21
REMARK    7  A    between atoms: N_20  and  C_26
REMARK    8  A    between atoms: C_21  and  C_22
REMARK    9  A    between atoms: C_22  and  C_23
REMARK   10  A    between atoms: C_32  and  C_33
REMARK                            x       y       z     vdW  Elec       q    Type
REMARK                         _______ _______ _______ _____ _____    ______ ____
ROOT
ATOM      1  C   UNL     1      -3.770  -1.388  -8.719  0.00  0.00    +0.008 C 
ATOM      2  C   UNL     1      -3.147  -1.417  -7.322  0.00  0.00    -0.009 C 
ATOM      3  C   UNL     1      -4.186  -0.978  -6.287  0.00  0.00    +0.008 C 
ATOM      4  C   UNL     1      -3.512  -0.767  -4.931  0.00  0.00    +0.037 C 
ATOM      5  C   UNL     1      -2.716  -2.020  -4.576  0.00  0.00    -0.023 A 
ATOM      6  C   UNL     1      -2.378  -2.914  -5.527  0.00  0.00    -0.004 A 
ATOM      7  S   UNL     1      -1.481  -4.180  -4.671  0.00  0.00    -0.073 S 
ATOM      8  C   UNL     1      -1.562  -3.503  -3.032  0.00  0.00    +0.117 A 
ATOM      9  C   UNL     1      -2.287  -2.312  -3.207  0.00  0.00    +0.076 A 
ATOM     10  C   UNL     1      -2.516  -1.542  -2.022  0.00  0.00    +0.263 A 
ATOM     11  O   UNL     1      -3.141  -0.497  -2.076  0.00  0.00    -0.267 OA
ATOM     12  N   UNL     1      -2.028  -1.986  -0.849  0.00  0.00    -0.283 N 
ATOM     13  C   UNL     1      -1.332  -3.157  -0.769  0.00  0.00    +0.173 A 
ATOM     14  N   UNL     1      -1.112  -3.888  -1.844  0.00  0.00    -0.216 NA
ATOM     15  C   UNL     1      -2.694  -2.846  -6.990  0.00  0.00    +0.046 C 
ENDROOT
BRANCH  13  16
ATOM     16  S   UNL     1      -0.719  -3.699   0.791  0.00  0.00    -0.078 S 
BRANCH  16  17
ATOM     17  C   UNL     1       0.084  -5.243   0.294  0.00  0.00    +0.173 C 
BRANCH  17  18
ATOM     18  C   UNL     1       0.698  -5.902   1.503  0.00  0.00    +0.230 C 
ATOM     19  O   UNL     1       0.602  -5.379   2.593  0.00  0.00    -0.274 OA
ATOM     20  N   UNL     1       1.354  -7.072   1.373  0.00  0.00    -0.270 N 
BRANCH  20  21
ATOM     21  C   UNL     1       2.010  -7.633   2.474  0.00  0.00    +0.036 A 
ATOM     22  C   UNL     1       3.134  -7.013   3.004  0.00  0.00    +0.023 A 
ATOM     23  C   UNL     1       3.776  -7.566   4.095  0.00  0.00    +0.002 A 
ATOM     24  C   UNL     1       3.307  -8.742   4.651  0.00  0.00    +0.000 A 
ATOM     25  C   UNL     1       2.192  -9.365   4.122  0.00  0.00    +0.002 A 
ATOM     26  C   UNL     1       1.542  -8.814   3.035  0.00  0.00    +0.023 A 
ENDBRANCH  20  21
BRANCH  20  27
ATOM     27  C   UNL     1       1.379  -7.757   0.078  0.00  0.00    +0.123 C 
BRANCH  27  28
ATOM     28  C   UNL     1       2.591  -7.282  -0.726  0.00  0.00    +0.115 C 
BRANCH  28  29
ATOM     29  C   UNL     1       2.618  -7.987  -2.058  0.00  0.00    +0.212 C 
ATOM     30  O   UNL     1       1.753  -8.790  -2.337  0.00  0.00    -0.276 OA
ATOM     31  N   UNL     1       3.603  -7.725  -2.940  0.00  0.00    -0.329 N 
ATOM     32  H   UNL     1       4.295  -7.082  -2.717  0.00  0.00    +0.145 HD
ATOM     33  H   UNL     1       3.620  -8.178  -3.797  0.00  0.00    +0.145 HD
ENDBRANCH  28  29
ENDBRANCH  27  28
ENDBRANCH  20  27
ENDBRANCH  17  18
ENDBRANCH  16  17
ENDBRANCH  13  16
BRANCH  12  34
ATOM     34  C   UNL     1      -2.254  -1.200   0.366  0.00  0.00    +0.154 C 
BRANCH  34  35
ATOM     35  C   UNL     1      -1.120  -0.226   0.552  0.00  0.00    -0.013 C 
ATOM     36  C   UNL     1      -1.369   1.054   0.681  0.00  0.00    +0.005 C 
ENDBRANCH  34  35
ENDBRANCH  12  34
TORSDOF 9
