REMARK  Name = ZINC00923387
REMARK  9 active torsions:
REMARK  status: ('A' for Active; 'I' for Inactive)
REMARK    1  A    between atoms: C_1  and  C_2
REMARK    2  A    between atoms: C_4  and  C_37
REMARK    3  A    between atoms: C_5  and  S_9
REMARK    4  A    between atoms: C_6  and  C_8
REMARK    5  A    between atoms: S_9  and  N_12
REMARK    6  A    between atoms: N_12  and  C_13
REMARK    7  A    between atoms: N_12  and  C_20
REMARK    8  A    between atoms: C_13  and  C_14
REMARK    9  A    between atoms: C_20  and  C_21
REMARK                            x       y       z     vdW  Elec       q    Type
REMARK                         _______ _______ _______ _____ _____    ______ ____
ROOT
ATOM      1  N   UNL     1      -2.974   1.566   1.777  0.00  0.00    -0.168 NA
ENDROOT
BRANCH   1   2
ATOM      2  S   UNL     1      -2.934   1.754   0.132  0.00  0.00    +0.062 S 
ATOM      3  O   UNL     1      -2.346   0.573  -0.397  0.00  0.00    -0.153 OA
ATOM      4  O   UNL     1      -2.401   3.047  -0.116  0.00  0.00    -0.153 OA
BRANCH   2   9
ATOM      5  C   UNL     1      -8.655   1.847  -1.782  0.00  0.00    +0.044 C 
ATOM      6  C   UNL     1      -7.225   1.823  -1.307  0.00  0.00    -0.050 A 
ATOM      7  C   UNL     1      -6.640   0.627  -0.936  0.00  0.00    +0.008 A 
ATOM      8  C   UNL     1      -5.328   0.605  -0.500  0.00  0.00    -0.024 A 
ATOM      9  C   UNL     1      -4.604   1.780  -0.430  0.00  0.00    +0.111 A 
ATOM     10  C   UNL     1      -5.187   2.976  -0.806  0.00  0.00    -0.024 A 
ATOM     11  C   UNL     1      -6.499   2.998  -1.242  0.00  0.00    +0.008 A 
ATOM     12  C   UNL     1      -4.395   4.256  -0.736  0.00  0.00    +0.046 C 
ATOM     13  C   UNL     1      -4.690  -0.699  -0.096  0.00  0.00    +0.046 C 
ENDBRANCH   2   9
ENDBRANCH   1   2
BRANCH   1  14
ATOM     14  C   UNL     1      -3.335   2.698   2.635  0.00  0.00    +0.145 C 
BRANCH  14  15
ATOM     15  C   UNL     1      -4.741   2.514   3.145  0.00  0.00    -0.032 A 
ATOM     16  C   UNL     1      -5.808   3.022   2.429  0.00  0.00    +0.005 A 
ATOM     17  C   UNL     1      -7.098   2.848   2.894  0.00  0.00    +0.000 A 
ATOM     18  C   UNL     1      -7.320   2.176   4.082  0.00  0.00    +0.000 A 
ATOM     19  C   UNL     1      -6.252   1.673   4.801  0.00  0.00    +0.000 A 
ATOM     20  C   UNL     1      -4.962   1.842   4.333  0.00  0.00    +0.005 A 
ENDBRANCH  14  15
ENDBRANCH   1  14
BRANCH   1  21
ATOM     21  C   UNL     1      -2.650   0.269   2.375  0.00  0.00    +0.150 C 
BRANCH  21  22
ATOM     22  C   UNL     1      -1.396   0.396   3.202  0.00  0.00    +0.033 A 
ATOM     23  C   UNL     1      -1.487   0.536   4.549  0.00  0.00    +0.020 A 
ATOM     24  C   UNL     1      -0.252   0.652   5.324  0.00  0.00    +0.003 A 
ATOM     25  C   UNL     1      -0.284   0.794   6.717  0.00  0.00    +0.059 A 
ATOM     26  C   UNL     1       0.896   0.906   7.421  0.00  0.00    +0.163 A 
ATOM     27  C   UNL     1       2.122   0.878   6.750  0.00  0.00    +0.164 A 
ATOM     28  C   UNL     1       2.163   0.739   5.373  0.00  0.00    +0.075 A 
ATOM     29  C   UNL     1       0.983   0.625   4.649  0.00  0.00    +0.053 A 
ATOM     30  N   UNL     1       1.006   0.487   3.276  0.00  0.00    -0.322 N 
ATOM     31  H   UNL     1       1.883   0.469   2.797  0.00  0.00    +0.169 HD
ATOM     32  C   UNL     1      -0.135   0.376   2.573  0.00  0.00    +0.254 A 
ATOM     33  O   UNL     1      -0.077   0.255   1.361  0.00  0.00    -0.268 OA
ATOM     34  O   UNL     1       3.291   0.984   7.437  0.00  0.00    -0.485 OA
ATOM     35  C   UNL     1       3.210   1.497   8.771  0.00  0.00    +0.270 C 
ATOM     36  C   UNL     1       2.059   0.783   9.492  0.00  0.00    +0.270 C 
ATOM     37  O   UNL     1       0.848   1.046   8.775  0.00  0.00    -0.485 OA
ENDBRANCH  21  22
ENDBRANCH   1  21
TORSDOF 6
