REMARK  Name = ZINC12702417
REMARK  9 active torsions:
REMARK  status: ('A' for Active; 'I' for Inactive)
REMARK    1  A    between atoms: C_1  and  C_2
REMARK    2  A    between atoms: C_6  and  N_8
REMARK    3  A    between atoms: N_8  and  C_9
REMARK    4  A    between atoms: C_9  and  C_11
REMARK    5  A    between atoms: C_9  and  C_18
REMARK    6  A    between atoms: N_20  and  C_21
REMARK    7  A    between atoms: C_26  and  C_28
REMARK    8  A    between atoms: C_29  and  N_36
REMARK    9  A    between atoms: C_30  and  C_33
REMARK                            x       y       z     vdW  Elec       q    Type
REMARK                         _______ _______ _______ _____ _____    ______ ____
ROOT
ATOM      1  N   UNL     1       3.526   1.796   0.792  0.00  0.00    -0.251 N 
ATOM      2  C   UNL     1       4.645   1.109   1.097  0.00  0.00    +0.262 C 
ATOM      3  O   UNL     1       4.949   0.122   0.453  0.00  0.00    -0.269 OA
ENDROOT
BRANCH   1   9
ATOM      4  C   UNL     1       0.707   4.203   4.020  0.00  0.00    +0.044 C 
ATOM      5  C   UNL     1       1.859   4.170   3.049  0.00  0.00    -0.049 A 
ATOM      6  C   UNL     1       2.616   5.309   2.837  0.00  0.00    +0.003 A 
ATOM      7  C   UNL     1       3.674   5.283   1.947  0.00  0.00    +0.002 A 
ATOM      8  C   UNL     1       3.981   4.119   1.271  0.00  0.00    +0.023 A 
ATOM      9  C   UNL     1       3.221   2.975   1.478  0.00  0.00    +0.038 A 
ATOM     10  C   UNL     1       2.159   3.004   2.373  0.00  0.00    +0.027 A 
ENDBRANCH   1   9
BRANCH   2  11
ATOM     11  C   UNL     1       5.495   1.550   2.205  0.00  0.00    +0.116 A 
ATOM     12  C   UNL     1       6.735   1.059   2.619  0.00  0.00    +0.076 A 
ATOM     13  C   UNL     1       7.238   1.744   3.725  0.00  0.00    +0.155 A 
ATOM     14  N   UNL     1       6.540   2.730   4.243  0.00  0.00    -0.203 NA
ATOM     15  S   UNL     1       5.228   2.861   3.380  0.00  0.00    +0.019 S 
BRANCH  13  16
ATOM     16  C   UNL     1       8.540   1.367   4.306  0.00  0.00    +0.262 C 
ATOM     17  O   UNL     1       9.180   0.454   3.821  0.00  0.00    -0.269 OA
ATOM     18  N   UNL     1       9.020   2.034   5.374  0.00  0.00    -0.324 N 
ATOM     19  H   UNL     1       8.509   2.762   5.761  0.00  0.00    +0.145 HD
ATOM     20  H   UNL     1       9.876   1.786   5.757  0.00  0.00    +0.145 HD
ENDBRANCH  13  16
BRANCH  12  21
ATOM     21  N   UNL     1       7.394   0.006   1.999  0.00  0.00    -0.355 N 
ATOM     22  H   UNL     1       6.993  -0.432   1.232  0.00  0.00    +0.142 HD
ATOM     23  H   UNL     1       8.255  -0.291   2.332  0.00  0.00    +0.142 HD
ENDBRANCH  12  21
ENDBRANCH   2  11
BRANCH   1  24
ATOM     24  C   UNL     1       2.631   1.307  -0.260  0.00  0.00    +0.197 C 
BRANCH  24  25
ATOM     25  C   UNL     1       1.379   2.145  -0.283  0.00  0.00    -0.018 A 
ATOM     26  C   UNL     1       0.139   1.536  -0.217  0.00  0.00    +0.007 A 
ATOM     27  C   UNL     1      -1.010   2.304  -0.244  0.00  0.00    +0.020 A 
ATOM     28  C   UNL     1      -0.919   3.682  -0.326  0.00  0.00    +0.041 A 
ATOM     29  C   UNL     1       0.322   4.290  -0.391  0.00  0.00    +0.020 A 
ATOM     30  C   UNL     1       1.470   3.522  -0.369  0.00  0.00    +0.007 A 
ATOM     31 CL   UNL     1      -2.362   4.647  -0.354  0.00  0.00    -0.084 Cl
ENDBRANCH  24  25
BRANCH  24  32
ATOM     32  C   UNL     1       3.324   1.402  -1.594  0.00  0.00    +0.239 C 
ATOM     33  O   UNL     1       4.455   1.836  -1.661  0.00  0.00    -0.273 OA
ATOM     34  N   UNL     1       2.688   1.006  -2.714  0.00  0.00    -0.311 N 
ATOM     35  H   UNL     1       1.783   0.658  -2.661  0.00  0.00    +0.149 HD
BRANCH  34  36
ATOM     36  C   UNL     1       3.361   1.098  -4.012  0.00  0.00    +0.073 C 
ATOM     37  C   UNL     1       3.125   2.491  -4.631  0.00  0.00    +0.022 C 
ATOM     38  C   UNL     1       2.973   2.211  -6.147  0.00  0.00    +0.002 C 
ATOM     39  C   UNL     1       2.183   0.879  -6.172  0.00  0.00    +0.002 C 
ATOM     40  C   UNL     1       2.763   0.074  -4.991  0.00  0.00    +0.022 C 
ENDBRANCH  34  36
ENDBRANCH  24  32
ENDBRANCH   1  24
TORSDOF 8
