REMARK  Name = ZINC65265905
REMARK  2 active torsions:
REMARK  status: ('A' for Active; 'I' for Inactive)
REMARK    1  A    between atoms: C_14  and  C_16
REMARK    2  A    between atoms: N_24  and  C_25
REMARK                            x       y       z     vdW  Elec       q    Type
REMARK                         _______ _______ _______ _____ _____    ______ ____
ROOT
ATOM      1  C   UNL     1      -0.017   1.374   0.010  0.00  0.00    +0.000 A 
ATOM      2  C   UNL     1       1.167   2.090   0.002  0.00  0.00    +0.002 A 
ATOM      3  C   UNL     1       2.369   1.412  -0.006  0.00  0.00    +0.023 A 
ATOM      4  C   UNL     1       2.388   0.025  -0.011  0.00  0.00    +0.037 A 
ATOM      5  C   UNL     1       1.205  -0.703  -0.015  0.00  0.00    -0.012 A 
ATOM      6  C   UNL     1       0.002  -0.004   0.002  0.00  0.00    +0.007 A 
ATOM      7  C   UNL     1       1.117  -2.208  -0.055  0.00  0.00    +0.119 C 
ATOM      8  N   UNL     1       2.251  -2.861   0.612  0.00  0.00    -0.299 NA
ATOM      9  C   UNL     1       3.373  -3.061  -0.334  0.00  0.00    +0.091 C 
ATOM     10  C   UNL     1       2.948  -4.006  -1.472  0.00  0.00    +0.050 C 
ATOM     11  C   UNL     1       3.205  -5.395  -0.833  0.00  0.00    +0.110 C 
ATOM     12  N   UNL     1       4.412  -5.215  -0.004  0.00  0.00    -0.294 N 
ATOM     13  C   UNL     1       4.533  -3.790   0.349  0.00  0.00    +0.138 C 
ATOM     14  C   UNL     1       5.263  -6.192   0.369  0.00  0.00    +0.265 C 
ATOM     15  O   UNL     1       6.229  -5.926   1.057  0.00  0.00    -0.268 OA
ATOM     16  C   UNL     1       3.775  -1.720  -0.851  0.00  0.00    +0.095 C 
ATOM     17  N   UNL     1       3.602  -0.655  -0.000  0.00  0.00    -0.303 N 
ATOM     18  N   UNL     1       4.261  -1.569  -2.039  0.00  0.00    -0.372 N 
ATOM     19  H   UNL     1       2.547  -2.334   1.419  0.00  0.00    +0.123 HD
ATOM     20  H   UNL     1       4.373  -2.338  -2.619  0.00  0.00    +0.161 HD
ATOM     21  H   UNL     1       4.315  -0.382   0.597  0.00  0.00    +0.153 HD
ENDROOT
BRANCH  14  22
ATOM     22  C   UNL     1       5.020  -7.589  -0.059  0.00  0.00    +0.126 A 
ATOM     23  C   UNL     1       5.899  -8.595   0.334  0.00  0.00    +0.033 A 
ATOM     24  C   UNL     1       5.659  -9.898  -0.075  0.00  0.00    +0.004 A 
ATOM     25  C   UNL     1       4.546 -10.148  -0.863  0.00  0.00    +0.020 A 
ATOM     26  C   UNL     1       3.714  -9.099  -1.216  0.00  0.00    +0.111 A 
ATOM     27  N   UNL     1       3.963  -7.873  -0.810  0.00  0.00    -0.250 NA
ENDBRANCH  14  22
BRANCH  18  28
ATOM     28  C   UNL     1       4.644  -0.235  -2.509  0.00  0.00    +0.080 C 
ATOM     29  C   UNL     1       3.430   0.467  -3.153  0.00  0.00    +0.024 C 
ATOM     30  C   UNL     1       4.033   1.252  -4.343  0.00  0.00    +0.002 C 
ATOM     31  C   UNL     1       5.118   0.285  -4.878  0.00  0.00    +0.002 C 
ATOM     32  C   UNL     1       5.717  -0.351  -3.606  0.00  0.00    +0.024 C 
ENDBRANCH  18  28
TORSDOF 2
