REMARK  Name = ZINC36740888
REMARK  6 active torsions:
REMARK  status: ('A' for Active; 'I' for Inactive)
REMARK    1  A    between atoms: C_1  and  C_2
REMARK    2  A    between atoms: C_5  and  N_8
REMARK    3  A    between atoms: C_9  and  N_14
REMARK    4  A    between atoms: C_11  and  C_13
REMARK    5  A    between atoms: C_15  and  C_17
REMARK    6  A    between atoms: C_17  and  N_18
REMARK                            x       y       z     vdW  Elec       q    Type
REMARK                         _______ _______ _______ _____ _____    ______ ____
ROOT
ATOM      1  N   UNL     1       1.458  -4.544   1.966  0.00  0.00    -0.269 N 
ATOM      2  C   UNL     1       2.041  -5.449   2.776  0.00  0.00    +0.238 C 
ATOM      3  O   UNL     1       1.908  -6.635   2.557  0.00  0.00    -0.273 OA
ATOM      4  H   UNL     1       1.565  -3.596   2.142  0.00  0.00    +0.156 HD
ENDROOT
BRANCH   1   6
ATOM      5  N   UNL     1       0.059  -4.172  -0.021  0.00  0.00    -0.218 N 
ATOM      6  C   UNL     1       0.701  -4.970   0.875  0.00  0.00    +0.129 A 
ATOM      7  C   UNL     1       0.469  -6.261   0.511  0.00  0.00    +0.068 A 
ATOM      8  C   UNL     1      -0.333  -6.247  -0.633  0.00  0.00    +0.062 A 
ATOM      9  N   UNL     1      -0.583  -5.001  -0.949  0.00  0.00    -0.170 NA
ATOM     10  C   UNL     1      -0.831  -7.460  -1.375  0.00  0.00    +0.067 C 
BRANCH   5  15
ATOM     11  C   UNL     1      -0.018   1.503   0.010  0.00  0.00    +0.044 C 
ATOM     12  C   UNL     1       0.002  -0.004   0.002  0.00  0.00    -0.050 A 
ATOM     13  C   UNL     1       0.006  -0.688  -1.200  0.00  0.00    +0.005 A 
ATOM     14  C   UNL     1       0.025  -2.068  -1.211  0.00  0.00    +0.028 A 
ATOM     15  C   UNL     1       0.041  -2.771  -0.013  0.00  0.00    +0.067 A 
ATOM     16  C   UNL     1       0.037  -2.082   1.192  0.00  0.00    +0.028 A 
ATOM     17  C   UNL     1       0.023  -0.700   1.196  0.00  0.00    +0.005 A 
ENDBRANCH   5  15
ENDBRANCH   1   6
BRANCH   2  18
ATOM     18  C   UNL     1       2.860  -4.989   3.955  0.00  0.00    +0.222 C 
BRANCH  18  19
ATOM     19  N   UNL     1       3.382  -6.155   4.672  0.00  0.00    -0.287 N 
ATOM     20  C   UNL     1       2.655  -6.710   5.674  0.00  0.00    +0.203 A 
ATOM     21  N   UNL     1       3.081  -7.748   6.338  0.00  0.00    -0.233 NA
ATOM     22  C   UNL     1       4.266  -8.314   6.056  0.00  0.00    +0.124 A 
ATOM     23  C   UNL     1       5.012  -9.458   6.601  0.00  0.00    +0.046 A 
ATOM     24  C   UNL     1       4.766 -10.382   7.614  0.00  0.00    +0.014 A 
ATOM     25  C   UNL     1       5.695 -11.362   7.884  0.00  0.00    +0.001 A 
ATOM     26  C   UNL     1       6.871 -11.430   7.152  0.00  0.00    +0.004 A 
ATOM     27  C   UNL     1       7.127 -10.522   6.147  0.00  0.00    +0.047 A 
ATOM     28  C   UNL     1       6.202  -9.525   5.858  0.00  0.00    +0.138 A 
ATOM     29  O   UNL     1       6.190  -8.527   4.949  0.00  0.00    -0.448 OA
ATOM     30  C   UNL     1       5.061  -7.794   5.040  0.00  0.00    +0.219 A 
ATOM     31  C   UNL     1       4.581  -6.671   4.328  0.00  0.00    +0.297 A 
ATOM     32  O   UNL     1       5.236  -6.178   3.425  0.00  0.00    -0.264 OA
ENDBRANCH  18  19
ENDBRANCH   2  18
TORSDOF 4
