REMARK  Name = ZINC49967653
REMARK  7 active torsions:
REMARK  status: ('A' for Active; 'I' for Inactive)
REMARK    1  A    between atoms: C_1  and  C_2
REMARK    2  A    between atoms: C_5  and  C_8
REMARK    3  A    between atoms: C_8  and  C_10
REMARK    4  A    between atoms: C_11  and  C_27
REMARK    5  A    between atoms: C_18  and  C_20
REMARK    6  A    between atoms: C_27  and  O_29
REMARK    7  A    between atoms: O_29  and  C_30
REMARK                            x       y       z     vdW  Elec       q    Type
REMARK                         _______ _______ _______ _____ _____    ______ ____
ROOT
ATOM      1  C   UNL     1       0.125  -4.913   1.324  0.00  0.00    +0.145 C 
ATOM      2  C   UNL     1       1.549  -4.927   1.801  0.00  0.00    +0.142 C 
ATOM      3  N   UNL     1       2.380  -5.888   1.506  0.00  0.00    -0.207 NA
ATOM      4  C   UNL     1       1.928  -6.930   0.765  0.00  0.00    +0.270 A 
ATOM      5  N   UNL     1       2.564  -7.859   0.094  0.00  0.00    -0.088 NA
ATOM      6  N   UNL     1       1.676  -8.632  -0.442  0.00  0.00    -0.021 NA
ATOM      7  N   UNL     1       0.491  -8.222  -0.133  0.00  0.00    -0.042 NA
ATOM      8  N   UNL     1       0.590  -7.182   0.601  0.00  0.00    -0.201 N 
ATOM      9  C   UNL     1      -0.438  -6.333   1.206  0.00  0.00    +0.162 C 
ENDROOT
BRANCH   9  10
ATOM     10  C   UNL     1      -0.789  -6.857   2.575  0.00  0.00    +0.013 A 
ATOM     11  C   UNL     1       0.190  -6.965   3.546  0.00  0.00    +0.008 A 
ATOM     12  C   UNL     1      -0.132  -7.445   4.802  0.00  0.00    +0.001 A 
ATOM     13  C   UNL     1      -1.431  -7.818   5.088  0.00  0.00    +0.003 A 
ATOM     14  C   UNL     1      -2.411  -7.711   4.120  0.00  0.00    +0.039 A 
ATOM     15  C   UNL     1      -2.092  -7.225   2.863  0.00  0.00    +0.129 A 
ATOM     16  F   UNL     1      -3.050  -7.116   1.917  0.00  0.00    -0.205 F 
ENDBRANCH   9  10
BRANCH   1  17
ATOM     17  C   UNL     1       0.063  -4.245  -0.025  0.00  0.00    +0.175 C 
ATOM     18  O   UNL     1       1.030  -4.264  -0.756  0.00  0.00    -0.291 OA
BRANCH  17  23
ATOM     19  C   UNL     1      -4.759  -1.604  -1.705  0.00  0.00    +0.044 C 
ATOM     20  C   UNL     1      -3.495  -2.296  -1.264  0.00  0.00    -0.050 A 
ATOM     21  C   UNL     1      -2.359  -2.222  -2.052  0.00  0.00    +0.004 A 
ATOM     22  C   UNL     1      -1.199  -2.852  -1.656  0.00  0.00    +0.011 A 
ATOM     23  C   UNL     1      -1.171  -3.568  -0.455  0.00  0.00    +0.018 A 
ATOM     24  C   UNL     1      -2.323  -3.638   0.336  0.00  0.00    +0.011 A 
ATOM     25  C   UNL     1      -3.474  -2.997  -0.072  0.00  0.00    +0.004 A 
ENDBRANCH  17  23
ENDBRANCH   1  17
BRANCH   2  26
ATOM     26  C   UNL     1       2.027  -3.809   2.636  0.00  0.00    +0.354 C 
ATOM     27  O   UNL     1       1.251  -2.950   3.003  0.00  0.00    -0.244 OA
BRANCH  26  28
ATOM     28  O   UNL     1       3.325  -3.741   2.991  0.00  0.00    -0.464 OA
ATOM     29  C   UNL     1       3.719  -2.631   3.801  0.00  0.00    +0.280 C 
ENDBRANCH  26  28
ENDBRANCH   2  26
TORSDOF 5
