REMARK  Name = ZINC44455842
REMARK  8 active torsions:
REMARK  status: ('A' for Active; 'I' for Inactive)
REMARK    1  A    between atoms: C_1  and  C_2
REMARK    2  A    between atoms: C_3  and  S_8
REMARK    3  A    between atoms: C_4  and  C_7
REMARK    4  A    between atoms: S_8  and  N_11
REMARK    5  A    between atoms: C_14  and  C_17
REMARK    6  A    between atoms: C_22  and  C_25
REMARK    7  A    between atoms: C_25  and  O_27
REMARK    8  A    between atoms: O_27  and  C_28
REMARK                            x       y       z     vdW  Elec       q    Type
REMARK                         _______ _______ _______ _____ _____    ______ ____
ROOT
ATOM      1  N   UNL     1       1.578  -0.082  -3.274  0.00  0.00    -0.176 NA
ATOM      2  C   UNL     1       2.270   1.201  -3.094  0.00  0.00    +0.110 C 
ATOM      3  C   UNL     1       2.857   1.638  -4.440  0.00  0.00    +0.030 C 
ATOM      4  C   UNL     1       3.742   0.519  -4.994  0.00  0.00    +0.078 C 
ATOM      5  C   UNL     1       2.897  -0.737  -5.220  0.00  0.00    +0.030 C 
ATOM      6  C   UNL     1       2.312  -1.202  -3.878  0.00  0.00    +0.110 C 
ENDROOT
BRANCH   4   7
ATOM      7  C   UNL     1       4.348   0.959  -6.302  0.00  0.00    +0.219 C 
ATOM      8  O   UNL     1       3.715   1.669  -7.055  0.00  0.00    -0.275 OA
ATOM      9  N   UNL     1       5.593   0.563  -6.634  0.00  0.00    -0.301 N 
ATOM     10  C   UNL     1       6.323  -0.395  -5.794  0.00  0.00    +0.108 C 
ATOM     11  C   UNL     1       6.793  -1.561  -6.669  0.00  0.00    +0.033 C 
ATOM     12  C   UNL     1       7.601  -1.016  -7.848  0.00  0.00    +0.101 C 
ATOM     13  C   UNL     1       6.715  -0.101  -8.697  0.00  0.00    +0.033 C 
ATOM     14  C   UNL     1       6.242   1.077  -7.848  0.00  0.00    +0.108 C 
BRANCH  12  15
ATOM     15  C   UNL     1       8.093  -2.162  -8.693  0.00  0.00    +0.310 C 
ATOM     16  O   UNL     1       7.825  -3.299  -8.384  0.00  0.00    -0.251 OA
BRANCH  15  17
ATOM     17  O   UNL     1       8.829  -1.921  -9.789  0.00  0.00    -0.468 OA
ATOM     18  C   UNL     1       9.262  -3.055 -10.543  0.00  0.00    +0.280 C 
ENDBRANCH  15  17
ENDBRANCH  12  15
ENDBRANCH   4   7
BRANCH   1  19
ATOM     19  S   UNL     1       0.002  -0.264  -2.800  0.00  0.00    +0.066 S 
ATOM     20  O   UNL     1      -0.532  -1.335  -3.566  0.00  0.00    -0.153 OA
ATOM     21  O   UNL     1      -0.575   1.034  -2.800  0.00  0.00    -0.153 OA
BRANCH  19  24
ATOM     22  C   UNL     1      -0.018   1.530   0.008  0.00  0.00    +0.071 C 
ATOM     23  C   UNL     1       0.011   0.023   0.013  0.00  0.00    +0.107 A 
ATOM     24  C   UNL     1       0.022  -0.806  -1.123  0.00  0.00    +0.170 A 
ATOM     25  C   UNL     1       0.049  -2.087  -0.707  0.00  0.00    +0.161 A 
ATOM     26  O   UNL     1       0.056  -2.086   0.635  0.00  0.00    -0.358 OA
ATOM     27  N   UNL     1       0.038  -0.738   1.069  0.00  0.00    -0.081 NA
ATOM     28  C   UNL     1       0.068  -3.306  -1.592  0.00  0.00    +0.091 C 
ENDBRANCH  19  24
ENDBRANCH   1  19
TORSDOF 5
