REMARK  Name = ZINC11471445
REMARK  8 active torsions:
REMARK  status: ('A' for Active; 'I' for Inactive)
REMARK    1  A    between atoms: C_1  and  O_2
REMARK    2  A    between atoms: O_2  and  C_3
REMARK    3  A    between atoms: C_8  and  C_9
REMARK    4  A    between atoms: C_10  and  C_11
REMARK    5  A    between atoms: C_11  and  O_13
REMARK    6  A    between atoms: O_13  and  C_14
REMARK    7  A    between atoms: C_14  and  C_15
REMARK    8  A    between atoms: C_17  and  N_25
REMARK                            x       y       z     vdW  Elec       q    Type
REMARK                         _______ _______ _______ _____ _____    ______ ____
ROOT
ATOM      1  O   UNL     1       3.387   3.590  -0.011  0.00  0.00    -0.457 OA
ENDROOT
BRANCH   1   2
ATOM      2  C   UNL     1       4.444   4.429  -0.016  0.00  0.00    +0.332 C 
ATOM      3  O   UNL     1       5.575   3.982  -0.030  0.00  0.00    -0.246 OA
BRANCH   2   5
ATOM      4  C   UNL     1       5.295   6.671  -0.010  0.00  0.00    +0.018 C 
ATOM      5  C   UNL     1       4.237   5.831  -0.005  0.00  0.00    +0.092 C 
BRANCH   4  11
ATOM      6  C   UNL     1       6.177   9.001  -0.004  0.00  0.00    +0.127 A 
ATOM      7  C   UNL     1       5.961  10.370   0.006  0.00  0.00    +0.047 A 
ATOM      8  C   UNL     1       4.673  10.869   0.022  0.00  0.00    +0.019 A 
ATOM      9  C   UNL     1       3.587  10.008   0.027  0.00  0.00    +0.019 A 
ATOM     10  C   UNL     1       3.780   8.644   0.011  0.00  0.00    +0.026 A 
ATOM     11  C   UNL     1       5.080   8.124   0.001  0.00  0.00    +0.018 A 
ATOM     12 BR   UNL     1       1.831  10.709   0.049  0.00  0.00    -0.050 Br
BRANCH   6  14
ATOM     13  C   UNL     1       8.507   9.462  -0.024  0.00  0.00    +0.277 C 
ATOM     14  O   UNL     1       7.441   8.510  -0.020  0.00  0.00    -0.495 OA
ENDBRANCH   6  14
ENDBRANCH   4  11
ENDBRANCH   2   5
ENDBRANCH   1   2
BRANCH   1  15
ATOM     15  C   UNL     1       3.670   2.190  -0.022  0.00  0.00    +0.271 C 
BRANCH  15  16
ATOM     16  C   UNL     1       2.377   1.416  -0.014  0.00  0.00    +0.034 A 
ATOM     17  C   UNL     1       1.170   2.088   0.002  0.00  0.00    +0.043 A 
ATOM     18  C   UNL     1      -0.017   1.378   0.010  0.00  0.00    +0.127 A 
ATOM     19  C   UNL     1       0.002  -0.004   0.002  0.00  0.00    +0.042 A 
ATOM     20  C   UNL     1       1.207  -0.681  -0.013  0.00  0.00    +0.022 A 
ATOM     21  C   UNL     1       2.398   0.028  -0.023  0.00  0.00    +0.135 A 
ATOM     22  O   UNL     1       3.591  -0.625  -0.046  0.00  0.00    -0.465 OA
ATOM     23  C   UNL     1       3.576  -2.010   0.311  0.00  0.00    +0.394 C 
ATOM     24  O   UNL     1       2.512  -2.654  -0.400  0.00  0.00    -0.339 OA
ATOM     25  C   UNL     1       1.216  -2.189  -0.013  0.00  0.00    +0.202 C 
BRANCH  18  26
ATOM     26  N   UNL     1      -1.309   2.100   0.020  0.00  0.00    +0.056 N 
ATOM     27  O   UNL     1      -2.355   1.476   0.021  0.00  0.00    -0.126 OA
ATOM     28  O   UNL     1      -1.326   3.318   0.026  0.00  0.00    -0.126 OA
ENDBRANCH  18  26
ENDBRANCH  15  16
ENDBRANCH   1  15
TORSDOF 7
