REMARK  Name = ZINC63727975
REMARK  7 active torsions:
REMARK  status: ('A' for Active; 'I' for Inactive)
REMARK    1  A    between atoms: C_1  and  C_2
REMARK    2  A    between atoms: C_2  and  C_3
REMARK    3  A    between atoms: C_2  and  C_4
REMARK    4  A    between atoms: C_2  and  N_5
REMARK    5  A    between atoms: C_12  and  C_14
REMARK    6  A    between atoms: C_14  and  N_15
REMARK    7  A    between atoms: N_18  and  C_19
REMARK                            x       y       z     vdW  Elec       q    Type
REMARK                         _______ _______ _______ _____ _____    ______ ____
ROOT
ATOM      1  N   UNL     1       0.556  -0.327  -1.319  0.00  0.00    +0.384 N 
ATOM      2  C   UNL     1       0.345  -1.750  -1.573  0.00  0.00    -0.076 C 
ATOM      3  C   UNL     1       0.211  -1.978  -3.062  0.00  0.00    +0.000 C 
ATOM      4  C   UNL     1       1.587  -2.336  -3.652  0.00  0.00    +0.106 C 
ATOM      5  N   UNL     1       2.656  -1.522  -3.039  0.00  0.00    -0.302 N 
ATOM      6  C   UNL     1       2.494  -0.108  -2.767  0.00  0.00    +0.089 C 
ATOM      7  C   UNL     1       1.906   0.090  -1.351  0.00  0.00    -0.059 C 
ATOM      8  C   UNL     1       3.823  -2.115  -2.721  0.00  0.00    +0.233 C 
ATOM      9  O   UNL     1       4.715  -1.466  -2.216  0.00  0.00    -0.274 OA
ATOM     10  H   UNL     1       0.045   0.197  -2.014  0.00  0.00    -0.081 HD
ENDROOT
BRANCH   1  12
ATOM     11  C   UNL     1       0.233   1.478   0.304  0.00  0.00    -0.010 C 
ATOM     12  C   UNL     1       0.002  -0.004   0.002  0.00  0.00    -0.074 C 
ATOM     13  C   UNL     1       0.695  -0.856   1.068  0.00  0.00    -0.010 C 
ATOM     14  C   UNL     1      -1.499  -0.298   0.011  0.00  0.00    -0.010 C 
ENDBRANCH   1  12
BRANCH   8  15
ATOM     15  C   UNL     1       4.020  -3.584  -2.992  0.00  0.00    +0.201 C 
BRANCH  15  16
ATOM     16  N   UNL     1       5.361  -3.985  -2.559  0.00  0.00    -0.291 N 
ATOM     17  C   UNL     1       5.762  -5.263  -2.705  0.00  0.00    +0.300 C 
ATOM     18  O   UNL     1       5.011  -6.084  -3.195  0.00  0.00    -0.253 OA
ATOM     19  N   UNL     1       6.996  -5.632  -2.307  0.00  0.00    -0.297 N 
ATOM     20  H   UNL     1       5.961  -3.330  -2.169  0.00  0.00    +0.151 HD
ATOM     21  H   UNL     1       7.596  -4.977  -1.917  0.00  0.00    +0.151 HD
BRANCH  19  22
ATOM     22  C   UNL     1       7.432  -7.022  -2.466  0.00  0.00    +0.074 C 
ATOM     23  C   UNL     1       6.959  -7.844  -1.265  0.00  0.00    +0.022 C 
ATOM     24  C   UNL     1       7.414  -9.296  -1.430  0.00  0.00    +0.002 C 
ATOM     25  C   UNL     1       8.941  -9.345  -1.513  0.00  0.00    +0.000 C 
ATOM     26  C   UNL     1       9.414  -8.523  -2.713  0.00  0.00    +0.002 C 
ATOM     27  C   UNL     1       8.959  -7.071  -2.548  0.00  0.00    +0.022 C 
ENDBRANCH  19  22
ENDBRANCH  15  16
ENDBRANCH   8  15
TORSDOF 4
