REMARK  Name = ZINC10107695
REMARK  11 active torsions:
REMARK  status: ('A' for Active; 'I' for Inactive)
REMARK    1  A    between atoms: C_1  and  C_2
REMARK    2  A    between atoms: C_2  and  O_3
REMARK    3  A    between atoms: O_3  and  C_4
REMARK    4  A    between atoms: C_7  and  N_10
REMARK    5  A    between atoms: C_11  and  C_35
REMARK    6  A    between atoms: N_20  and  C_25
REMARK    7  A    between atoms: N_23  and  C_24
REMARK    8  A    between atoms: C_25  and  C_26
REMARK    9  A    between atoms: C_26  and  C_28
REMARK   10  A    between atoms: C_26  and  C_29
REMARK   11  A    between atoms: C_29  and  N_69
REMARK                            x       y       z     vdW  Elec       q    Type
REMARK                         _______ _______ _______ _____ _____    ______ ____
ROOT
ATOM      1  N   UNL     1      -4.096   0.294   1.942  0.00  0.00    -0.283 N 
ATOM      2  C   UNL     1      -4.037  -1.001   1.459  0.00  0.00    +0.040 A 
ATOM      3  C   UNL     1      -2.790  -1.239   1.062  0.00  0.00    +0.116 A 
ATOM      4  N   UNL     1      -2.036  -0.100   1.285  0.00  0.00    -0.277 N 
ATOM      5  C   UNL     1      -2.843   0.842   1.827  0.00  0.00    +0.223 A 
ATOM      6  N   UNL     1      -2.139   1.940   2.060  0.00  0.00    -0.193 NA
ATOM      7  C   UNL     1      -0.879   1.761   1.674  0.00  0.00    +0.170 A 
ATOM      8  C   UNL     1      -0.774   0.464   1.173  0.00  0.00    +0.157 A 
ATOM      9  C   UNL     1       0.468   0.011   0.699  0.00  0.00    +0.283 A 
ATOM     10  O   UNL     1       0.584  -1.121   0.261  0.00  0.00    -0.265 OA
ATOM     11  N   UNL     1       1.530   0.843   0.727  0.00  0.00    -0.259 N 
ATOM     12  C   UNL     1       1.418   2.093   1.207  0.00  0.00    +0.333 A 
ATOM     13  O   UNL     1       2.398   2.814   1.216  0.00  0.00    -0.246 OA
ATOM     14  N   UNL     1       0.249   2.568   1.677  0.00  0.00    -0.279 N 
ATOM     15  C   UNL     1       0.169   3.937   2.191  0.00  0.00    +0.155 C 
ATOM     16  C   UNL     1      -5.186  -1.973   1.395  0.00  0.00    +0.065 C 
ENDROOT
BRANCH   1  20
ATOM     17  C   UNL     1      -7.478   2.194   3.473  0.00  0.00    +0.121 A 
ATOM     18  C   UNL     1      -6.940   1.099   4.132  0.00  0.00    +0.047 A 
ATOM     19  C   UNL     1      -5.820   0.469   3.626  0.00  0.00    +0.030 A 
ATOM     20  C   UNL     1      -5.233   0.933   2.456  0.00  0.00    +0.050 A 
ATOM     21  C   UNL     1      -5.769   2.033   1.800  0.00  0.00    +0.030 A 
ATOM     22  C   UNL     1      -6.892   2.658   2.304  0.00  0.00    +0.047 A 
BRANCH  17  23
ATOM     23  O   UNL     1      -8.581   2.814   3.972  0.00  0.00    -0.492 OA
BRANCH  23  25
ATOM     24  C   UNL     1     -10.315   4.497   3.951  0.00  0.00    +0.048 C 
ATOM     25  C   UNL     1      -9.081   3.935   3.241  0.00  0.00    +0.225 C 
ENDBRANCH  23  25
ENDBRANCH  17  23
ENDBRANCH   1  20
BRANCH  11  26
ATOM     26  C   UNL     1       2.825   0.375   0.229  0.00  0.00    +0.131 C 
BRANCH  26  27
ATOM     27  C   UNL     1       2.939   0.687  -1.265  0.00  0.00    -0.011 C 
ATOM     28  C   UNL     1       1.893  -0.120  -2.036  0.00  0.00    +0.007 C 
BRANCH  27  29
ATOM     29  C   UNL     1       4.338   0.312  -1.759  0.00  0.00    -0.074 C 
BRANCH  29  35
ATOM     30  C   UNL     1       5.262   2.546  -1.629  0.00  0.00    -0.079 C 
ATOM     31  C   UNL     1       6.209   3.446  -0.830  0.00  0.00    -0.019 C 
ATOM     32  C   UNL     1       7.638   2.909  -0.950  0.00  0.00    -0.004 C 
ATOM     33  C   UNL     1       7.675   1.463  -0.447  0.00  0.00    -0.019 C 
ATOM     34  C   UNL     1       6.686   0.621  -1.256  0.00  0.00    -0.079 C 
ATOM     35  N   UNL     1       5.327   1.175  -1.080  0.00  0.00    +0.380 N 
ATOM     36  H   UNL     1       5.108   1.207  -0.077  0.00  0.00    -0.082 HD
ENDBRANCH  29  35
ENDBRANCH  27  29
ENDBRANCH  26  27
ENDBRANCH  11  26
TORSDOF 7
