REMARK  Name = ZINC16741827
REMARK  4 active torsions:
REMARK  status: ('A' for Active; 'I' for Inactive)
REMARK    1  A    between atoms: C_3  and  O_31
REMARK    2  A    between atoms: C_6  and  C_7
REMARK    3  A    between atoms: N_22  and  C_23
REMARK    4  A    between atoms: C_23  and  C_24
REMARK                            x       y       z     vdW  Elec       q    Type
REMARK                         _______ _______ _______ _____ _____    ______ ____
ROOT
ATOM      1  C   UNL     1      -0.570  -3.237   0.280  0.00  0.00    +0.145 C 
ATOM      2  C   UNL     1      -0.749  -4.417  -0.640  0.00  0.00    +0.072 A 
ATOM      3  C   UNL     1      -1.907  -5.253  -0.968  0.00  0.00    +0.199 A 
ATOM      4  O   UNL     1      -3.001  -5.054  -0.469  0.00  0.00    -0.287 OA
ATOM      5  C   UNL     1      -1.683  -6.347  -1.933  0.00  0.00    +0.066 A 
ATOM      6  C   UNL     1      -2.715  -7.202  -2.316  0.00  0.00    +0.035 A 
ATOM      7  C   UNL     1      -2.461  -8.210  -3.221  0.00  0.00    +0.042 A 
ATOM      8  C   UNL     1      -1.186  -8.372  -3.747  0.00  0.00    +0.023 A 
ATOM      9  C   UNL     1      -0.158  -7.533  -3.375  0.00  0.00    +0.048 A 
ATOM     10  C   UNL     1      -0.391  -6.508  -2.463  0.00  0.00    +0.140 A 
ATOM     11  O   UNL     1       0.605  -5.682  -2.094  0.00  0.00    -0.450 OA
ATOM     12  C   UNL     1       0.451  -4.670  -1.217  0.00  0.00    +0.199 A 
ATOM     13  C   UNL     1       1.432  -3.679  -0.708  0.00  0.00    +0.283 C 
ATOM     14  O   UNL     1       2.603  -3.632  -1.030  0.00  0.00    -0.267 OA
ATOM     15  N   UNL     1       0.839  -2.842   0.161  0.00  0.00    -0.281 N 
ATOM     16 CL   UNL     1      -3.739  -9.281  -3.705  0.00  0.00    -0.084 Cl
ENDROOT
BRANCH   1  22
ATOM     17  C   UNL     1      -1.197  -1.423  -1.326  0.00  0.00    +0.009 A 
ATOM     18  C   UNL     1      -2.019  -0.388  -1.728  0.00  0.00    +0.046 A 
ATOM     19  C   UNL     1      -3.107  -0.025  -0.948  0.00  0.00    +0.117 A 
ATOM     20  C   UNL     1      -3.370  -0.707   0.231  0.00  0.00    +0.046 A 
ATOM     21  C   UNL     1      -2.549  -1.745   0.626  0.00  0.00    +0.009 A 
ATOM     22  C   UNL     1      -1.464  -2.104  -0.153  0.00  0.00    -0.022 A 
BRANCH  19  23
ATOM     23  O   UNL     1      -3.914   0.996  -1.338  0.00  0.00    -0.507 OA
ATOM     24  H   UNL     1      -3.640   1.862  -1.008  0.00  0.00    +0.292 HD
ENDBRANCH  19  23
ENDBRANCH   1  22
BRANCH  15  25
ATOM     25  C   UNL     1       1.486  -1.735   0.868  0.00  0.00    +0.140 C 
BRANCH  25  26
ATOM     26  C   UNL     1       2.030  -2.234   2.208  0.00  0.00    +0.136 C 
ATOM     27  C   UNL     1       2.685  -1.070   2.993  0.00  0.00    +0.035 C 
ATOM     28  C   UNL     1       3.675  -1.847   3.903  0.00  0.00    +0.031 C 
ATOM     29  C   UNL     1       4.098  -3.024   2.997  0.00  0.00    +0.160 C 
ATOM     30  O   UNL     1       3.086  -3.184   1.996  0.00  0.00    -0.375 OA
ENDBRANCH  25  26
ENDBRANCH  15  25
TORSDOF 4
