REMARK  Name = ZINC66589293
REMARK  6 active torsions:
REMARK  status: ('A' for Active; 'I' for Inactive)
REMARK    1  A    between atoms: C_1  and  C_2
REMARK    2  A    between atoms: C_12  and  S_14
REMARK    3  A    between atoms: S_14  and  N_17
REMARK    4  A    between atoms: N_17  and  N_18
REMARK    5  A    between atoms: C_19  and  C_21
REMARK    6  A    between atoms: C_21  and  C_22
REMARK                            x       y       z     vdW  Elec       q    Type
REMARK                         _______ _______ _______ _____ _____    ______ ____
ROOT
ATOM      1  S   UNL     1      -6.296   2.240  -0.467  0.00  0.00    +0.074 S 
ATOM      2  O   UNL     1      -7.329   1.278  -0.305  0.00  0.00    -0.152 OA
ATOM      3  O   UNL     1      -6.175   3.377   0.376  0.00  0.00    -0.152 OA
ENDROOT
BRANCH   1  15
ATOM      4  C   UNL     1       1.316  -0.742   0.016  0.00  0.00    +0.109 C 
ATOM      5  C   UNL     1       0.002  -0.004   0.002  0.00  0.00    +0.217 C 
ATOM      6  O   UNL     1      -0.015   1.206   0.076  0.00  0.00    -0.276 OA
ATOM      7  N   UNL     1      -1.155  -0.689  -0.092  0.00  0.00    -0.271 N 
ATOM      8  C   UNL     1      -1.154  -2.159  -0.096  0.00  0.00    +0.114 C 
ATOM      9  C   UNL     1      -2.109  -2.625  -1.203  0.00  0.00    +0.024 C 
ATOM     10  C   UNL     1      -3.524  -2.158  -0.864  0.00  0.00    +0.038 C 
ATOM     11  C   UNL     1      -3.534  -0.683  -0.559  0.00  0.00    -0.024 A 
ATOM     12  C   UNL     1      -2.379  -0.012  -0.183  0.00  0.00    +0.040 A 
ATOM     13  C   UNL     1      -2.423   1.347   0.102  0.00  0.00    +0.026 A 
ATOM     14  C   UNL     1      -3.619   2.033   0.016  0.00  0.00    +0.030 A 
ATOM     15  C   UNL     1      -4.771   1.365  -0.356  0.00  0.00    +0.107 A 
ATOM     16  C   UNL     1      -4.728   0.012  -0.650  0.00  0.00    +0.034 A 
ENDBRANCH   1  15
BRANCH   1  17
ATOM     17  N   UNL     1      -6.421   2.811  -2.017  0.00  0.00    -0.108 NA
ATOM     18  H   UNL     1      -6.491   3.765  -2.178  0.00  0.00    +0.172 HD
BRANCH  17  19
ATOM     19  N   UNL     1      -6.425   1.916  -3.095  0.00  0.00    -0.232 N 
ATOM     20  C   UNL     1      -7.437   1.938  -3.985  0.00  0.00    +0.228 C 
ATOM     21  O   UNL     1      -8.344   2.732  -3.853  0.00  0.00    -0.274 OA
ATOM     22  H   UNL     1      -5.700   1.281  -3.200  0.00  0.00    +0.171 HD
BRANCH  20  23
ATOM     23  C   UNL     1      -7.441   0.976  -5.145  0.00  0.00    +0.100 C 
BRANCH  23  24
ATOM     24  C   UNL     1      -8.690   1.209  -5.997  0.00  0.00    -0.002 C 
ATOM     25  C   UNL     1      -9.937   0.863  -5.179  0.00  0.00    +0.004 C 
ATOM     26  C   UNL     1     -11.186   1.097  -6.031  0.00  0.00    +0.000 C 
ATOM     27  C   UNL     1     -11.129   0.207  -7.274  0.00  0.00    +0.000 C 
ATOM     28  C   UNL     1      -9.883   0.553  -8.092  0.00  0.00    +0.000 C 
ATOM     29  C   UNL     1      -8.633   0.319  -7.240  0.00  0.00    +0.004 C 
ENDBRANCH  23  24
ENDBRANCH  20  23
ENDBRANCH  17  19
ENDBRANCH   1  17
TORSDOF 5
