REMARK  Name = ZINC08740285
REMARK  10 active torsions:
REMARK  status: ('A' for Active; 'I' for Inactive)
REMARK    1  A    between atoms: C_1  and  C_2
REMARK    2  A    between atoms: N_6  and  O_7
REMARK    3  A    between atoms: O_7  and  C_8
REMARK    4  A    between atoms: C_8  and  C_9
REMARK    5  A    between atoms: N_11  and  C_12
REMARK    6  A    between atoms: C_12  and  C_13
REMARK    7  A    between atoms: C_13  and  C_14
REMARK    8  A    between atoms: C_30  and  C_39
REMARK    9  A    between atoms: C_35  and  C_36
REMARK   10  A    between atoms: C_35  and  O_38
REMARK                            x       y       z     vdW  Elec       q    Type
REMARK                         _______ _______ _______ _____ _____    ______ ____
ROOT
ATOM      1  C   UNL     1      -0.019   1.526   0.010  0.00  0.00    +0.016 C 
ATOM      2  C   UNL     1       0.002  -0.004   0.002  0.00  0.00    -0.007 C 
ATOM      3  C   UNL     1      -1.436  -0.459   0.038  0.00  0.00    +0.017 C 
ATOM      4  C   UNL     1      -1.600  -1.812   0.730  0.00  0.00    +0.059 C 
ATOM      5  C   UNL     1      -0.984  -1.696   2.112  0.00  0.00    +0.080 C 
ATOM      6  N   UNL     1      -1.632  -2.034   3.182  0.00  0.00    -0.089 NA
ATOM      7  C   UNL     1       0.397  -1.178   2.165  0.00  0.00    +0.026 C 
ATOM      8  C   UNL     1       0.841  -0.429   1.166  0.00  0.00    -0.062 C 
ATOM      9  C   UNL     1       2.295   0.015   1.176  0.00  0.00    +0.031 C 
ATOM     10  C   UNL     1       2.920  -0.422  -0.153  0.00  0.00    +0.008 C 
ATOM     11  C   UNL     1       2.109   0.137  -1.323  0.00  0.00    -0.003 C 
ATOM     12  C   UNL     1       0.686  -0.423  -1.301  0.00  0.00    +0.002 C 
ATOM     13  C   UNL     1      -0.089   0.173  -2.481  0.00  0.00    +0.005 C 
ATOM     14  C   UNL     1       0.567  -0.280  -3.781  0.00  0.00    +0.011 C 
ATOM     15  C   UNL     1       2.002   0.247  -3.873  0.00  0.00    +0.011 C 
ATOM     16  C   UNL     1       2.807  -0.163  -2.628  0.00  0.00    +0.002 C 
ATOM     17  C   UNL     1       3.049  -1.670  -2.837  0.00  0.00    +0.008 C 
ATOM     18  C   UNL     1       3.335  -1.782  -4.352  0.00  0.00    +0.049 C 
ATOM     19  C   UNL     1       2.694  -0.547  -5.013  0.00  0.00    +0.132 C 
ATOM     20  C   UNL     1       2.039   1.756  -4.120  0.00  0.00    +0.015 C 
ENDROOT
BRANCH  19  21
ATOM     21  C   UNL     1       3.731   0.281  -5.649  0.00  0.00    -0.070 C 
ATOM     22  C   UNL     1       4.559   0.942  -6.156  0.00  0.00    +0.007 C 
ENDBRANCH  19  21
BRANCH  19  23
ATOM     23  O   UNL     1       1.728  -0.956  -5.983  0.00  0.00    -0.376 OA
ATOM     24  H   UNL     1       2.100  -1.457  -6.722  0.00  0.00    +0.211 HD
ENDBRANCH  19  23
BRANCH   6  25
ATOM     25  O   UNL     1      -1.016  -1.909   4.451  0.00  0.00    -0.384 OA
BRANCH  25  26
ATOM     26  C   UNL     1      -1.845  -2.317   5.541  0.00  0.00    +0.358 C 
BRANCH  26  27
ATOM     27  C   UNL     1      -1.094  -2.143   6.836  0.00  0.00    +0.253 C 
ATOM     28  O   UNL     1       0.040  -1.712   6.826  0.00  0.00    -0.272 OA
ATOM     29  N   UNL     1      -1.681  -2.466   8.005  0.00  0.00    -0.312 N 
ATOM     30  H   UNL     1      -2.588  -2.810   8.013  0.00  0.00    +0.149 HD
BRANCH  29  31
ATOM     31  C   UNL     1      -0.951  -2.296   9.263  0.00  0.00    +0.110 C 
BRANCH  31  32
ATOM     32  C   UNL     1      -1.838  -2.733  10.431  0.00  0.00    +0.073 C 
BRANCH  32  33
ATOM     33  C   UNL     1      -1.086  -2.559  11.726  0.00  0.00    +0.035 A 
ATOM     34  C   UNL     1      -0.228  -3.443  12.268  0.00  0.00    +0.105 A 
ATOM     35  N   UNL     1       0.226  -2.891  13.435  0.00  0.00    -0.352 N 
ATOM     36  H   UNL     1       0.859  -3.290  14.053  0.00  0.00    +0.166 HD
ATOM     37  C   UNL     1      -0.371  -1.686  13.565  0.00  0.00    +0.171 A 
ATOM     38  N   UNL     1      -1.150  -1.492  12.537  0.00  0.00    -0.350 N 
ATOM     39  H   UNL     1      -1.692  -0.702  12.384  0.00  0.00    +0.166 HD
ENDBRANCH  32  33
ENDBRANCH  31  32
ENDBRANCH  29  31
ENDBRANCH  26  27
ENDBRANCH  25  26
ENDBRANCH   6  25
TORSDOF 8
