REMARK  Name = ZINC15236587
REMARK  9 active torsions:
REMARK  status: ('A' for Active; 'I' for Inactive)
REMARK    1  A    between atoms: C_1  and  C_2
REMARK    2  A    between atoms: C_2  and  C_22
REMARK    3  A    between atoms: N_5  and  C_9
REMARK    4  A    between atoms: C_9  and  C_10
REMARK    5  A    between atoms: C_10  and  C_12
REMARK    6  A    between atoms: C_10  and  O_21
REMARK    7  A    between atoms: C_12  and  O_13
REMARK    8  A    between atoms: O_13  and  C_14
REMARK    9  A    between atoms: C_25  and  N_28
REMARK                            x       y       z     vdW  Elec       q    Type
REMARK                         _______ _______ _______ _____ _____    ______ ____
ROOT
ATOM      1  C   UNL     1      -0.791   2.022   1.224  0.00  0.00    +0.047 C 
ATOM      2  C   UNL     1      -0.018   1.503   0.010  0.00  0.00    +0.135 C 
ATOM      3  C   UNL     1      -0.619   2.035  -1.276  0.00  0.00    +0.251 C 
ATOM      4  O   UNL     1      -1.742   1.847  -1.692  0.00  0.00    -0.272 OA
ATOM      5  N   UNL     1       0.355   2.760  -1.860  0.00  0.00    -0.221 N 
ATOM      6  C   UNL     1       1.476   2.759  -1.130  0.00  0.00    +0.310 C 
ATOM      7  O   UNL     1       2.492   3.344  -1.451  0.00  0.00    -0.252 OA
ATOM      8  N   UNL     1       1.353   2.040   0.000  0.00  0.00    -0.281 N 
ATOM      9  H   UNL     1       2.035   1.901   0.676  0.00  0.00    +0.152 HD
ENDROOT
BRANCH   2  10
ATOM     10  C   UNL     1       0.002  -0.004   0.002  0.00  0.00    -0.015 A 
ATOM     11  C   UNL     1      -1.018  -0.706  -0.612  0.00  0.00    +0.008 A 
ATOM     12  C   UNL     1      -0.998  -2.088  -0.623  0.00  0.00    +0.033 A 
ATOM     13  C   UNL     1       0.039  -2.768  -0.013  0.00  0.00    +0.126 A 
ATOM     14  C   UNL     1       1.057  -2.067   0.606  0.00  0.00    +0.033 A 
ATOM     15  C   UNL     1       1.038  -0.685   0.613  0.00  0.00    +0.008 A 
BRANCH  13  16
ATOM     16  N   UNL     1       0.059  -4.248  -0.021  0.00  0.00    +0.056 N 
ATOM     17  O   UNL     1       0.973  -4.848   0.517  0.00  0.00    -0.126 OA
ATOM     18  O   UNL     1      -0.838  -4.867  -0.565  0.00  0.00    -0.126 OA
ENDBRANCH  13  16
ENDBRANCH   2  10
BRANCH   5  19
ATOM     19  C   UNL     1       0.205   3.462  -3.137  0.00  0.00    +0.152 C 
BRANCH  19  20
ATOM     20  C   UNL     1       0.608   2.530  -4.282  0.00  0.00    +0.170 C 
BRANCH  20  21
ATOM     21  O   UNL     1       1.970   2.132  -4.115  0.00  0.00    -0.387 OA
ATOM     22  H   UNL     1       2.598   2.867  -4.111  0.00  0.00    +0.210 HD
ENDBRANCH  20  21
BRANCH  20  23
ATOM     23  C   UNL     1       0.452   3.264  -5.615  0.00  0.00    +0.261 C 
BRANCH  23  24
ATOM     24  O   UNL     1       0.716   2.360  -6.690  0.00  0.00    -0.489 OA
BRANCH  24  25
ATOM     25  C   UNL     1       0.619   2.856  -7.952  0.00  0.00    +0.122 A 
ATOM     26  C   UNL     1       0.271   4.184  -8.151  0.00  0.00    +0.046 A 
ATOM     27  C   UNL     1       0.178   4.688  -9.434  0.00  0.00    +0.005 A 
ATOM     28  C   UNL     1       0.421   3.867 -10.520  0.00  0.00    +0.015 A 
ATOM     29  C   UNL     1       0.762   2.541 -10.324  0.00  0.00    +0.021 A 
ATOM     30  C   UNL     1       0.862   2.034  -9.042  0.00  0.00    +0.061 A 
ATOM     31 BR   UNL     1       1.093   1.421 -11.812  0.00  0.00    -0.050 Br
ENDBRANCH  24  25
ENDBRANCH  23  24
ENDBRANCH  20  23
ENDBRANCH  19  20
ENDBRANCH   5  19
TORSDOF 8
