REMARK  Name = ZINC01325829
REMARK  5 active torsions:
REMARK  status: ('A' for Active; 'I' for Inactive)
REMARK    1  A    between atoms: N_13  and  S_16
REMARK    2  A    between atoms: S_16  and  C_19
REMARK    3  A    between atoms: C_22  and  S_25
REMARK    4  A    between atoms: S_25  and  N_28
REMARK    5  A    between atoms: N_28  and  C_29
REMARK                            x       y       z     vdW  Elec       q    Type
REMARK                         _______ _______ _______ _____ _____    ______ ____
ROOT
ATOM      1  S   UNL     1       0.866   5.268  -1.781  0.00  0.00    +0.061 S 
ATOM      2  O   UNL     1      -0.319   5.922  -2.215  0.00  0.00    -0.153 OA
ATOM      3  O   UNL     1       1.894   5.946  -1.072  0.00  0.00    -0.153 OA
ENDROOT
BRANCH   1  16
ATOM      4  C   UNL     1      -1.492  -4.514  -0.011  0.00  0.00    +0.002 A 
ATOM      5  C   UNL     1      -0.166  -4.918  -0.026  0.00  0.00    +0.001 A 
ATOM      6  C   UNL     1       0.834  -3.962  -0.030  0.00  0.00    +0.017 A 
ATOM      7  C   UNL     1       0.498  -2.631  -0.018  0.00  0.00    +0.041 A 
ATOM      8  C   UNL     1      -0.842  -2.183  -0.002  0.00  0.00    +0.080 A 
ATOM      9  C   UNL     1      -1.837  -3.187   0.001  0.00  0.00    +0.029 A 
ATOM     10  N   UNL     1      -1.010  -0.842   0.007  0.00  0.00    -0.225 NA
ATOM     11  C   UNL     1       0.002  -0.004   0.002  0.00  0.00    +0.162 A 
ATOM     12  S   UNL     1       1.409  -1.106  -0.025  0.00  0.00    -0.052 S 
ATOM     13  N   UNL     1      -0.017   1.376   0.010  0.00  0.00    -0.307 N 
ATOM     14  C   UNL     1      -0.807   1.898  -1.113  0.00  0.00    +0.124 C 
ATOM     15  C   UNL     1      -0.955   3.416  -0.967  0.00  0.00    +0.128 C 
ATOM     16  N   UNL     1       0.386   4.004  -0.824  0.00  0.00    -0.174 NA
ATOM     17  C   UNL     1       1.288   3.440   0.191  0.00  0.00    +0.128 C 
ATOM     18  C   UNL     1       1.347   1.921  -0.001  0.00  0.00    +0.124 C 
ENDBRANCH   1  16
BRANCH   1  19
ATOM     19  C   UNL     1       1.616   4.578  -3.218  0.00  0.00    +0.106 A 
ATOM     20  C   UNL     1       2.975   4.324  -3.235  0.00  0.00    +0.030 A 
ATOM     21  C   UNL     1       3.562   3.778  -4.361  0.00  0.00    +0.030 A 
ATOM     22  C   UNL     1       2.793   3.496  -5.474  0.00  0.00    +0.105 A 
ATOM     23  C   UNL     1       1.435   3.755  -5.459  0.00  0.00    +0.030 A 
ATOM     24  C   UNL     1       0.846   4.296  -4.331  0.00  0.00    +0.030 A 
BRANCH  22  25
ATOM     25  S   UNL     1       3.542   2.806  -6.911  0.00  0.00    +0.059 S 
ATOM     26  O   UNL     1       4.727   2.152  -6.477  0.00  0.00    -0.153 OA
ATOM     27  O   UNL     1       2.514   2.128  -7.620  0.00  0.00    -0.153 OA
BRANCH  25  28
ATOM     28  N   UNL     1       4.023   4.069  -7.867  0.00  0.00    -0.187 NA
ATOM     29  H   UNL     1       3.613   4.203  -8.737  0.00  0.00    +0.148 HD
BRANCH  28  30
ATOM     30  C   UNL     1       5.066   4.986  -7.401  0.00  0.00    +0.077 C 
ATOM     31  C   UNL     1       4.425   6.254  -6.800  0.00  0.00    +0.020 C 
ATOM     32  C   UNL     1       5.374   7.400  -7.231  0.00  0.00    +0.002 C 
ATOM     33  C   UNL     1       5.784   6.983  -8.666  0.00  0.00    +0.002 C 
ATOM     34  C   UNL     1       5.930   5.449  -8.587  0.00  0.00    +0.020 C 
ENDBRANCH  28  30
ENDBRANCH  25  28
ENDBRANCH  22  25
ENDBRANCH   1  19
TORSDOF 5
