REMARK  Name = ZINC35005151
REMARK  8 active torsions:
REMARK  status: ('A' for Active; 'I' for Inactive)
REMARK    1  A    between atoms: C_1  and  C_2
REMARK    2  A    between atoms: C_13  and  C_15
REMARK    3  A    between atoms: C_15  and  N_16
REMARK    4  A    between atoms: N_16  and  C_17
REMARK    5  A    between atoms: N_20  and  C_21
REMARK    6  A    between atoms: C_21  and  C_22
REMARK    7  A    between atoms: C_21  and  C_23
REMARK    8  A    between atoms: C_21  and  C_24
REMARK                            x       y       z     vdW  Elec       q    Type
REMARK                         _______ _______ _______ _____ _____    ______ ____
ROOT
ATOM      1  C   UNL     1      -0.019   1.526   0.010  0.00  0.00    +0.033 C 
ATOM      2  C   UNL     1       0.002  -0.004   0.002  0.00  0.00    +0.103 C 
ATOM      3  C   UNL     1      -1.413  -0.525   0.011  0.00  0.00    -0.024 A 
ATOM      4  C   UNL     1      -2.166  -0.375  -1.147  0.00  0.00    +0.006 A 
ATOM      5  C   UNL     1      -3.470  -0.823  -1.197  0.00  0.00    +0.000 A 
ATOM      6  C   UNL     1      -4.031  -1.424  -0.085  0.00  0.00    +0.000 A 
ATOM      7  C   UNL     1      -3.284  -1.576   1.063  0.00  0.00    +0.004 A 
ATOM      8  C   UNL     1      -1.968  -1.132   1.115  0.00  0.00    -0.041 A 
ATOM      9  C   UNL     1      -1.204  -1.357   2.393  0.00  0.00    +0.054 C 
ATOM     10  C   UNL     1       0.004  -0.426   2.477  0.00  0.00    +0.113 C 
ATOM     11  N   UNL     1       0.713  -0.489   1.190  0.00  0.00    -0.293 N 
ATOM     12  C   UNL     1       1.968  -0.974   1.106  0.00  0.00    +0.233 C 
ATOM     13  O   UNL     1       2.532  -1.016   0.033  0.00  0.00    -0.274 OA
ENDROOT
BRANCH  12  14
ATOM     14  C   UNL     1       2.671  -1.464   2.345  0.00  0.00    +0.204 C 
BRANCH  14  15
ATOM     15  N   UNL     1       4.011  -1.938   1.992  0.00  0.00    -0.280 N 
ATOM     16  C   UNL     1       5.145  -1.010   2.013  0.00  0.00    +0.134 C 
ATOM     17  C   UNL     1       4.202  -3.227   1.647  0.00  0.00    +0.303 C 
ATOM     18  O   UNL     1       3.261  -3.997   1.629  0.00  0.00    -0.253 OA
ATOM     19  N   UNL     1       5.435  -3.662   1.321  0.00  0.00    -0.294 N 
ATOM     20  H   UNL     1       6.186  -3.048   1.335  0.00  0.00    +0.151 HD
BRANCH  19  21
ATOM     21  C   UNL     1       5.642  -5.063   0.946  0.00  0.00    +0.028 C 
ATOM     22  C   UNL     1       4.798  -5.391  -0.286  0.00  0.00    +0.031 C 
ATOM     23  C   UNL     1       7.121  -5.292   0.627  0.00  0.00    +0.031 C 
ATOM     24  C   UNL     1       5.225  -5.968   2.107  0.00  0.00    +0.031 C 
ENDBRANCH  19  21
ENDBRANCH  14  15
ENDBRANCH  12  14
TORSDOF 3
