REMARK  Name = ZINC12547106
REMARK  6 active torsions:
REMARK  status: ('A' for Active; 'I' for Inactive)
REMARK    1  A    between atoms: C_3  and  N_14
REMARK    2  A    between atoms: C_4  and  N_11
REMARK    3  A    between atoms: C_6  and  S_7
REMARK    4  A    between atoms: S_7  and  N_10
REMARK    5  A    between atoms: N_17  and  C_20
REMARK    6  A    between atoms: C_20  and  C_21
REMARK                            x       y       z     vdW  Elec       q    Type
REMARK                         _______ _______ _______ _____ _____    ______ ____
ROOT
ATOM      1  N   UNL     1       3.582   2.122  -0.021  0.00  0.00    -0.332 N 
ATOM      2  C   UNL     1       4.217   2.520  -1.287  0.00  0.00    +0.086 C 
ATOM      3  C   UNL     1       5.687   2.090  -1.249  0.00  0.00    -0.059 C 
ATOM      4  N   UNL     1       6.327   2.644  -0.050  0.00  0.00    +0.386 N 
ATOM      5  C   UNL     1       5.716   2.068   1.155  0.00  0.00    -0.059 C 
ATOM      6  C   UNL     1       4.245   2.502   1.236  0.00  0.00    +0.086 C 
ATOM      7  H   UNL     1       6.209   3.646  -0.039  0.00  0.00    -0.081 HD
ENDROOT
BRANCH   1  10
ATOM      8  C   UNL     1      -0.017   1.378   0.010  0.00  0.00    +0.030 A 
ATOM      9  C   UNL     1       1.169   2.087   0.002  0.00  0.00    +0.027 A 
ATOM     10  C   UNL     1       2.381   1.409  -0.013  0.00  0.00    +0.060 A 
ATOM     11  C   UNL     1       2.396   0.020  -0.021  0.00  0.00    +0.149 A 
ATOM     12  C   UNL     1       1.207  -0.682  -0.013  0.00  0.00    +0.063 A 
ATOM     13  C   UNL     1       0.002  -0.004   0.002  0.00  0.00    +0.107 A 
BRANCH  13  14
ATOM     14  S   UNL     1      -1.513  -0.904   0.012  0.00  0.00    +0.056 S 
ATOM     15  O   UNL     1      -1.221  -2.185   0.553  0.00  0.00    -0.153 OA
ATOM     16  O   UNL     1      -2.493  -0.043   0.577  0.00  0.00    -0.153 OA
BRANCH  14  17
ATOM     17  N   UNL     1      -1.949  -1.145  -1.567  0.00  0.00    -0.204 NA
ATOM     18  H   UNL     1      -2.458  -1.933  -1.815  0.00  0.00    +0.144 HD
ATOM     19  H   UNL     1      -1.696  -0.499  -2.245  0.00  0.00    +0.144 HD
ENDBRANCH  14  17
ENDBRANCH  13  14
BRANCH  11  20
ATOM     20  N   UNL     1       3.686  -0.707  -0.037  0.00  0.00    +0.058 N 
ATOM     21  O   UNL     1       3.698  -1.916  -0.044  0.00  0.00    -0.126 OA
ATOM     22  O   UNL     1       4.726  -0.092  -0.044  0.00  0.00    -0.126 OA
ENDBRANCH  11  20
ENDBRANCH   1  10
BRANCH   4  23
ATOM     23  C   UNL     1       7.761   2.325  -0.070  0.00  0.00    -0.003 C 
BRANCH  23  24
ATOM     24  C   UNL     1       8.442   2.995   1.095  0.00  0.00    +0.095 A 
ATOM     25  N   UNL     1       7.729   3.716   1.916  0.00  0.00    -0.197 NA
ATOM     26  C   UNL     1       8.265   4.343   2.974  0.00  0.00    +0.282 A 
ATOM     27  O   UNL     1       7.564   5.008   3.721  0.00  0.00    -0.265 OA
ATOM     28  C   UNL     1       9.719   4.215   3.222  0.00  0.00    +0.075 A 
ATOM     29  C   UNL     1      10.521   4.800   4.296  0.00  0.00    -0.023 A 
ATOM     30  C   UNL     1      11.842   4.524   4.291  0.00  0.00    -0.004 A 
ATOM     31  S   UNL     1      12.086   3.483   2.877  0.00  0.00    -0.075 S 
ATOM     32  C   UNL     1      10.411   3.427   2.299  0.00  0.00    +0.092 A 
ATOM     33  N   UNL     1       9.770   2.829   1.262  0.00  0.00    -0.339 N 
ATOM     34  C   UNL     1      12.872   4.997   5.270  0.00  0.00    +0.043 C 
ATOM     35  C   UNL     1      12.274   6.155   6.082  0.00  0.00    +0.005 C 
ATOM     36  C   UNL     1      10.879   5.745   6.566  0.00  0.00    +0.005 C 
ATOM     37  C   UNL     1       9.915   5.685   5.382  0.00  0.00    +0.037 C 
ATOM     38  H   UNL     1      10.270   2.283   0.635  0.00  0.00    +0.167 HD
ENDBRANCH  23  24
ENDBRANCH   4  23
TORSDOF 6
