REMARK  Name = ZINC02691833
REMARK  8 active torsions:
REMARK  status: ('A' for Active; 'I' for Inactive)
REMARK    1  A    between atoms: C_1  and  C_2
REMARK    2  A    between atoms: C_5  and  N_8
REMARK    3  A    between atoms: C_14  and  C_29
REMARK    4  A    between atoms: N_17  and  C_20
REMARK    5  A    between atoms: C_20  and  C_21
REMARK    6  A    between atoms: C_26  and  C_27
REMARK    7  A    between atoms: N_31  and  C_32
REMARK    8  A    between atoms: C_32  and  C_33
REMARK                            x       y       z     vdW  Elec       q    Type
REMARK                         _______ _______ _______ _____ _____    ______ ____
ROOT
ATOM      1  N   UNL     1      -0.169  -4.172   0.012  0.00  0.00    -0.228 N 
ATOM      2  C   UNL     1      -0.063  -4.800  -1.179  0.00  0.00    +0.269 A 
ATOM      3  O   UNL     1      -0.177  -4.184  -2.221  0.00  0.00    -0.266 OA
ATOM      4  C   UNL     1       0.197  -6.253  -1.183  0.00  0.00    +0.064 A 
ATOM      5  C   UNL     1       0.320  -6.968  -2.372  0.00  0.00    +0.016 A 
ATOM      6  C   UNL     1       0.563  -8.323  -2.332  0.00  0.00    +0.014 A 
ATOM      7  C   UNL     1       0.685  -8.981  -1.105  0.00  0.00    +0.039 A 
ATOM      8  C   UNL     1       0.563  -8.272   0.088  0.00  0.00    +0.039 A 
ATOM      9  C   UNL     1       0.320  -6.909   0.054  0.00  0.00    +0.060 A 
ATOM     10  N   UNL     1       0.193  -6.166   1.220  0.00  0.00    -0.289 N 
ATOM     11  C   UNL     1      -0.039  -4.843   1.167  0.00  0.00    +0.337 A 
ATOM     12  O   UNL     1      -0.139  -4.228   2.212  0.00  0.00    -0.246 OA
ENDROOT
BRANCH   1  17
ATOM     13  C   UNL     1      -1.166   1.413   0.133  0.00  0.00    +0.044 C 
ATOM     14  C   UNL     1      -0.901  -0.070   0.101  0.00  0.00    -0.050 A 
ATOM     15  C   UNL     1       0.319  -0.543  -0.345  0.00  0.00    +0.005 A 
ATOM     16  C   UNL     1       0.565  -1.902  -0.376  0.00  0.00    +0.026 A 
ATOM     17  C   UNL     1      -0.415  -2.793   0.043  0.00  0.00    +0.054 A 
ATOM     18  C   UNL     1      -1.639  -2.314   0.490  0.00  0.00    +0.026 A 
ATOM     19  C   UNL     1      -1.877  -0.954   0.523  0.00  0.00    +0.005 A 
ENDBRANCH   1  17
BRANCH   7  20
ATOM     20  C   UNL     1       0.946 -10.438  -1.072  0.00  0.00    +0.244 C 
ATOM     21  O   UNL     1       1.053 -11.013  -0.007  0.00  0.00    -0.270 OA
ATOM     22  N   UNL     1       1.064 -11.127  -2.225  0.00  0.00    -0.304 N 
ATOM     23  H   UNL     1       0.979 -10.668  -3.075  0.00  0.00    +0.149 HD
BRANCH  22  24
ATOM     24  C   UNL     1       1.322 -12.569  -2.193  0.00  0.00    +0.179 C 
BRANCH  24  25
ATOM     25  C   UNL     1       1.410 -13.095  -3.603  0.00  0.00    +0.122 A 
ATOM     26  C   UNL     1       2.531 -13.182  -4.341  0.00  0.00    +0.046 A 
ATOM     27  C   UNL     1       2.157 -13.727  -5.591  0.00  0.00    +0.041 A 
ATOM     28  C   UNL     1       0.830 -13.940  -5.541  0.00  0.00    +0.195 A 
ATOM     29  O   UNL     1       0.384 -13.561  -4.333  0.00  0.00    -0.466 OA
ENDBRANCH  24  25
ENDBRANCH  22  24
ENDBRANCH   7  20
BRANCH  10  30
ATOM     30  C   UNL     1       0.317  -6.829   2.520  0.00  0.00    +0.163 C 
BRANCH  30  31
ATOM     31  C   UNL     1       1.773  -6.923   2.898  0.00  0.00    -0.010 A 
ATOM     32  C   UNL     1       2.734  -6.337   2.100  0.00  0.00    +0.006 A 
ATOM     33  C   UNL     1       4.071  -6.422   2.446  0.00  0.00    +0.000 A 
ATOM     34  C   UNL     1       4.454  -7.095   3.594  0.00  0.00    +0.001 A 
ATOM     35  C   UNL     1       3.503  -7.685   4.400  0.00  0.00    +0.019 A 
ATOM     36  C   UNL     1       2.152  -7.597   4.061  0.00  0.00    +0.057 A 
BRANCH  36  37
ATOM     37  C   UNL     1       1.159  -8.202   4.897  0.00  0.00    +0.099 C 
ATOM     38  N   UNL     1       0.372  -8.682   5.560  0.00  0.00    -0.191 NA
ENDBRANCH  36  37
ENDBRANCH  30  31
ENDBRANCH  10  30
TORSDOF 7
