REMARK  Name = ZINC12049236
REMARK  5 active torsions:
REMARK  status: ('A' for Active; 'I' for Inactive)
REMARK    1  A    between atoms: C_8  and  C_11
REMARK    2  A    between atoms: N_13  and  C_14
REMARK    3  A    between atoms: C_14  and  C_15
REMARK    4  A    between atoms: C_21  and  C_22
REMARK    5  A    between atoms: C_21  and  N_54
REMARK                            x       y       z     vdW  Elec       q    Type
REMARK                         _______ _______ _______ _____ _____    ______ ____
ROOT
ATOM      1  C   UNL     1      -0.756   1.594  -1.230  0.00  0.00    -0.011 C 
ATOM      2  C   UNL     1      -0.013   1.086   0.008  0.00  0.00    +0.001 C 
ATOM      3  C   UNL     1      -0.732   1.581   1.266  0.00  0.00    -0.018 C 
ATOM      4  C   UNL     1      -0.804   3.109   1.238  0.00  0.00    -0.078 C 
ATOM      5  C   UNL     1      -0.826   3.122  -1.185  0.00  0.00    -0.073 C 
ATOM      6  N   UNL     1      -1.552   3.533   0.035  0.00  0.00    +0.383 N 
ATOM      7  H   UNL     1      -2.475   3.083   0.041  0.00  0.00    -0.081 HD
ENDROOT
BRANCH   1   8
ATOM      8  C   UNL     1      -0.009   1.154  -2.491  0.00  0.00    +0.106 C 
BRANCH   8  11
ATOM      9  C   UNL     1       0.558  -0.923  -3.631  0.00  0.00    +0.260 C 
ATOM     10  O   UNL     1       1.125  -0.266  -4.483  0.00  0.00    -0.269 OA
ATOM     11  N   UNL     1      -0.041  -0.307  -2.593  0.00  0.00    -0.310 N 
ATOM     12  H   UNL     1      -0.493  -0.831  -1.913  0.00  0.00    +0.149 HD
BRANCH   9  20
ATOM     13  C   UNL     1       0.764  -6.876  -4.598  0.00  0.00    +0.001 A 
ATOM     14  C   UNL     1       0.034  -6.927  -3.417  0.00  0.00    +0.002 A 
ATOM     15  C   UNL     1      -0.301  -5.771  -2.749  0.00  0.00    +0.026 A 
ATOM     16  C   UNL     1       0.094  -4.537  -3.259  0.00  0.00    +0.047 A 
ATOM     17  C   UNL     1       0.834  -4.488  -4.457  0.00  0.00    +0.000 A 
ATOM     18  C   UNL     1       1.162  -5.679  -5.118  0.00  0.00    +0.010 A 
ATOM     19  C   UNL     1       1.086  -3.122  -4.731  0.00  0.00    +0.040 A 
ATOM     20  C   UNL     1       0.526  -2.390  -3.733  0.00  0.00    +0.103 A 
ATOM     21  N   UNL     1      -0.084  -3.242  -2.833  0.00  0.00    -0.351 N 
ATOM     22  H   UNL     1      -0.559  -2.972  -2.032  0.00  0.00    +0.166 HD
ENDBRANCH   9  20
ENDBRANCH   8  11
ENDBRANCH   1   8
BRANCH   6  23
ATOM     23  C   UNL     1      -1.734   5.000   0.044  0.00  0.00    -0.041 C 
BRANCH  23  24
ATOM     24  C   UNL     1      -2.225   5.428   1.403  0.00  0.00    -0.042 A 
ATOM     25  C   UNL     1      -1.367   6.073   2.276  0.00  0.00    +0.052 A 
ATOM     26  C   UNL     1      -1.817   6.467   3.525  0.00  0.00    +0.167 A 
ATOM     27  C   UNL     1      -3.134   6.212   3.901  0.00  0.00    +0.168 A 
ATOM     28  C   UNL     1      -3.988   5.566   3.023  0.00  0.00    +0.069 A 
ATOM     29  C   UNL     1      -3.534   5.180   1.774  0.00  0.00    +0.046 A 
ATOM     30 CL   UNL     1      -4.609   4.376   0.672  0.00  0.00    -0.083 Cl
ATOM     31  O   UNL     1      -3.328   6.693   5.163  0.00  0.00    -0.453 OA
ATOM     32  C   UNL     1      -2.239   7.605   5.399  0.00  0.00    +0.466 C 
ATOM     33  O   UNL     1      -1.186   7.107   4.553  0.00  0.00    -0.453 OA
ENDBRANCH  23  24
ENDBRANCH   6  23
TORSDOF 5
