REMARK  Name = ZINC10524516
REMARK  10 active torsions:
REMARK  status: ('A' for Active; 'I' for Inactive)
REMARK    1  A    between atoms: C_1  and  N_2
REMARK    2  A    between atoms: C_5  and  C_18
REMARK    3  A    between atoms: C_6  and  N_17
REMARK    4  A    between atoms: N_7  and  C_10
REMARK    5  A    between atoms: C_10  and  C_11
REMARK    6  A    between atoms: C_18  and  C_20
REMARK    7  A    between atoms: C_20  and  O_21
REMARK    8  A    between atoms: O_21  and  C_22
REMARK    9  A    between atoms: C_22  and  C_24
REMARK   10  A    between atoms: C_25  and  C_26
REMARK                            x       y       z     vdW  Elec       q    Type
REMARK                         _______ _______ _______ _____ _____    ______ ____
ROOT
ATOM      1  C   UNL     1       3.527   2.346  -0.056  0.00  0.00    +0.157 C 
ATOM      2  N   UNL     1       2.329   1.502  -0.030  0.00  0.00    -0.263 N 
ATOM      3  C   UNL     1       2.461   0.159  -0.040  0.00  0.00    +0.269 A 
ATOM      4  O   UNL     1       3.563  -0.357  -0.070  0.00  0.00    -0.267 OA
ATOM      5  C   UNL     1       1.247  -0.667  -0.014  0.00  0.00    +0.123 A 
ATOM      6  C   UNL     1       0.005  -0.009   0.020  0.00  0.00    +0.116 A 
ATOM      7  N   UNL     1      -0.019   1.357   0.027  0.00  0.00    -0.277 N 
ATOM      8  C   UNL     1       1.115   2.075   0.003  0.00  0.00    +0.333 A 
ATOM      9  O   UNL     1       1.040   3.288   0.010  0.00  0.00    -0.246 OA
ENDROOT
BRANCH   6  10
ATOM     10  N   UNL     1      -1.154  -0.721   0.045  0.00  0.00    -0.344 N 
ATOM     11  H   UNL     1      -1.974  -0.324  -0.288  0.00  0.00    +0.144 HD
ATOM     12  H   UNL     1      -1.161  -1.625   0.397  0.00  0.00    +0.144 HD
ENDBRANCH   6  10
BRANCH   5  13
ATOM     13  C   UNL     1       1.324  -2.076  -0.023  0.00  0.00    +0.209 C 
ATOM     14  O   UNL     1       0.310  -2.739  -0.109  0.00  0.00    -0.288 OA
BRANCH  13  15
ATOM     15  C   UNL     1       2.665  -2.757   0.074  0.00  0.00    +0.312 C 
BRANCH  15  16
ATOM     16  O   UNL     1       2.482  -4.175   0.045  0.00  0.00    -0.453 OA
BRANCH  16  17
ATOM     17  C   UNL     1       3.592  -4.937   0.123  0.00  0.00    +0.332 C 
ATOM     18  O   UNL     1       4.685  -4.412   0.213  0.00  0.00    -0.246 OA
BRANCH  17  19
ATOM     19  C   UNL     1       3.481  -6.395   0.099  0.00  0.00    +0.092 C 
ATOM     20  C   UNL     1       4.591  -7.157   0.177  0.00  0.00    +0.015 C 
BRANCH  20  21
ATOM     21  C   UNL     1       4.479  -8.624   0.152  0.00  0.00    -0.025 A 
ATOM     22  C   UNL     1       3.223  -9.232   0.054  0.00  0.00    +0.009 A 
ATOM     23  C   UNL     1       3.127 -10.607   0.026  0.00  0.00    +0.016 A 
ATOM     24  C   UNL     1       4.269 -11.386   0.106  0.00  0.00    +0.018 A 
ATOM     25  C   UNL     1       5.516 -10.792   0.210  0.00  0.00    +0.016 A 
ATOM     26  C   UNL     1       5.628  -9.418   0.233  0.00  0.00    +0.009 A 
ATOM     27 BR   UNL     1       4.125 -13.271   0.075  0.00  0.00    -0.050 Br
ENDBRANCH  20  21
ENDBRANCH  17  19
ENDBRANCH  16  17
ENDBRANCH  15  16
ENDBRANCH  13  15
ENDBRANCH   5  13
BRANCH   7  28
ATOM     28  C   UNL     1      -1.308   2.052   0.057  0.00  0.00    +0.163 C 
BRANCH  28  29
ATOM     29  C   UNL     1      -1.721   2.284   1.487  0.00  0.00    -0.028 A 
ATOM     30  C   UNL     1      -2.484   1.339   2.148  0.00  0.00    +0.005 A 
ATOM     31  C   UNL     1      -2.859   1.549   3.461  0.00  0.00    +0.000 A 
ATOM     32  C   UNL     1      -2.481   2.709   4.111  0.00  0.00    +0.000 A 
ATOM     33  C   UNL     1      -1.723   3.656   3.449  0.00  0.00    +0.000 A 
ATOM     34  C   UNL     1      -1.343   3.444   2.137  0.00  0.00    +0.005 A 
ENDBRANCH  28  29
ENDBRANCH   7  28
TORSDOF 9
