REMARK  Name = ZINC16610751
REMARK  9 active torsions:
REMARK  status: ('A' for Active; 'I' for Inactive)
REMARK    1  A    between atoms: C_1  and  C_2
REMARK    2  A    between atoms: C_2  and  O_3
REMARK    3  A    between atoms: O_3  and  C_4
REMARK    4  A    between atoms: C_4  and  C_6
REMARK    5  A    between atoms: C_7  and  C_35
REMARK    6  A    between atoms: N_8  and  C_34
REMARK    7  A    between atoms: C_12  and  C_14
REMARK    8  A    between atoms: C_18  and  N_20
REMARK    9  A    between atoms: N_23  and  C_24
REMARK                            x       y       z     vdW  Elec       q    Type
REMARK                         _______ _______ _______ _____ _____    ______ ____
ROOT
ATOM      1  C   UNL     1      -3.599  -4.757   0.294  0.00  0.00    -0.021 A 
ATOM      2  C   UNL     1      -4.782  -4.039   0.302  0.00  0.00    +0.006 A 
ATOM      3  C   UNL     1      -4.756  -2.660   0.210  0.00  0.00    +0.002 A 
ATOM      4  C   UNL     1      -3.550  -1.994   0.116  0.00  0.00    +0.023 A 
ATOM      5  C   UNL     1      -2.361  -2.712   0.103  0.00  0.00    +0.035 A 
ATOM      6  C   UNL     1      -2.390  -4.098   0.195  0.00  0.00    +0.029 A 
ENDROOT
BRANCH   1  13
ATOM      7  C   UNL     1      -3.644  -6.630   1.865  0.00  0.00    +0.078 C 
ATOM      8  C   UNL     1      -4.676  -7.375   2.317  0.00  0.00    +0.021 C 
ATOM      9  N   UNL     1      -5.674  -7.779   1.478  0.00  0.00    -0.289 N 
ATOM     10  C   UNL     1      -5.713  -7.481   0.173  0.00  0.00    +0.137 C 
ATOM     11  S   UNL     1      -7.024  -8.054  -0.768  0.00  0.00    -0.018 S 
ATOM     12  N   UNL     1      -4.754  -6.746  -0.424  0.00  0.00    -0.315 N 
ATOM     13  C   UNL     1      -3.631  -6.260   0.395  0.00  0.00    +0.141 C 
ATOM     14  C   UNL     1      -6.763  -8.584   2.036  0.00  0.00    +0.137 C 
ATOM     15  C   UNL     1      -4.728  -7.765   3.771  0.00  0.00    +0.061 C 
ATOM     16  H   UNL     1      -4.803  -6.542  -1.371  0.00  0.00    +0.149 HD
BRANCH   7  17
ATOM     17  C   UNL     1      -2.609  -6.211   2.733  0.00  0.00    +0.339 C 
ATOM     18  O   UNL     1      -2.640  -6.519   3.909  0.00  0.00    -0.245 OA
BRANCH  17  19
ATOM     19  O   UNL     1      -1.588  -5.468   2.256  0.00  0.00    -0.462 OA
BRANCH  19  21
ATOM     20  C   UNL     1       0.488  -4.250   2.471  0.00  0.00    +0.048 C 
ATOM     21  C   UNL     1      -0.578  -5.079   3.190  0.00  0.00    +0.229 C 
ENDBRANCH  19  21
ENDBRANCH  17  19
ENDBRANCH   7  17
ENDBRANCH   1  13
BRANCH   5  22
ATOM     22  N   UNL     1      -1.137  -2.041   0.002  0.00  0.00    -0.269 N 
ATOM     23  C   UNL     1      -1.050  -0.903  -0.714  0.00  0.00    +0.304 C 
ATOM     24  O   UNL     1      -2.008  -0.511  -1.352  0.00  0.00    -0.252 OA
ATOM     25  N   UNL     1       0.100  -0.200  -0.724  0.00  0.00    -0.294 N 
ATOM     26  H   UNL     1      -0.352  -2.396   0.448  0.00  0.00    +0.156 HD
ATOM     27  H   UNL     1       0.864  -0.513  -0.216  0.00  0.00    +0.151 HD
BRANCH  25  28
ATOM     28  C   UNL     1       0.195   1.038  -1.503  0.00  0.00    +0.037 C 
ATOM     29  C   UNL     1      -0.064   0.732  -2.979  0.00  0.00    +0.029 C 
ATOM     30  C   UNL     1       0.035   2.024  -3.793  0.00  0.00    -0.008 C 
ATOM     31  C   UNL     1       1.435   2.621  -3.633  0.00  0.00    +0.007 C 
ATOM     32  C   UNL     1       1.694   2.926  -2.156  0.00  0.00    -0.008 C 
ATOM     33  C   UNL     1       1.595   1.634  -1.343  0.00  0.00    +0.029 C 
ATOM     34  C   UNL     1       0.653   3.927  -1.653  0.00  0.00    +0.007 C 
ATOM     35  C   UNL     1      -0.747   3.331  -1.812  0.00  0.00    -0.008 C 
ATOM     36  C   UNL     1      -1.006   3.025  -3.289  0.00  0.00    +0.007 C 
ATOM     37  C   UNL     1      -0.847   2.039  -0.999  0.00  0.00    +0.029 C 
ENDBRANCH  25  28
ENDBRANCH   5  22
TORSDOF 6
