REMARK  Name = ZINC39224394
REMARK  4 active torsions:
REMARK  status: ('A' for Active; 'I' for Inactive)
REMARK    1  A    between atoms: C_1  and  O_2
REMARK    2  A    between atoms: O_2  and  C_3
REMARK    3  A    between atoms: C_3  and  C_5
REMARK    4  A    between atoms: C_7  and  N_15
REMARK                            x       y       z     vdW  Elec       q    Type
REMARK                         _______ _______ _______ _____ _____    ______ ____
ROOT
ATOM      1  C   UNL     1      -1.259  -2.106   0.017  0.00  0.00    +0.237 C 
ATOM      2  C   UNL     1      -1.028  -2.672   1.400  0.00  0.00    +0.065 C 
ATOM      3  C   UNL     1      -2.166  -3.394   1.704  0.00  0.00    +0.020 A 
ATOM      4  C   UNL     1      -2.545  -4.146   2.844  0.00  0.00    +0.012 A 
ATOM      5  C   UNL     1      -3.751  -4.764   2.870  0.00  0.00    +0.001 A 
ATOM      6  C   UNL     1      -4.641  -4.682   1.794  0.00  0.00    +0.002 A 
ATOM      7  C   UNL     1      -4.346  -3.981   0.673  0.00  0.00    +0.026 A 
ATOM      8  C   UNL     1      -3.103  -3.304   0.570  0.00  0.00    +0.045 A 
ATOM      9  N   UNL     1      -2.587  -2.570  -0.396  0.00  0.00    -0.367 N 
ATOM     10  H   UNL     1      -3.016  -2.369  -1.242  0.00  0.00    +0.161 HD
ENDROOT
BRANCH   2  11
ATOM     11  N   UNL     1       0.080  -2.505   2.188  0.00  0.00    -0.324 N 
ATOM     12  C   UNL     1       0.210  -2.927   3.485  0.00  0.00    +0.091 A 
ATOM     13  C   UNL     1       1.437  -2.580   3.918  0.00  0.00    +0.019 A 
ATOM     14  C   UNL     1       2.093  -1.920   2.855  0.00  0.00    +0.019 A 
ATOM     15  C   UNL     1       1.245  -1.892   1.809  0.00  0.00    +0.091 A 
ENDBRANCH   2  11
BRANCH   1  16
ATOM     16  C   UNL     1      -1.226  -0.600   0.061  0.00  0.00    +0.336 C 
ATOM     17  O   UNL     1      -2.259   0.026   0.093  0.00  0.00    -0.248 OA
BRANCH  16  19
ATOM     18  C   UNL     1      -0.093   1.474   0.106  0.00  0.00    +0.280 C 
ATOM     19  O   UNL     1      -0.049   0.046   0.064  0.00  0.00    -0.466 OA
ENDBRANCH  16  19
ENDBRANCH   1  16
TORSDOF 3
