REMARK  Name = ZINC38592054
REMARK  6 active torsions:
REMARK  status: ('A' for Active; 'I' for Inactive)
REMARK    1  A    between atoms: C_1  and  C_2
REMARK    2  A    between atoms: C_3  and  C_17
REMARK    3  A    between atoms: C_5  and  C_6
REMARK    4  A    between atoms: C_8  and  C_14
REMARK    5  A    between atoms: C_9  and  C_13
REMARK    6  A    between atoms: C_10  and  C_12
REMARK                            x       y       z     vdW  Elec       q    Type
REMARK                         _______ _______ _______ _____ _____    ______ ____
ROOT
ATOM      1  C   UNL     1      -0.018   1.503   0.010  0.00  0.00    +0.045 C 
ATOM      2  C   UNL     1       0.002  -0.004   0.002  0.00  0.00    -0.027 C 
ATOM      3  C   UNL     1      -1.083  -0.819   0.003  0.00  0.00    -0.021 C 
ATOM      4  C   UNL     1      -0.548  -2.190  -0.007  0.00  0.00    +0.065 C 
ATOM      5  C   UNL     1      -1.268  -3.341  -0.011  0.00  0.00    +0.032 C 
ATOM      6  N   UNL     1       0.811  -2.079  -0.013  0.00  0.00    -0.255 NA
ATOM      7  C   UNL     1       1.148  -0.817  -0.014  0.00  0.00    +0.115 C 
ATOM      8  C   UNL     1      -2.533  -0.407   0.011  0.00  0.00    +0.046 C 
ENDROOT
BRANCH   5   9
ATOM      9  C   UNL     1      -0.560  -4.672  -0.021  0.00  0.00    +0.156 C 
ATOM     10  C   UNL     1      -1.006  -5.511   1.156  0.00  0.00    -0.040 C 
ATOM     11  C   UNL     1       0.089  -5.737   1.879  0.00  0.00    -0.029 C 
ATOM     12  C   UNL     1       1.237  -5.091   1.242  0.00  0.00    +0.037 C 
ATOM     13  N   UNL     1       0.885  -4.481   0.157  0.00  0.00    -0.276 NA
ATOM     14  C   UNL     1       2.645  -5.132   1.777  0.00  0.00    +0.065 C 
ATOM     15  C   UNL     1       0.139  -6.535   3.157  0.00  0.00    +0.045 C 
ATOM     16  C   UNL     1      -2.403  -5.992   1.451  0.00  0.00    +0.042 C 
ENDBRANCH   5   9
TORSDOF 1
