REMARK  Name = ZINC19531691
REMARK  9 active torsions:
REMARK  status: ('A' for Active; 'I' for Inactive)
REMARK    1  A    between atoms: C_1  and  C_2
REMARK    2  A    between atoms: C_2  and  O_3
REMARK    3  A    between atoms: O_3  and  C_4
REMARK    4  A    between atoms: C_5  and  C_13
REMARK    5  A    between atoms: C_8  and  O_10
REMARK    6  A    between atoms: O_10  and  C_11
REMARK    7  A    between atoms: C_11  and  C_12
REMARK    8  A    between atoms: C_13  and  O_30
REMARK    9  A    between atoms: C_19  and  C_21
REMARK                            x       y       z     vdW  Elec       q    Type
REMARK                         _______ _______ _______ _____ _____    ______ ____
ROOT
ATOM      1  C   UNL     1      -0.147   1.849  -1.389  0.00  0.00    +0.100 C 
ATOM      2  C   UNL     1       0.606   1.386  -0.140  0.00  0.00    +0.059 C 
ATOM      3  C   UNL     1      -0.260   1.642   1.098  0.00  0.00    +0.111 C 
ATOM      4  N   UNL     1      -0.650   3.058   1.117  0.00  0.00    -0.296 N 
ATOM      5  C   UNL     1      -1.300   3.630  -0.070  0.00  0.00    +0.111 C 
ATOM      6  C   UNL     1      -0.421   3.352  -1.294  0.00  0.00    +0.059 C 
ATOM      7  C   UNL     1      -0.416   3.820   2.205  0.00  0.00    +0.269 C 
ATOM      8  O   UNL     1      -0.629   5.015   2.167  0.00  0.00    -0.268 OA
ENDROOT
BRANCH   7   9
ATOM      9  C   UNL     1       0.103   3.198   3.447  0.00  0.00    +0.171 A 
ATOM     10  C   UNL     1       0.513   3.859   4.623  0.00  0.00    +0.027 A 
ATOM     11  C   UNL     1       0.897   2.864   5.457  0.00  0.00    +0.141 A 
ATOM     12  O   UNL     1       0.721   1.722   4.795  0.00  0.00    -0.359 OA
ATOM     13  N   UNL     1       0.280   1.916   3.680  0.00  0.00    -0.073 NA
ATOM     14  C   UNL     1       1.421   3.095   6.850  0.00  0.00    +0.077 C 
ATOM     15  C   UNL     1       1.830   4.570   6.972  0.00  0.00    +0.008 C 
ATOM     16  C   UNL     1       0.687   5.462   6.481  0.00  0.00    +0.005 C 
ATOM     17  C   UNL     1       0.544   5.321   4.958  0.00  0.00    +0.041 C 
ENDBRANCH   7   9
BRANCH   1  19
ATOM     18  C   UNL     1       1.951   2.140  -2.759  0.00  0.00    +0.227 A 
ATOM     19  C   UNL     1       0.689   1.568  -2.612  0.00  0.00    +0.064 A 
ATOM     20  C   UNL     1       0.223   0.732  -3.609  0.00  0.00    +0.128 A 
ATOM     21  N   UNL     1       0.981   0.509  -4.673  0.00  0.00    -0.203 NA
ATOM     22  C   UNL     1       2.175   1.067  -4.785  0.00  0.00    +0.321 A 
ATOM     23  N   UNL     1       2.659   1.868  -3.850  0.00  0.00    -0.159 NA
BRANCH  18  24
ATOM     24  O   UNL     1       2.450   2.961  -1.804  0.00  0.00    -0.476 OA
BRANCH  24  26
ATOM     25  C   UNL     1       4.142   4.402  -0.853  0.00  0.00    +0.048 C 
ATOM     26  C   UNL     1       3.751   3.506  -2.031  0.00  0.00    +0.227 C 
ENDBRANCH  24  26
ENDBRANCH  18  24
BRANCH  22  27
ATOM     27  O   UNL     1       2.923   0.810  -5.885  0.00  0.00    -0.463 OA
BRANCH  27  28
ATOM     28  C   UNL     1       2.356  -0.061  -6.865  0.00  0.00    +0.229 C 
ATOM     29  C   UNL     1       3.339  -0.231  -8.026  0.00  0.00    +0.048 C 
ENDBRANCH  27  28
ENDBRANCH  22  27
ENDBRANCH   1  19
BRANCH   1  30
ATOM     30  O   UNL     1      -1.386   1.144  -1.488  0.00  0.00    -0.384 OA
ATOM     31  H   UNL     1      -2.131   1.227  -0.683  0.00  0.00    +0.211 HD
ENDBRANCH   1  30
TORSDOF 7
