REMARK  Name = ZINC04647446
REMARK  11 active torsions:
REMARK  status: ('A' for Active; 'I' for Inactive)
REMARK    1  A    between atoms: C_1  and  C_2
REMARK    2  A    between atoms: C_2  and  C_3
REMARK    3  A    between atoms: C_2  and  C_4
REMARK    4  A    between atoms: C_4  and  C_6
REMARK    5  A    between atoms: C_4  and  N_27
REMARK    6  A    between atoms: N_8  and  N_9
REMARK    7  A    between atoms: C_10  and  C_12
REMARK    8  A    between atoms: C_15  and  N_18
REMARK    9  A    between atoms: N_18  and  S_19
REMARK   10  A    between atoms: S_19  and  C_22
REMARK   11  A    between atoms: C_28  and  C_30
REMARK                            x       y       z     vdW  Elec       q    Type
REMARK                         _______ _______ _______ _____ _____    ______ ____
ROOT
ATOM      1  N   UNL     1       8.585   2.399  -1.488  0.00  0.00    -0.230 N 
ATOM      2  C   UNL     1       9.833   1.893  -1.542  0.00  0.00    +0.260 C 
ATOM      3  O   UNL     1      10.092   0.853  -0.967  0.00  0.00    -0.269 OA
ATOM      4  H   UNL     1       8.378   3.229  -1.947  0.00  0.00    +0.173 HD
ENDROOT
BRANCH   2   5
ATOM      5  C   UNL     1      10.884   2.599  -2.298  0.00  0.00    +0.038 A 
ATOM      6  C   UNL     1      10.586   3.792  -2.965  0.00  0.00    +0.015 A 
ATOM      7  C   UNL     1      11.569   4.451  -3.665  0.00  0.00    +0.025 A 
ATOM      8  C   UNL     1      12.858   3.927  -3.720  0.00  0.00    +0.048 A 
ATOM      9  C   UNL     1      13.156   2.737  -3.062  0.00  0.00    +0.025 A 
ATOM     10  C   UNL     1      12.178   2.075  -2.355  0.00  0.00    +0.015 A 
BRANCH   8  11
ATOM     11  N   UNL     1      13.848   4.593  -4.433  0.00  0.00    -0.216 N 
ATOM     12  H   UNL     1      14.255   5.393  -4.066  0.00  0.00    +0.174 HD
BRANCH  11  13
ATOM     13  S   UNL     1      14.334   4.020  -5.909  0.00  0.00    +0.079 S 
ATOM     14  O   UNL     1      15.322   4.921  -6.390  0.00  0.00    -0.149 OA
ATOM     15  O   UNL     1      14.586   2.631  -5.743  0.00  0.00    -0.149 OA
BRANCH  13  16
ATOM     16  C   UNL     1      12.956   4.154  -6.999  0.00  0.00    +0.146 A 
ATOM     17  C   UNL     1      12.551   5.218  -7.735  0.00  0.00    +0.036 A 
ATOM     18  C   UNL     1      11.427   5.094  -8.530  0.00  0.00    +0.010 A 
ATOM     19  C   UNL     1      10.763   3.913  -8.550  0.00  0.00    +0.047 A 
ATOM     20  S   UNL     1      11.736   2.924  -7.426  0.00  0.00    -0.077 S 
ENDBRANCH  13  16
ENDBRANCH  11  13
ENDBRANCH   8  11
ENDBRANCH   2   5
BRANCH   1  23
ATOM     21  C   UNL     1       6.339   2.235  -0.716  0.00  0.00    +0.250 C 
ATOM     22  O   UNL     1       6.057   3.221  -1.362  0.00  0.00    -0.272 OA
ATOM     23  N   UNL     1       7.587   1.728  -0.770  0.00  0.00    -0.233 N 
ATOM     24  H   UNL     1       7.794   0.899  -0.311  0.00  0.00    +0.173 HD
BRANCH  21  25
ATOM     25  C   UNL     1       5.295   1.575   0.147  0.00  0.00    +0.163 C 
BRANCH  25  26
ATOM     26  N   UNL     1       3.965   1.842  -0.405  0.00  0.00    -0.300 N 
ATOM     27  C   UNL     1       2.946   0.997  -0.149  0.00  0.00    +0.245 C 
ATOM     28  O   UNL     1       3.132   0.013   0.540  0.00  0.00    -0.270 OA
ATOM     29  H   UNL     1       3.817   2.628  -0.955  0.00  0.00    +0.150 HD
BRANCH  27  30
ATOM     30  C   UNL     1       1.604   1.267  -0.707  0.00  0.00    +0.037 A 
ATOM     31  C   UNL     1       0.547   0.394  -0.444  0.00  0.00    +0.013 A 
ATOM     32  C   UNL     1      -0.703   0.651  -0.968  0.00  0.00    +0.001 A 
ATOM     33  C   UNL     1      -0.910   1.771  -1.753  0.00  0.00    +0.000 A 
ATOM     34  C   UNL     1       0.133   2.641  -2.017  0.00  0.00    +0.001 A 
ATOM     35  C   UNL     1       1.388   2.396  -1.499  0.00  0.00    +0.013 A 
ENDBRANCH  27  30
ENDBRANCH  25  26
BRANCH  25  37
ATOM     36  C   UNL     1       4.318   1.468   2.445  0.00  0.00    +0.009 C 
ATOM     37  C   UNL     1       5.379   2.136   1.568  0.00  0.00    +0.012 C 
ATOM     38  C   UNL     1       6.768   1.856   2.146  0.00  0.00    +0.009 C 
ENDBRANCH  25  37
ENDBRANCH  21  25
ENDBRANCH   1  23
TORSDOF 9
