REMARK  Name = ZINC00896569
REMARK  2 active torsions:
REMARK  status: ('A' for Active; 'I' for Inactive)
REMARK    1  A    between atoms: C_5  and  S_8
REMARK    2  A    between atoms: S_8  and  N_11
REMARK                            x       y       z     vdW  Elec       q    Type
REMARK                         _______ _______ _______ _____ _____    ______ ____
ROOT
ATOM      1  C   UNL     1      -0.017   1.376   0.010  0.00  0.00    +0.047 A 
ATOM      2  C   UNL     1       1.178   2.094   0.002  0.00  0.00    +0.056 A 
ATOM      3  C   UNL     1       2.381   1.400  -0.004  0.00  0.00    +0.128 A 
ATOM      4  C   UNL     1       2.396   0.021  -0.021  0.00  0.00    +0.060 A 
ATOM      5  C   UNL     1       1.207  -0.685  -0.018  0.00  0.00    +0.125 A 
ATOM      6  C   UNL     1       0.002  -0.004   0.002  0.00  0.00    +0.069 A 
ATOM      7 CL   UNL     1      -1.491  -0.889   0.017  0.00  0.00    -0.081 Cl
ATOM      8  S   UNL     1       3.904   2.296   0.030  0.00  0.00    +0.062 S 
ATOM      9  O   UNL     1       4.400   2.222   1.360  0.00  0.00    -0.153 OA
ATOM     10  O   UNL     1       4.659   1.875  -1.097  0.00  0.00    -0.153 OA
ATOM     11  N   UNL     1       3.468   3.884  -0.238  0.00  0.00    -0.173 NA
ATOM     12  C   UNL     1       2.229   4.335   0.427  0.00  0.00    +0.209 C 
ATOM     13  N   UNL     1       1.125   3.485  -0.012  0.00  0.00    -0.328 N 
ATOM     14  H   UNL     1       3.996   4.475  -0.798  0.00  0.00    +0.150 HD
ATOM     15  H   UNL     1       0.315   3.911  -0.331  0.00  0.00    +0.147 HD
ENDROOT
BRANCH   5  16
ATOM     16  S   UNL     1       1.226  -2.447  -0.037  0.00  0.00    +0.057 S 
ATOM     17  O   UNL     1       0.324  -2.851  -1.059  0.00  0.00    -0.153 OA
ATOM     18  O   UNL     1       2.591  -2.839  -0.028  0.00  0.00    -0.153 OA
BRANCH  16  19
ATOM     19  N   UNL     1       0.577  -2.960   1.397  0.00  0.00    -0.203 NA
ATOM     20  H   UNL     1       0.100  -3.804   1.440  0.00  0.00    +0.144 HD
ATOM     21  H   UNL     1       0.672  -2.416   2.195  0.00  0.00    +0.144 HD
ENDBRANCH  16  19
ENDBRANCH   5  16
TORSDOF 2
