REMARK  Name = ZINC01620237
REMARK  7 active torsions:
REMARK  status: ('A' for Active; 'I' for Inactive)
REMARK    1  A    between atoms: C_4  and  C_7
REMARK    2  A    between atoms: C_7  and  N_8
REMARK    3  A    between atoms: N_33  and  C_34
REMARK    4  A    between atoms: C_34  and  O_35
REMARK    5  A    between atoms: O_35  and  C_36
REMARK    6  A    between atoms: C_36  and  C_37
REMARK    7  A    between atoms: C_37  and  O_38
REMARK                            x       y       z     vdW  Elec       q    Type
REMARK                         _______ _______ _______ _____ _____    ______ ____
ROOT
ATOM      1  N   UNL     1       5.823   3.582  -0.037  0.00  0.00    -0.230 N 
ATOM      2  C   UNL     1       4.588   3.050  -0.028  0.00  0.00    +0.255 C 
ATOM      3  O   UNL     1       4.327   1.863  -0.032  0.00  0.00    -0.269 OA
ATOM      4  C   UNL     1       3.603   4.146  -0.012  0.00  0.00    +0.060 A 
ATOM      5  C   UNL     1       2.204   4.202   0.004  0.00  0.00    +0.022 A 
ATOM      6  C   UNL     1       1.151   3.172   0.008  0.00  0.00    +0.008 A 
ATOM      7  C   UNL     1       1.173   1.778   0.000  0.00  0.00    +0.010 A 
ATOM      8  C   UNL     1      -0.013   1.076   0.008  0.00  0.00    +0.001 A 
ATOM      9  C   UNL     1      -1.224   1.750   0.017  0.00  0.00    +0.002 A 
ATOM     10  C   UNL     1      -1.261   3.128   0.031  0.00  0.00    +0.026 A 
ATOM     11  C   UNL     1      -0.075   3.856   0.024  0.00  0.00    +0.048 A 
ATOM     12  N   UNL     1       0.184   5.214   0.028  0.00  0.00    -0.352 N 
ATOM     13  H   UNL     1      -0.494   5.907   0.038  0.00  0.00    +0.166 HD
ATOM     14  C   UNL     1       1.546   5.442   0.017  0.00  0.00    +0.073 A 
ATOM     15  C   UNL     1       2.292   6.628   0.015  0.00  0.00    +0.077 A 
ATOM     16  C   UNL     1       3.695   6.574   0.001  0.00  0.00    +0.023 A 
ATOM     17  C   UNL     1       4.352   5.337  -0.012  0.00  0.00    +0.060 A 
ATOM     18  C   UNL     1       5.767   4.926  -0.029  0.00  0.00    +0.255 C 
ATOM     19  O   UNL     1       6.723   5.676  -0.034  0.00  0.00    -0.269 OA
ATOM     20  C   UNL     1       4.165   7.969   0.004  0.00  0.00    +0.008 A 
ATOM     21  C   UNL     1       5.431   8.554  -0.005  0.00  0.00    +0.010 A 
ATOM     22  C   UNL     1       5.550   9.927   0.002  0.00  0.00    +0.001 A 
ATOM     23  C   UNL     1       4.417  10.726   0.017  0.00  0.00    +0.002 A 
ATOM     24  C   UNL     1       3.160  10.161   0.025  0.00  0.00    +0.026 A 
ATOM     25  C   UNL     1       3.018   8.777   0.019  0.00  0.00    +0.052 A 
ATOM     26  N   UNL     1       1.907   7.955   0.026  0.00  0.00    -0.314 N 
ENDROOT
BRANCH   1  27
ATOM     27  C   UNL     1       7.063   2.803  -0.054  0.00  0.00    +0.152 C 
BRANCH  27  31
ATOM     28  C   UNL     1       8.228   2.067  -4.097  0.00  0.00    +0.000 A 
ATOM     29  C   UNL     1       8.677   3.200  -3.444  0.00  0.00    +0.000 A 
ATOM     30  C   UNL     1       8.299   3.438  -2.135  0.00  0.00    +0.005 A 
ATOM     31  C   UNL     1       7.474   2.543  -1.480  0.00  0.00    -0.030 A 
ATOM     32  C   UNL     1       7.030   1.408  -2.132  0.00  0.00    +0.005 A 
ATOM     33  C   UNL     1       7.403   1.173  -3.442  0.00  0.00    +0.000 A 
ENDBRANCH  27  31
ENDBRANCH   1  27
BRANCH  26  34
ATOM     34  C   UNL     1       0.519   8.424   0.042  0.00  0.00    +0.285 C 
BRANCH  34  35
ATOM     35  O   UNL     1       0.080   8.569   1.394  0.00  0.00    -0.357 OA
BRANCH  35  36
ATOM     36  C   UNL     1      -1.268   9.024   1.522  0.00  0.00    +0.190 C 
BRANCH  36  37
ATOM     37  C   UNL     1      -1.628   9.143   3.004  0.00  0.00    +0.184 C 
BRANCH  37  38
ATOM     38  O   UNL     1      -0.827  10.160   3.609  0.00  0.00    -0.393 OA
ATOM     39  H   UNL     1      -1.002  10.290   4.551  0.00  0.00    +0.209 HD
ENDBRANCH  37  38
ENDBRANCH  36  37
ENDBRANCH  35  36
ENDBRANCH  34  35
ENDBRANCH  26  34
TORSDOF 7
