REMARK  Name = ZINC64539152
REMARK  8 active torsions:
REMARK  status: ('A' for Active; 'I' for Inactive)
REMARK    1  A    between atoms: C_1  and  C_2
REMARK    2  A    between atoms: C_4  and  S_16
REMARK    3  A    between atoms: C_5  and  C_15
REMARK    4  A    between atoms: N_7  and  C_8
REMARK    5  A    between atoms: C_8  and  C_9
REMARK    6  A    between atoms: S_16  and  N_19
REMARK    7  A    between atoms: C_25  and  C_27
REMARK    8  A    between atoms: C_27  and  C_28
REMARK                            x       y       z     vdW  Elec       q    Type
REMARK                         _______ _______ _______ _____ _____    ______ ____
ROOT
ATOM      1  N   UNL     1      -2.327  -1.238  -2.444  0.00  0.00    -0.174 NA
ATOM      2  C   UNL     1      -1.499  -0.714  -3.539  0.00  0.00    +0.128 C 
ATOM      3  C   UNL     1      -0.311  -1.661  -3.751  0.00  0.00    +0.125 C 
ATOM      4  N   UNL     1      -0.818  -3.037  -3.842  0.00  0.00    -0.299 N 
ATOM      5  C   UNL     1      -1.647  -3.561  -2.747  0.00  0.00    +0.125 C 
ATOM      6  C   UNL     1      -2.830  -2.616  -2.533  0.00  0.00    +0.128 C 
ATOM      7  C   UNL     1      -0.529  -3.805  -4.912  0.00  0.00    +0.220 C 
ATOM      8  O   UNL     1       0.156  -3.362  -5.809  0.00  0.00    -0.275 OA
ENDROOT
BRANCH   1   9
ATOM      9  S   UNL     1      -2.683  -0.294  -1.130  0.00  0.00    +0.060 S 
ATOM     10  O   UNL     1      -3.877  -0.818  -0.565  0.00  0.00    -0.153 OA
ATOM     11  O   UNL     1      -2.571   1.056  -1.558  0.00  0.00    -0.153 OA
BRANCH   9  14
ATOM     12  C   UNL     1      -0.019   1.526   0.010  0.00  0.00    +0.032 C 
ATOM     13  C   UNL     1       0.002  -0.004   0.002  0.00  0.00    +0.124 C 
ATOM     14  C   UNL     1      -1.407  -0.553   0.057  0.00  0.00    +0.119 C 
ATOM     15  C   UNL     1      -1.497  -1.261   1.165  0.00  0.00    +0.040 C 
ATOM     16  N   UNL     1      -0.311  -1.258   1.871  0.00  0.00    -0.280 N 
ATOM     17  N   UNL     1       0.644  -0.519   1.228  0.00  0.00    -0.217 NA
ATOM     18  C   UNL     1      -2.743  -1.985   1.607  0.00  0.00    +0.063 C 
ATOM     19  H   UNL     1      -0.172  -1.720   2.713  0.00  0.00    +0.166 HD
BRANCH  17  20
ATOM     20  C   UNL     1       1.818  -1.339   0.903  0.00  0.00    +0.141 C 
BRANCH  20  21
ATOM     21  C   UNL     1       2.517  -1.744   2.175  0.00  0.00    -0.032 A 
ATOM     22  C   UNL     1       3.508  -0.939   2.706  0.00  0.00    +0.005 A 
ATOM     23  C   UNL     1       4.148  -1.311   3.873  0.00  0.00    +0.000 A 
ATOM     24  C   UNL     1       3.797  -2.486   4.510  0.00  0.00    +0.000 A 
ATOM     25  C   UNL     1       2.806  -3.290   3.980  0.00  0.00    +0.000 A 
ATOM     26  C   UNL     1       2.162  -2.917   2.815  0.00  0.00    +0.005 A 
ENDBRANCH  20  21
ENDBRANCH  17  20
ENDBRANCH   9  14
ENDBRANCH   1   9
BRANCH   7  27
ATOM     27  C   UNL     1      -1.056  -5.215  -4.992  0.00  0.00    +0.129 C 
BRANCH  27  28
ATOM     28  C   UNL     1      -0.592  -5.852  -6.276  0.00  0.00    -0.033 C 
ATOM     29  C   UNL     1       0.494  -6.639  -6.448  0.00  0.00    -0.001 A 
ATOM     30  C   UNL     1       1.531  -7.117  -5.525  0.00  0.00    +0.010 A 
ATOM     31  C   UNL     1       2.517  -7.911  -6.002  0.00  0.00    +0.001 A 
ATOM     32  C   UNL     1       2.574  -8.286  -7.351  0.00  0.00    +0.002 A 
ATOM     33  C   UNL     1       1.659  -7.886  -8.258  0.00  0.00    +0.026 A 
ATOM     34  C   UNL     1       0.577  -7.050  -7.867  0.00  0.00    +0.043 A 
ATOM     35  N   UNL     1      -0.420  -6.537  -8.547  0.00  0.00    -0.380 N 
ATOM     36  C   UNL     1      -1.252  -5.747  -7.633  0.00  0.00    +0.145 C 
ATOM     37  H   UNL     1      -0.583  -6.662  -9.495  0.00  0.00    +0.160 HD
ENDBRANCH  27  28
ENDBRANCH   7  27
TORSDOF 6
