REMARK  Name = ZINC09270456
REMARK  9 active torsions:
REMARK  status: ('A' for Active; 'I' for Inactive)
REMARK    1  A    between atoms: C_1  and  C_2
REMARK    2  A    between atoms: C_2  and  O_3
REMARK    3  A    between atoms: O_3  and  C_4
REMARK    4  A    between atoms: C_4  and  C_6
REMARK    5  A    between atoms: C_7  and  C_34
REMARK    6  A    between atoms: C_8  and  C_28
REMARK    7  A    between atoms: C_13  and  C_18
REMARK    8  A    between atoms: C_18  and  C_19
REMARK    9  A    between atoms: C_23  and  N_25
REMARK                            x       y       z     vdW  Elec       q    Type
REMARK                         _______ _______ _______ _____ _____    ______ ____
ROOT
ATOM      1  C   UNL     1       7.216   3.280  -3.346  0.00  0.00    +0.151 C 
ATOM      2  C   UNL     1       7.621   4.544  -3.120  0.00  0.00    -0.015 C 
ATOM      3  C   UNL     1       6.669   5.490  -2.430  0.00  0.00    +0.142 C 
ATOM      4  N   UNL     1       5.330   4.960  -2.041  0.00  0.00    -0.238 N 
ATOM      5  C   UNL     1       4.374   5.669  -1.422  0.00  0.00    +0.236 C 
ATOM      6  O   UNL     1       4.540   6.833  -1.127  0.00  0.00    -0.274 OA
ATOM      7  C   UNL     1       3.079   4.951  -1.108  0.00  0.00    +0.145 C 
ATOM      8  S   UNL     1       3.453   3.287  -1.784  0.00  0.00    -0.077 S 
ATOM      9  C   UNL     1       5.106   3.631  -2.362  0.00  0.00    +0.165 C 
ATOM     10  N   UNL     1       5.974   2.874  -2.958  0.00  0.00    -0.219 NA
ATOM     11  C   UNL     1       8.992   5.002  -3.546  0.00  0.00    +0.044 C 
ENDROOT
BRANCH   3  12
ATOM     12  C   UNL     1       7.345   5.997  -1.182  0.00  0.00    -0.022 A 
ATOM     13  C   UNL     1       7.228   5.294   0.002  0.00  0.00    +0.006 A 
ATOM     14  C   UNL     1       7.852   5.756   1.145  0.00  0.00    +0.000 A 
ATOM     15  C   UNL     1       8.585   6.928   1.107  0.00  0.00    +0.000 A 
ATOM     16  C   UNL     1       8.698   7.634  -0.076  0.00  0.00    +0.000 A 
ATOM     17  C   UNL     1       8.078   7.169  -1.221  0.00  0.00    +0.006 A 
ENDBRANCH   3  12
BRANCH   1  18
ATOM     18  C   UNL     1       8.123   2.328  -4.019  0.00  0.00    +0.358 C 
ATOM     19  O   UNL     1       8.841   1.603  -3.360  0.00  0.00    -0.243 OA
BRANCH  18  20
ATOM     20  O   UNL     1       8.153   2.263  -5.364  0.00  0.00    -0.460 OA
BRANCH  20  22
ATOM     21  C   UNL     1       8.962   1.374  -7.482  0.00  0.00    +0.048 C 
ATOM     22  C   UNL     1       9.068   1.304  -5.958  0.00  0.00    +0.229 C 
ENDBRANCH  20  22
ENDBRANCH  18  20
ENDBRANCH   1  18
BRANCH   7  23
ATOM     23  C   UNL     1       2.829   4.894   0.401  0.00  0.00    +0.059 C 
BRANCH  23  24
ATOM     24  C   UNL     1       1.518   4.198   0.666  0.00  0.00    -0.044 A 
ATOM     25  C   UNL     1       0.348   4.931   0.734  0.00  0.00    +0.004 A 
ATOM     26  C   UNL     1      -0.854   4.293   0.977  0.00  0.00    +0.002 A 
ATOM     27  C   UNL     1      -0.886   2.922   1.148  0.00  0.00    +0.033 A 
ATOM     28  C   UNL     1       0.284   2.190   1.086  0.00  0.00    +0.126 A 
ATOM     29  C   UNL     1       1.487   2.828   0.843  0.00  0.00    +0.036 A 
BRANCH  28  30
ATOM     30  N   UNL     1       0.251   0.722   1.275  0.00  0.00    +0.056 N 
ATOM     31  O   UNL     1       1.282   0.076   1.215  0.00  0.00    -0.126 OA
ATOM     32  O   UNL     1      -0.808   0.160   1.490  0.00  0.00    -0.126 OA
ENDBRANCH  28  30
ENDBRANCH  23  24
ENDBRANCH   7  23
TORSDOF 7
