REMARK  Name = ZINC12064312
REMARK  14 active torsions:
REMARK  status: ('A' for Active; 'I' for Inactive)
REMARK    1  A    between atoms: C_1  and  C_2
REMARK    2  A    between atoms: C_2  and  C_3
REMARK    3  A    between atoms: C_2  and  C_4
REMARK    4  A    between atoms: C_4  and  N_5
REMARK    5  A    between atoms: N_5  and  C_6
REMARK    6  A    between atoms: N_5  and  S_10
REMARK    7  A    between atoms: C_6  and  C_7
REMARK    8  A    between atoms: C_7  and  C_8
REMARK    9  A    between atoms: C_7  and  C_9
REMARK   10  A    between atoms: S_10  and  C_13
REMARK   11  A    between atoms: C_16  and  C_19
REMARK   12  A    between atoms: N_21  and  C_22
REMARK   13  A    between atoms: C_23  and  C_32
REMARK   14  A    between atoms: N_34  and  C_35
REMARK                            x       y       z     vdW  Elec       q    Type
REMARK                         _______ _______ _______ _____ _____    ______ ____
ROOT
ATOM      1  C   UNL     1       5.122  -3.781   3.266  0.00  0.00    +0.249 C 
ATOM      2  O   UNL     1       4.965  -2.928   2.414  0.00  0.00    -0.270 OA
ATOM      3  N   UNL     1       4.057  -4.277   3.927  0.00  0.00    -0.275 N 
ATOM      4  H   UNL     1       4.182  -4.958   4.607  0.00  0.00    +0.156 HD
ENDROOT
BRANCH   3   5
ATOM      5  C   UNL     1       2.784  -3.814   3.636  0.00  0.00    +0.085 A 
ATOM      6  C   UNL     1       1.578  -4.197   4.202  0.00  0.00    +0.069 A 
ATOM      7  C   UNL     1       0.366  -3.549   3.717  0.00  0.00    -0.023 A 
ATOM      8  C   UNL     1       0.560  -2.634   2.744  0.00  0.00    -0.004 A 
ATOM      9  S   UNL     1       2.312  -2.616   2.478  0.00  0.00    -0.077 S 
ATOM     10  C   UNL     1      -0.475  -1.824   2.029  0.00  0.00    +0.043 C 
ATOM     11  C   UNL     1      -1.417  -1.185   3.059  0.00  0.00    +0.005 C 
ATOM     12  C   UNL     1      -2.567  -2.151   3.326  0.00  0.00    +0.001 C 
ATOM     13  C   UNL     1      -2.079  -3.594   3.215  0.00  0.00    +0.005 C 
ATOM     14  C   UNL     1      -1.015  -3.878   4.270  0.00  0.00    +0.037 C 
BRANCH   6  15
ATOM     15  C   UNL     1       1.523  -5.218   5.252  0.00  0.00    +0.246 C 
ATOM     16  O   UNL     1       1.394  -6.391   4.954  0.00  0.00    -0.270 OA
ATOM     17  N   UNL     1       1.616  -4.859   6.548  0.00  0.00    -0.314 N 
ATOM     18  C   UNL     1       1.561  -5.880   7.597  0.00  0.00    +0.128 C 
ATOM     19  H   UNL     1       1.719  -3.924   6.785  0.00  0.00    +0.149 HD
ENDBRANCH   6  15
ENDBRANCH   3   5
BRANCH   1  23
ATOM     20  C   UNL     1       9.024  -5.201   4.157  0.00  0.00    +0.106 A 
ATOM     21  C   UNL     1       8.850  -4.229   3.188  0.00  0.00    +0.029 A 
ATOM     22  C   UNL     1       7.585  -3.764   2.893  0.00  0.00    +0.015 A 
ATOM     23  C   UNL     1       6.480  -4.275   3.576  0.00  0.00    +0.037 A 
ATOM     24  C   UNL     1       6.664  -5.251   4.558  0.00  0.00    +0.015 A 
ATOM     25  C   UNL     1       7.933  -5.712   4.838  0.00  0.00    +0.029 A 
BRANCH  20  26
ATOM     26  S   UNL     1      10.643  -5.790   4.527  0.00  0.00    +0.061 S 
ATOM     27  O   UNL     1      10.496  -7.135   4.962  0.00  0.00    -0.153 OA
ATOM     28  O   UNL     1      11.467  -5.431   3.426  0.00  0.00    -0.153 OA
BRANCH  26  29
ATOM     29  N   UNL     1      11.192  -4.928   5.830  0.00  0.00    -0.176 NA
BRANCH  29  30
ATOM     30  C   UNL     1      10.992  -5.444   7.186  0.00  0.00    +0.112 C 
BRANCH  30  32
ATOM     31  C   UNL     1      13.434  -5.320   7.699  0.00  0.00    +0.008 C 
ATOM     32  C   UNL     1      12.221  -6.248   7.613  0.00  0.00    -0.001 C 
ATOM     33  C   UNL     1      11.966  -6.882   8.982  0.00  0.00    +0.008 C 
ENDBRANCH  30  32
ENDBRANCH  29  30
BRANCH  29  34
ATOM     34  C   UNL     1      11.879  -3.650   5.626  0.00  0.00    +0.112 C 
BRANCH  34  35
ATOM     35  C   UNL     1      11.061  -2.525   6.263  0.00  0.00    -0.001 C 
ATOM     36  C   UNL     1      11.838  -1.210   6.164  0.00  0.00    +0.008 C 
ATOM     37  C   UNL     1       9.727  -2.384   5.527  0.00  0.00    +0.008 C 
ENDBRANCH  34  35
ENDBRANCH  29  34
ENDBRANCH  26  29
ENDBRANCH  20  26
ENDBRANCH   1  23
TORSDOF 9
