REMARK  Name = ZINC40547822
REMARK  5 active torsions:
REMARK  status: ('A' for Active; 'I' for Inactive)
REMARK    1  A    between atoms: C_1  and  C_2
REMARK    2  A    between atoms: C_5  and  O_35
REMARK    3  A    between atoms: C_6  and  C_8
REMARK    4  A    between atoms: N_16  and  C_27
REMARK    5  A    between atoms: C_17  and  C_19
REMARK                            x       y       z     vdW  Elec       q    Type
REMARK                         _______ _______ _______ _____ _____    ______ ____
ROOT
ATOM      1  C   UNL     1       0.054  -2.841   2.465  0.00  0.00    +0.102 A 
ATOM      2  C   UNL     1       0.175  -4.226   2.612  0.00  0.00    +0.035 A 
ATOM      3  C   UNL     1       0.140  -4.465   3.973  0.00  0.00    +0.126 A 
ATOM      4  N   UNL     1       0.003  -3.243   4.568  0.00  0.00    -0.272 N 
ATOM      5  H   UNL     1      -0.051  -3.093   5.525  0.00  0.00    +0.189 HD
ATOM      6  N   UNL     1      -0.039  -2.322   3.673  0.00  0.00    -0.173 NA
ATOM      7  C   UNL     1       0.263  -5.909   4.197  0.00  0.00    +0.266 C 
ATOM      8  O   UNL     1       0.266  -6.445   5.289  0.00  0.00    -0.268 OA
ATOM      9  N   UNL     1       0.372  -6.558   3.023  0.00  0.00    -0.280 N 
ATOM     10  C   UNL     1       0.327  -5.565   1.942  0.00  0.00    +0.142 C 
ENDROOT
BRANCH  10  11
ATOM     11  C   UNL     1      -0.853  -5.831   1.043  0.00  0.00    -0.021 A 
ATOM     12  C   UNL     1      -2.081  -6.150   1.591  0.00  0.00    +0.007 A 
ATOM     13  C   UNL     1      -3.164  -6.395   0.768  0.00  0.00    +0.022 A 
ATOM     14  C   UNL     1      -3.019  -6.321  -0.606  0.00  0.00    +0.059 A 
ATOM     15  C   UNL     1      -1.789  -6.000  -1.155  0.00  0.00    +0.060 A 
ATOM     16  C   UNL     1      -0.708  -5.750  -0.329  0.00  0.00    +0.027 A 
ATOM     17 CL   UNL     1      -1.605  -5.907  -2.879  0.00  0.00    -0.082 Cl
ATOM     18 CL   UNL     1      -4.378  -6.629  -1.641  0.00  0.00    -0.082 Cl
ENDBRANCH  10  11
BRANCH   1  24
ATOM     19  C   UNL     1       1.986  -1.980  -2.058  0.00  0.00    +0.044 C 
ATOM     20  C   UNL     1       0.966  -1.673  -0.992  0.00  0.00    -0.050 A 
ATOM     21  C   UNL     1       0.015  -0.692  -1.209  0.00  0.00    +0.007 A 
ATOM     22  C   UNL     1      -0.925  -0.404  -0.238  0.00  0.00    +0.046 A 
ATOM     23  C   UNL     1      -0.919  -1.099   0.961  0.00  0.00    +0.126 A 
ATOM     24  C   UNL     1       0.040  -2.091   1.183  0.00  0.00    +0.044 A 
ATOM     25  C   UNL     1       0.979  -2.377   0.196  0.00  0.00    +0.017 A 
BRANCH  23  26
ATOM     26  O   UNL     1      -1.842  -0.817   1.917  0.00  0.00    -0.506 OA
ATOM     27  H   UNL     1      -2.682  -1.282   1.803  0.00  0.00    +0.292 HD
ENDBRANCH  23  26
ENDBRANCH   1  24
BRANCH   9  28
ATOM     28  C   UNL     1       0.512  -8.006   2.852  0.00  0.00    +0.100 C 
ATOM     29  C   UNL     1       1.781  -8.485   3.576  0.00  0.00    +0.047 C 
ATOM     30  C   UNL     1       1.740 -10.038   3.650  0.00  0.00    +0.168 C 
ATOM     31  S   UNL     1      -0.040 -10.310   4.042  0.00  0.00    -0.029 S 
ATOM     32  O   UNL     1      -0.536 -11.365   3.229  0.00  0.00    -0.174 OA
ATOM     33  O   UNL     1      -0.196 -10.382   5.452  0.00  0.00    -0.174 OA
ATOM     34  C   UNL     1      -0.730  -8.716   3.443  0.00  0.00    +0.188 C 
ENDBRANCH   9  28
TORSDOF 4
