REMARK  Name = ZINC09246106
REMARK  4 active torsions:
REMARK  status: ('A' for Active; 'I' for Inactive)
REMARK    1  A    between atoms: C_1  and  C_2
REMARK    2  A    between atoms: C_8  and  C_9
REMARK    3  A    between atoms: C_8  and  N_28
REMARK    4  A    between atoms: C_9  and  N_10
REMARK                            x       y       z     vdW  Elec       q    Type
REMARK                         _______ _______ _______ _____ _____    ______ ____
ROOT
ATOM      1  C   UNL     1       0.834  -2.035   1.197  0.00  0.00    -0.013 C 
ATOM      2  C   UNL     1       0.793  -0.505   1.212  0.00  0.00    -0.072 C 
ATOM      3  C   UNL     1       0.002  -0.004   0.002  0.00  0.00    -0.016 C 
ATOM      4  C   UNL     1      -0.019   1.527   0.010  0.00  0.00    -0.003 C 
ATOM      5  C   UNL     1       1.421   2.049  -0.001  0.00  0.00    -0.019 C 
ATOM      6  C   UNL     1       2.171   1.488   1.210  0.00  0.00    -0.078 C 
ATOM      7  N   UNL     1       2.176   0.012   1.129  0.00  0.00    +0.383 N 
ATOM      8  H   UNL     1       2.584  -0.271   0.231  0.00  0.00    -0.081 HD
ENDROOT
BRANCH   7   9
ATOM      9  C   UNL     1       2.991  -0.550   2.226  0.00  0.00    -0.054 C 
BRANCH   9  10
ATOM     10  C   UNL     1       4.325   0.197   2.292  0.00  0.00    +0.134 C 
BRANCH  10  11
ATOM     11  N   UNL     1       5.151  -0.372   3.360  0.00  0.00    -0.236 NA
ATOM     12  C   UNL     1       6.266  -0.867   3.090  0.00  0.00    +0.036 C 
ATOM     13  S   UNL     1       7.653  -1.483   2.755  0.00  0.00    +0.020 S 
ENDBRANCH  10  11
ENDBRANCH   9  10
ENDBRANCH   7   9
TORSDOF 3
