REMARK  Name = ZINC22821179
REMARK  12 active torsions:
REMARK  status: ('A' for Active; 'I' for Inactive)
REMARK    1  A    between atoms: C_1  and  C_2
REMARK    2  A    between atoms: C_2  and  N_3
REMARK    3  A    between atoms: N_6  and  C_9
REMARK    4  A    between atoms: C_9  and  C_10
REMARK    5  A    between atoms: C_10  and  C_12
REMARK    6  A    between atoms: C_10  and  C_13
REMARK    7  A    between atoms: C_13  and  N_14
REMARK    8  A    between atoms: C_23  and  C_33
REMARK    9  A    between atoms: N_24  and  C_25
REMARK   10  A    between atoms: C_29  and  C_32
REMARK   11  A    between atoms: C_30  and  C_31
REMARK   12  A    between atoms: N_34  and  C_37
REMARK                            x       y       z     vdW  Elec       q    Type
REMARK                         _______ _______ _______ _____ _____    ______ ____
ROOT
ATOM      1  N   UNL     1      -0.721   1.571  -1.179  0.00  0.00    -0.259 N 
ATOM      2  C   UNL     1      -1.703   0.820  -1.718  0.00  0.00    +0.283 A 
ATOM      3  O   UNL     1      -2.000  -0.253  -1.224  0.00  0.00    -0.265 OA
ATOM      4  C   UNL     1      -2.384   1.290  -2.854  0.00  0.00    +0.157 A 
ATOM      5  C   UNL     1      -2.021   2.519  -3.404  0.00  0.00    +0.170 A 
ATOM      6  N   UNL     1      -2.801   2.730  -4.460  0.00  0.00    -0.193 NA
ATOM      7  C   UNL     1      -3.637   1.713  -4.616  0.00  0.00    +0.223 A 
ATOM      8  N   UNL     1      -3.413   0.799  -3.643  0.00  0.00    -0.277 N 
ATOM      9  C   UNL     1      -4.296  -0.251  -3.825  0.00  0.00    +0.116 A 
ATOM     10  C   UNL     1      -5.047   0.013  -4.890  0.00  0.00    +0.040 A 
ATOM     11  N   UNL     1      -4.655   1.236  -5.402  0.00  0.00    -0.282 N 
ATOM     12  C   UNL     1      -6.138  -0.868  -5.443  0.00  0.00    +0.065 C 
ATOM     13  N   UNL     1      -1.000   3.242  -2.806  0.00  0.00    -0.279 N 
ATOM     14  C   UNL     1      -0.379   2.755  -1.716  0.00  0.00    +0.333 A 
ATOM     15  O   UNL     1       0.515   3.401  -1.204  0.00  0.00    -0.246 OA
ATOM     16  C   UNL     1      -0.597   4.536  -3.362  0.00  0.00    +0.155 C 
ENDROOT
BRANCH  11  17
ATOM     17  C   UNL     1      -5.199   1.874  -6.524  0.00  0.00    +0.053 A 
ATOM     18  C   UNL     1      -6.276   2.739  -6.379  0.00  0.00    +0.026 A 
ATOM     19  C   UNL     1      -6.807   3.370  -7.487  0.00  0.00    +0.002 A 
ATOM     20  C   UNL     1      -6.274   3.134  -8.741  0.00  0.00    +0.004 A 
ATOM     21  C   UNL     1      -5.205   2.270  -8.889  0.00  0.00    -0.046 A 
ATOM     22  C   UNL     1      -4.666   1.639  -7.785  0.00  0.00    -0.024 A 
ATOM     23  C   UNL     1      -3.500   0.698  -7.947  0.00  0.00    +0.046 C 
ATOM     24  C   UNL     1      -4.627   2.016 -10.258  0.00  0.00    +0.044 C 
ENDBRANCH  11  17
BRANCH   1  25
ATOM     25  C   UNL     1      -0.013   1.086   0.008  0.00  0.00    +0.131 C 
BRANCH  25  26
ATOM     26  C   UNL     1      -0.729   1.579   1.267  0.00  0.00    -0.011 C 
ATOM     27  C   UNL     1      -2.121   0.950   1.341  0.00  0.00    +0.007 C 
BRANCH  26  28
ATOM     28  C   UNL     1       0.079   1.179   2.503  0.00  0.00    -0.074 C 
BRANCH  28  32
ATOM     29  N   UNL     1      -0.581   3.232   6.135  0.00  0.00    -0.306 NA
ATOM     30  C   UNL     1      -0.671   1.766   6.147  0.00  0.00    +0.066 C 
ATOM     31  C   UNL     1       0.057   1.202   4.925  0.00  0.00    -0.063 C 
ATOM     32  N   UNL     1      -0.544   1.754   3.703  0.00  0.00    +0.382 N 
ATOM     33  C   UNL     1      -0.455   3.221   3.691  0.00  0.00    -0.063 C 
ATOM     34  C   UNL     1      -1.183   3.784   4.913  0.00  0.00    +0.066 C 
ATOM     35  H   UNL     1      -1.609   1.479   3.694  0.00  0.00    -0.082 HD
BRANCH  29  37
ATOM     36  C   UNL     1      -0.877   5.300   7.413  0.00  0.00    +0.020 C 
ATOM     37  C   UNL     1      -1.204   3.808   7.335  0.00  0.00    +0.081 C 
ENDBRANCH  29  37
ENDBRANCH  28  32
ENDBRANCH  26  28
ENDBRANCH  25  26
ENDBRANCH   1  25
TORSDOF 6
