REMARK  Name = ZINC20696427
REMARK  6 active torsions:
REMARK  status: ('A' for Active; 'I' for Inactive)
REMARK    1  A    between atoms: C_6  and  S_7
REMARK    2  A    between atoms: S_7  and  N_10
REMARK    3  A    between atoms: N_10  and  C_11
REMARK    4  A    between atoms: C_11  and  C_12
REMARK    5  A    between atoms: C_25  and  C_28
REMARK    6  A    between atoms: C_33  and  O_34
REMARK                            x       y       z     vdW  Elec       q    Type
REMARK                         _______ _______ _______ _____ _____    ______ ____
ROOT
ATOM      1  C   UNL     1      -2.757   2.761  -3.004  0.00  0.00    +0.030 A 
ATOM      2  C   UNL     1      -2.977   1.608  -2.279  0.00  0.00    +0.025 A 
ATOM      3  C   UNL     1      -2.074   1.211  -1.301  0.00  0.00    +0.031 A 
ATOM      4  C   UNL     1      -0.945   2.000  -1.053  0.00  0.00    -0.018 A 
ATOM      5  C   UNL     1      -0.730   3.146  -1.787  0.00  0.00    +0.034 A 
ATOM      6  C   UNL     1      -1.633   3.530  -2.763  0.00  0.00    +0.106 A 
ATOM      7  C   UNL     1      -0.019   1.554   0.011  0.00  0.00    +0.049 C 
ATOM      8  C   UNL     1       1.422   1.913  -0.001  0.00  0.00    -0.023 C 
ATOM      9  C   UNL     1       2.109   0.932   0.572  0.00  0.00    -0.030 C 
ATOM     10  C   UNL     1       1.162  -0.195   0.989  0.00  0.00    +0.033 C 
ATOM     11  C   UNL     1       0.002  -0.004   0.002  0.00  0.00    +0.029 C 
ATOM     12  C   UNL     1      -1.380  -0.430   0.465  0.00  0.00    +0.108 C 
ATOM     13  N   UNL     1      -2.311   0.029  -0.588  0.00  0.00    -0.336 N 
ATOM     14  H   UNL     1      -3.209  -0.561  -0.824  0.00  0.00    +0.147 HD
ENDROOT
BRANCH  12  15
ATOM     15  C   UNL     1      -1.444  -1.929   0.601  0.00  0.00    +0.015 A 
ATOM     16  C   UNL     1      -1.927  -2.697  -0.441  0.00  0.00    +0.024 A 
ATOM     17  C   UNL     1      -1.988  -4.074  -0.317  0.00  0.00    +0.018 A 
ATOM     18  C   UNL     1      -1.564  -4.684   0.850  0.00  0.00    +0.019 A 
ATOM     19  C   UNL     1      -1.081  -3.920   1.894  0.00  0.00    +0.047 A 
ATOM     20  C   UNL     1      -1.014  -2.540   1.770  0.00  0.00    +0.122 A 
ATOM     21 BR   UNL     1      -2.649  -5.122  -1.745  0.00  0.00    -0.050 Br
BRANCH  20  22
ATOM     22  O   UNL     1      -0.533  -1.786   2.794  0.00  0.00    -0.506 OA
ATOM     23  H   UNL     1      -0.192  -2.271   3.720  0.00  0.00    +0.292 HD
ENDBRANCH  20  22
ENDBRANCH  12  15
BRANCH   6  24
ATOM     24  S   UNL     1      -1.351   4.997  -3.696  0.00  0.00    +0.058 S 
ATOM     25  O   UNL     1       0.047   5.244  -3.653  0.00  0.00    -0.153 OA
ATOM     26  O   UNL     1      -2.061   4.843  -4.918  0.00  0.00    -0.153 OA
BRANCH  24  27
ATOM     27  N   UNL     1      -2.077   6.243  -2.881  0.00  0.00    -0.187 NA
ATOM     28  H   UNL     1      -3.021   6.658  -3.264  0.00  0.00    +0.148 HD
BRANCH  27  29
ATOM     29  C   UNL     1      -1.588   6.636  -1.558  0.00  0.00    +0.137 C 
BRANCH  29  30
ATOM     30  C   UNL     1      -2.155   8.009  -1.191  0.00  0.00    +0.134 C 
ATOM     31  C   UNL     1      -1.583   8.483   0.164  0.00  0.00    +0.035 C 
ATOM     32  C   UNL     1      -2.770   9.204   0.840  0.00  0.00    +0.031 C 
ATOM     33  C   UNL     1      -3.919   9.081  -0.186  0.00  0.00    +0.160 C 
ATOM     34  O   UNL     1      -3.582   7.924  -0.983  0.00  0.00    -0.375 OA
ENDBRANCH  29  30
ENDBRANCH  27  29
ENDBRANCH  24  27
ENDBRANCH   6  24
TORSDOF 6
