REMARK  Name = ZINC15346055
REMARK  5 active torsions:
REMARK  status: ('A' for Active; 'I' for Inactive)
REMARK    1  A    between atoms: C_5  and  C_7
REMARK    2  A    between atoms: N_9  and  N_10
REMARK    3  A    between atoms: C_11  and  C_13
REMARK    4  A    between atoms: C_14  and  C_15
REMARK    5  A    between atoms: C_18  and  C_21
REMARK                            x       y       z     vdW  Elec       q    Type
REMARK                         _______ _______ _______ _____ _____    ______ ____
ROOT
ATOM      1  N   UNL     1       1.178  -0.662  -0.013  0.00  0.00    -0.231 N 
ATOM      2  C   UNL     1       0.002  -0.004   0.002  0.00  0.00    +0.253 C 
ATOM      3  O   UNL     1      -1.043  -0.627   0.009  0.00  0.00    -0.269 OA
ATOM      4  H   UNL     1       2.012  -0.166  -0.018  0.00  0.00    +0.173 HD
ENDROOT
BRANCH   1   7
ATOM      5  C   UNL     1       2.373  -2.721  -0.035  0.00  0.00    +0.261 C 
ATOM      6  O   UNL     1       3.418  -2.099  -0.042  0.00  0.00    -0.269 OA
ATOM      7  N   UNL     1       1.197  -2.063  -0.021  0.00  0.00    -0.230 N 
ATOM      8  H   UNL     1       0.364  -2.559  -0.015  0.00  0.00    +0.173 HD
BRANCH   5  13
ATOM      9  C   UNL     1       1.222  -6.295  -0.043  0.00  0.00    +0.001 A 
ATOM     10  C   UNL     1       2.431  -6.968  -0.058  0.00  0.00    +0.001 A 
ATOM     11  C   UNL     1       3.621  -6.265  -0.066  0.00  0.00    +0.016 A 
ATOM     12  C   UNL     1       3.611  -4.883  -0.059  0.00  0.00    +0.030 A 
ATOM     13  C   UNL     1       2.393  -4.199  -0.043  0.00  0.00    +0.052 A 
ATOM     14  C   UNL     1       1.196  -4.916  -0.030  0.00  0.00    +0.014 A 
ATOM     15 BR   UNL     1       5.239  -3.923  -0.068  0.00  0.00    -0.050 Br
ENDBRANCH   5  13
ENDBRANCH   1   7
BRANCH   2  16
ATOM     16  C   UNL     1      -0.018   1.460   0.010  0.00  0.00    +0.069 C 
ATOM     17  C   UNL     1      -1.194   2.118   0.019  0.00  0.00    +0.013 C 
BRANCH  17  18
ATOM     18  C   UNL     1      -1.214   3.590   0.027  0.00  0.00    -0.025 A 
ATOM     19  C   UNL     1      -0.015   4.309   0.031  0.00  0.00    +0.008 A 
ATOM     20  C   UNL     1      -0.042   5.688   0.033  0.00  0.00    +0.013 A 
ATOM     21  C   UNL     1      -1.252   6.360   0.042  0.00  0.00    +0.055 A 
ATOM     22  C   UNL     1      -2.443   5.655   0.044  0.00  0.00    +0.013 A 
ATOM     23  C   UNL     1      -2.433   4.276   0.037  0.00  0.00    +0.008 A 
BRANCH  21  24
ATOM     24  C   UNL     1      -1.272   7.867   0.050  0.00  0.00    +0.417 C 
ATOM     25  F   UNL     1      -1.272   8.326   1.371  0.00  0.00    -0.166 F 
ATOM     26  F   UNL     1      -0.140   8.352  -0.613  0.00  0.00    -0.166 F 
ATOM     27  F   UNL     1      -2.424   8.321  -0.602  0.00  0.00    -0.166 F 
ENDBRANCH  21  24
ENDBRANCH  17  18
ENDBRANCH   2  16
TORSDOF 5
