REMARK  Name = ZINC11086924
REMARK  7 active torsions:
REMARK  status: ('A' for Active; 'I' for Inactive)
REMARK    1  A    between atoms: C_1  and  C_2
REMARK    2  A    between atoms: C_5  and  N_8
REMARK    3  A    between atoms: C_12  and  S_13
REMARK    4  A    between atoms: S_13  and  C_14
REMARK    5  A    between atoms: C_14  and  C_16
REMARK    6  A    between atoms: C_14  and  C_17
REMARK    7  A    between atoms: N_22  and  C_23
REMARK                            x       y       z     vdW  Elec       q    Type
REMARK                         _______ _______ _______ _____ _____    ______ ____
ROOT
ATOM      1  N   UNL     1      -8.839   0.383   0.674  0.00  0.00    -0.259 N 
ATOM      2  C   UNL     1      -9.506  -0.808   0.776  0.00  0.00    +0.225 A 
ATOM      3  N   UNL     1      -8.643  -1.774   0.576  0.00  0.00    -0.112 NA
ATOM      4  N   UNL     1      -7.391  -1.194   0.334  0.00  0.00    -0.120 NA
ATOM      5  C   UNL     1      -7.526   0.108   0.402  0.00  0.00    +0.198 A 
ATOM      6  N   UNL     1     -10.860  -0.965   1.045  0.00  0.00    -0.299 N 
ATOM      7  C   UNL     1     -11.689  -0.359  -0.028  0.00  0.00    +0.108 C 
ATOM      8  C   UNL     1     -13.059  -1.062   0.142  0.00  0.00    +0.020 C 
ATOM      9  C   UNL     1     -12.661  -2.507   0.522  0.00  0.00    +0.020 C 
ATOM     10  C   UNL     1     -11.230  -2.397   1.080  0.00  0.00    +0.108 C 
ENDROOT
BRANCH   1  15
ATOM     11  C   UNL     1     -11.116   5.548   1.272  0.00  0.00    +0.044 C 
ATOM     12  C   UNL     1     -10.512   4.176   1.113  0.00  0.00    -0.050 A 
ATOM     13  C   UNL     1      -9.996   3.787  -0.109  0.00  0.00    +0.005 A 
ATOM     14  C   UNL     1      -9.441   2.530  -0.258  0.00  0.00    +0.026 A 
ATOM     15  C   UNL     1      -9.402   1.659   0.822  0.00  0.00    +0.052 A 
ATOM     16  C   UNL     1      -9.925   2.051   2.046  0.00  0.00    +0.026 A 
ATOM     17  C   UNL     1     -10.474   3.310   2.190  0.00  0.00    +0.005 A 
ENDBRANCH   1  15
BRANCH   5  18
ATOM     18  S   UNL     1      -6.244   1.295   0.175  0.00  0.00    -0.073 S 
BRANCH  18  19
ATOM     19  C   UNL     1      -4.768   0.292  -0.150  0.00  0.00    +0.137 C 
ATOM     20  C   UNL     1      -4.945  -0.464  -1.468  0.00  0.00    +0.029 C 
BRANCH  19  21
ATOM     21  C   UNL     1      -3.561   1.189  -0.243  0.00  0.00    +0.234 C 
ATOM     22  O   UNL     1      -3.701   2.372  -0.468  0.00  0.00    -0.274 OA
ATOM     23  N   UNL     1      -2.326   0.676  -0.076  0.00  0.00    -0.239 N 
ATOM     24  C   UNL     1      -1.246   1.478  -0.160  0.00  0.00    +0.310 C 
ATOM     25  O   UNL     1      -1.387   2.664  -0.385  0.00  0.00    -0.252 OA
ATOM     26  N   UNL     1      -0.011   0.966   0.007  0.00  0.00    -0.269 N 
ATOM     27  H   UNL     1      -2.214  -0.270   0.104  0.00  0.00    +0.159 HD
ATOM     28  H   UNL     1       0.107   0.009   0.110  0.00  0.00    +0.156 HD
BRANCH  26  29
ATOM     29  C   UNL     1       1.102   1.814   0.027  0.00  0.00    +0.035 A 
ATOM     30  C   UNL     1       2.319   1.376  -0.477  0.00  0.00    +0.023 A 
ATOM     31  C   UNL     1       3.415   2.217  -0.459  0.00  0.00    +0.002 A 
ATOM     32  C   UNL     1       3.302   3.491   0.068  0.00  0.00    +0.000 A 
ATOM     33  C   UNL     1       2.092   3.928   0.576  0.00  0.00    +0.002 A 
ATOM     34  C   UNL     1       0.992   3.093   0.557  0.00  0.00    +0.023 A 
ENDBRANCH  26  29
ENDBRANCH  19  21
ENDBRANCH  18  19
ENDBRANCH   5  18
TORSDOF 5
