REMARK  Name = ZINC10815480
REMARK  12 active torsions:
REMARK  status: ('A' for Active; 'I' for Inactive)
REMARK    1  A    between atoms: C_1  and  C_2
REMARK    2  A    between atoms: C_2  and  N_60
REMARK    3  A    between atoms: C_3  and  C_4
REMARK    4  A    between atoms: C_3  and  N_60
REMARK    5  A    between atoms: C_5  and  C_6
REMARK    6  A    between atoms: C_5  and  N_60
REMARK    7  A    between atoms: C_6  and  N_7
REMARK    8  A    between atoms: C_16  and  S_17
REMARK    9  A    between atoms: S_17  and  C_20
REMARK   10  A    between atoms: C_21  and  C_23
REMARK   11  A    between atoms: C_27  and  S_29
REMARK   12  A    between atoms: S_29  and  C_32
REMARK                            x       y       z     vdW  Elec       q    Type
REMARK                         _______ _______ _______ _____ _____    ______ ____
ROOT
ATOM      1  N   UNL     1      -3.716   1.773  -0.151  0.00  0.00    -0.248 N 
ATOM      2  C   UNL     1      -2.421   1.455   0.221  0.00  0.00    +0.168 A 
ATOM      3  N   UNL     1      -1.442   2.259   0.566  0.00  0.00    -0.222 NA
ATOM      4  C   UNL     1      -0.216   1.807   0.905  0.00  0.00    +0.105 A 
ATOM      5  C   UNL     1      -0.051   0.403   0.875  0.00  0.00    +0.043 A 
ATOM      6  S   UNL     1      -1.657  -0.155   0.360  0.00  0.00    -0.052 S 
ATOM      7  C   UNL     1       1.133  -0.211   1.198  0.00  0.00    +0.017 A 
ATOM      8  C   UNL     1       2.221   0.557   1.569  0.00  0.00    +0.003 A 
ATOM      9  C   UNL     1       2.096   1.938   1.609  0.00  0.00    +0.029 A 
ATOM     10  C   UNL     1       0.917   2.560   1.289  0.00  0.00    +0.114 A 
ATOM     11  C   UNL     1      -4.107   3.062  -0.195  0.00  0.00    +0.252 C 
ATOM     12  O   UNL     1      -3.352   3.939   0.175  0.00  0.00    -0.270 OA
ENDROOT
BRANCH  11  13
ATOM     13  C   UNL     1      -5.454   3.408  -0.695  0.00  0.00    +0.039 A 
ATOM     14  C   UNL     1      -5.613   4.430  -1.633  0.00  0.00    +0.013 A 
ATOM     15  C   UNL     1      -6.873   4.748  -2.095  0.00  0.00    +0.003 A 
ATOM     16  C   UNL     1      -7.978   4.057  -1.631  0.00  0.00    +0.027 A 
ATOM     17  C   UNL     1      -7.828   3.043  -0.702  0.00  0.00    +0.089 A 
ATOM     18  C   UNL     1      -6.573   2.711  -0.235  0.00  0.00    +0.040 A 
BRANCH  17  19
ATOM     19  S   UNL     1      -9.242   2.168  -0.119  0.00  0.00    -0.006 S 
ATOM     20  O   UNL     1      -8.871   1.697   1.169  0.00  0.00    -0.170 OA
ATOM     21  O   UNL     1     -10.321   3.079  -0.274  0.00  0.00    -0.170 OA
ATOM     22  C   UNL     1      -9.432   0.774  -1.264  0.00  0.00    +0.200 C 
ENDBRANCH  17  19
ENDBRANCH  11  13
BRANCH  10  23
ATOM     23  S   UNL     1       0.813   4.318   1.357  0.00  0.00    -0.004 S 
ATOM     24  O   UNL     1      -0.342   4.582   2.141  0.00  0.00    -0.170 OA
ATOM     25  O   UNL     1       2.098   4.740   1.794  0.00  0.00    -0.170 OA
ATOM     26  C   UNL     1       0.536   4.835  -0.359  0.00  0.00    +0.200 C 
ENDBRANCH  10  23
BRANCH   1  27
ATOM     27  C   UNL     1      -4.661   0.708  -0.496  0.00  0.00    +0.097 C 
BRANCH  27  28
ATOM     28  C   UNL     1      -5.226   0.093   0.786  0.00  0.00    -0.059 C 
BRANCH  28  29
ATOM     29  N   UNL     1      -6.296  -0.861   0.425  0.00  0.00    +0.380 N 
ATOM     30  H   UNL     1      -6.965  -0.392  -0.197  0.00  0.00    -0.082 HD
BRANCH  29  32
ATOM     31  C   UNL     1      -4.781  -2.801   0.645  0.00  0.00    -0.017 C 
ATOM     32  C   UNL     1      -5.719  -2.025  -0.280  0.00  0.00    -0.082 C 
ENDBRANCH  29  32
BRANCH  29  33
ATOM     33  C   UNL     1      -7.005  -1.309   1.642  0.00  0.00    -0.082 C 
ATOM     34  C   UNL     1      -8.188  -2.189   1.230  0.00  0.00    -0.017 C 
ENDBRANCH  29  33
ENDBRANCH  28  29
ENDBRANCH  27  28
ENDBRANCH   1  27
TORSDOF 8
