REMARK  Name = ZINC06322054
REMARK  7 active torsions:
REMARK  status: ('A' for Active; 'I' for Inactive)
REMARK    1  A    between atoms: C_1  and  C_2
REMARK    2  A    between atoms: C_5  and  C_38
REMARK    3  A    between atoms: C_9  and  C_14
REMARK    4  A    between atoms: C_14  and  C_16
REMARK    5  A    between atoms: C_14  and  N_68
REMARK    6  A    between atoms: N_20  and  C_21
REMARK    7  A    between atoms: C_28  and  C_31
REMARK                            x       y       z     vdW  Elec       q    Type
REMARK                         _______ _______ _______ _____ _____    ______ ____
ROOT
ATOM      1  C   UNL     1       3.592   1.631   3.726  0.00  0.00    +0.039 C 
ENDROOT
BRANCH   1  10
ATOM      2  C   UNL     1      -0.013   1.086   0.008  0.00  0.00    +0.044 C 
ATOM      3  C   UNL     1      -0.718   1.572   1.248  0.00  0.00    -0.041 A 
ATOM      4  C   UNL     1      -2.067   1.788   1.230  0.00  0.00    +0.004 A 
ATOM      5  C   UNL     1      -2.727   2.230   2.368  0.00  0.00    +0.005 A 
ATOM      6  C   UNL     1      -2.033   2.471   3.534  0.00  0.00    -0.026 A 
ATOM      7  C   UNL     1      -0.659   2.264   3.575  0.00  0.00    +0.052 A 
ATOM      8  C   UNL     1       0.006   1.809   2.420  0.00  0.00    +0.002 A 
ATOM      9  C   UNL     1       1.454   1.594   2.473  0.00  0.00    +0.018 A 
ATOM     10  C   UNL     1       2.103   1.843   3.637  0.00  0.00    +0.011 A 
ATOM     11  C   UNL     1       1.389   2.297   4.767  0.00  0.00    +0.251 A 
ATOM     12  O   UNL     1       1.993   2.514   5.803  0.00  0.00    -0.268 OA
ATOM     13  N   UNL     1       0.060   2.497   4.728  0.00  0.00    -0.322 N 
ATOM     14  H   UNL     1      -0.400   2.810   5.523  0.00  0.00    +0.169 HD
ATOM     15  C   UNL     1      -2.762   2.958   4.761  0.00  0.00    +0.046 C 
ENDBRANCH   1  10
BRANCH   1  21
ATOM     16  C   UNL     1       5.328   0.396   4.882  0.00  0.00    -0.072 C 
ATOM     17  C   UNL     1       5.633  -0.281   6.220  0.00  0.00    +0.017 C 
ATOM     18  C   UNL     1       4.643  -1.385   6.467  0.00  0.00    -0.048 C 
ATOM     19  C   UNL     1       3.510  -1.482   5.808  0.00  0.00    -0.041 C 
ATOM     20  C   UNL     1       3.096  -0.510   4.741  0.00  0.00    -0.049 C 
ATOM     21  N   UNL     1       3.889   0.728   4.861  0.00  0.00    +0.392 N 
ATOM     22  H   UNL     1       3.641   1.201   5.738  0.00  0.00    -0.080 HD
BRANCH  18  23
ATOM     23  C   UNL     1       4.955  -2.402   7.493  0.00  0.00    -0.022 A 
ATOM     24  C   UNL     1       5.057  -2.034   8.836  0.00  0.00    +0.011 A 
ATOM     25  C   UNL     1       5.343  -2.988   9.790  0.00  0.00    +0.039 A 
ATOM     26  C   UNL     1       5.542  -4.307   9.416  0.00  0.00    +0.123 A 
ATOM     27  C   UNL     1       5.448  -4.677   8.084  0.00  0.00    +0.039 A 
ATOM     28  C   UNL     1       5.156  -3.732   7.122  0.00  0.00    +0.011 A 
ATOM     29  F   UNL     1       5.828  -5.237  10.354  0.00  0.00    -0.205 F 
ENDBRANCH  18  23
ENDBRANCH   1  21
BRANCH   1  30
ATOM     30  C   UNL     1       4.274   2.954   3.962  0.00  0.00    +0.143 A 
ATOM     31  N   UNL     1       4.303   3.631   5.084  0.00  0.00    -0.115 NA
ATOM     32  N   UNL     1       4.984   4.705   4.884  0.00  0.00    -0.023 NA
ATOM     33  N   UNL     1       5.385   4.736   3.661  0.00  0.00    -0.044 NA
ATOM     34  N   UNL     1       4.967   3.674   3.060  0.00  0.00    -0.227 N 
BRANCH  34  35
ATOM     35  C   UNL     1       5.203   3.318   1.659  0.00  0.00    +0.111 C 
ATOM     36  C   UNL     1       6.718   3.251   1.377  0.00  0.00    +0.027 C 
ATOM     37  C   UNL     1       6.863   3.823  -0.056  0.00  0.00    +0.002 C 
ATOM     38  C   UNL     1       5.818   4.966  -0.076  0.00  0.00    +0.002 C 
ATOM     39  C   UNL     1       4.630   4.407   0.735  0.00  0.00    +0.027 C 
ENDBRANCH  34  35
ENDBRANCH   1  30
TORSDOF 5
