REMARK  Name = ZINC09949824
REMARK  8 active torsions:
REMARK  status: ('A' for Active; 'I' for Inactive)
REMARK    1  A    between atoms: C_1  and  C_2
REMARK    2  A    between atoms: C_2  and  C_4
REMARK    3  A    between atoms: C_2  and  N_59
REMARK    4  A    between atoms: C_7  and  C_19
REMARK    5  A    between atoms: C_10  and  C_12
REMARK    6  A    between atoms: C_24  and  N_59
REMARK    7  A    between atoms: C_25  and  C_26
REMARK    8  A    between atoms: C_25  and  N_59
REMARK                            x       y       z     vdW  Elec       q    Type
REMARK                         _______ _______ _______ _____ _____    ______ ____
ROOT
ATOM      1  C   UNL     1      -0.435  -5.298   0.323  0.00  0.00    +0.222 C 
ATOM      2  O   UNL     1      -0.044  -6.442   0.221  0.00  0.00    -0.276 OA
ATOM      3  N   UNL     1       0.417  -4.327   0.708  0.00  0.00    -0.183 N 
ATOM      4  C   UNL     1       1.840  -4.516   1.032  0.00  0.00    +0.172 C 
ATOM      5  C   UNL     1       2.319  -3.097   1.396  0.00  0.00    +0.090 C 
ATOM      6  C   UNL     1       1.081  -2.243   1.242  0.00  0.00    +0.069 C 
ATOM      7  N   UNL     1       0.094  -2.981   0.864  0.00  0.00    -0.181 NA
ENDROOT
BRANCH   6   8
ATOM      8  C   UNL     1       1.014  -0.790   1.480  0.00  0.00    -0.002 A 
ATOM      9  C   UNL     1      -0.190  -0.104   1.298  0.00  0.00    +0.011 A 
ATOM     10  C   UNL     1      -0.246   1.256   1.524  0.00  0.00    +0.020 A 
ATOM     11  C   UNL     1       0.888   1.941   1.929  0.00  0.00    +0.041 A 
ATOM     12  C   UNL     1       2.084   1.267   2.111  0.00  0.00    +0.020 A 
ATOM     13  C   UNL     1       2.153  -0.093   1.889  0.00  0.00    +0.011 A 
ATOM     14 CL   UNL     1       0.809   3.652   2.210  0.00  0.00    -0.084 Cl
ENDBRANCH   6   8
BRANCH   4  15
ATOM     15  C   UNL     1       2.593  -5.034  -0.166  0.00  0.00    +0.128 A 
ATOM     16  C   UNL     1       3.578  -5.949  -0.141  0.00  0.00    +0.046 A 
ATOM     17  C   UNL     1       3.997  -6.137  -1.478  0.00  0.00    +0.041 A 
ATOM     18  C   UNL     1       3.243  -5.325  -2.240  0.00  0.00    +0.195 A 
ATOM     19  O   UNL     1       2.390  -4.664  -1.441  0.00  0.00    -0.466 OA
ENDBRANCH   4  15
BRANCH   1  21
ATOM     20  C   UNL     1      -1.946  -4.160  -1.279  0.00  0.00    -0.004 C 
ATOM     21  C   UNL     1      -1.873  -4.963   0.021  0.00  0.00    +0.018 C 
BRANCH  21  23
ATOM     22  C   UNL     1      -4.088  -5.931  -0.114  0.00  0.00    -0.095 C 
ATOM     23  N   UNL     1      -2.639  -6.221  -0.103  0.00  0.00    +0.390 N 
ATOM     24  H   UNL     1      -2.425  -6.822   0.702  0.00  0.00    -0.081 HD
BRANCH  23  25
ATOM     25  C   UNL     1      -2.255  -6.926  -1.344  0.00  0.00    -0.003 C 
BRANCH  25  26
ATOM     26  C   UNL     1      -2.880  -8.297  -1.337  0.00  0.00    +0.094 A 
ATOM     27  N   UNL     1      -2.635  -9.122  -2.389  0.00  0.00    -0.312 N 
ATOM     28  H   UNL     1      -2.071  -8.818  -3.117  0.00  0.00    +0.170 HD
ATOM     29  C   UNL     1      -3.172 -10.364  -2.430  0.00  0.00    +0.259 A 
ATOM     30  O   UNL     1      -2.962 -11.113  -3.366  0.00  0.00    -0.267 OA
ATOM     31  C   UNL     1      -4.020 -10.772  -1.300  0.00  0.00    +0.065 A 
ATOM     32  C   UNL     1      -4.620 -12.029  -1.245  0.00  0.00    +0.015 A 
ATOM     33  C   UNL     1      -5.404 -12.360  -0.162  0.00  0.00    +0.001 A 
ATOM     34  C   UNL     1      -5.600 -11.453   0.872  0.00  0.00    +0.002 A 
ATOM     35  C   UNL     1      -5.017 -10.206   0.836  0.00  0.00    +0.028 A 
ATOM     36  C   UNL     1      -4.218  -9.847  -0.251  0.00  0.00    +0.078 A 
ATOM     37  N   UNL     1      -3.619  -8.632  -0.324  0.00  0.00    -0.236 NA
ENDBRANCH  25  26
ENDBRANCH  23  25
ENDBRANCH  21  23
ENDBRANCH   1  21
TORSDOF 6
