REMARK  Name = ZINC08816920
REMARK  10 active torsions:
REMARK  status: ('A' for Active; 'I' for Inactive)
REMARK    1  A    between atoms: C_1  and  C_2
REMARK    2  A    between atoms: C_2  and  O_3
REMARK    3  A    between atoms: O_3  and  C_4
REMARK    4  A    between atoms: C_13  and  C_25
REMARK    5  A    between atoms: C_15  and  C_21
REMARK    6  A    between atoms: C_15  and  C_23
REMARK    7  A    between atoms: C_16  and  N_20
REMARK    8  A    between atoms: C_17  and  C_18
REMARK    9  A    between atoms: C_34  and  O_35
REMARK   10  A    between atoms: O_35  and  C_36
REMARK                            x       y       z     vdW  Elec       q    Type
REMARK                         _______ _______ _______ _____ _____    ______ ____
ROOT
ATOM      1  C   UNL     1      -2.636   1.230   0.179  0.00  0.00    +0.403 C 
ATOM      2  O   UNL     1      -3.444   0.458   0.657  0.00  0.00    -0.226 OA
ATOM      3  N   UNL     1      -1.403   0.796  -0.151  0.00  0.00    -0.263 N 
ATOM      4  C   UNL     1      -0.401   1.704  -0.738  0.00  0.00    +0.138 C 
ATOM      5  C   UNL     1       0.803   1.654   0.174  0.00  0.00    -0.003 C 
ATOM      6  C   UNL     1       1.088   0.572   0.871  0.00  0.00    -0.026 C 
ATOM      7  C   UNL     1       0.282  -0.692   0.842  0.00  0.00    +0.048 C 
ATOM      8  C   UNL     1      -1.004  -0.600   0.052  0.00  0.00    +0.120 C 
ATOM      9  C   UNL     1       0.033  -1.116   2.290  0.00  0.00    +0.072 C 
ATOM     10  C   UNL     1       1.374  -1.443   2.948  0.00  0.00    +0.188 C 
ATOM     11  C   UNL     1       2.371  -0.342   2.747  0.00  0.00    +0.054 C 
ATOM     12  C   UNL     1       2.269   0.594   1.771  0.00  0.00    +0.074 C 
ENDROOT
BRANCH   9  13
ATOM     13  C   UNL     1      -0.635   0.010   3.037  0.00  0.00    +0.009 A 
ATOM     14  C   UNL     1      -2.035   0.116   3.053  0.00  0.00    -0.011 A 
ATOM     15  C   UNL     1      -2.844  -0.822   2.388  0.00  0.00    +0.009 A 
ATOM     16  C   UNL     1      -4.198  -0.692   2.428  0.00  0.00    +0.001 A 
ATOM     17  C   UNL     1      -4.798   0.356   3.124  0.00  0.00    +0.001 A 
ATOM     18  C   UNL     1      -4.047   1.280   3.783  0.00  0.00    +0.008 A 
ATOM     19  C   UNL     1      -2.645   1.179   3.764  0.00  0.00    -0.017 A 
ATOM     20  C   UNL     1      -1.838   2.115   4.434  0.00  0.00    +0.012 A 
ATOM     21  C   UNL     1      -0.485   1.988   4.396  0.00  0.00    +0.046 A 
ATOM     22  C   UNL     1       0.119   0.937   3.699  0.00  0.00    +0.124 A 
BRANCH  22  23
ATOM     23  O   UNL     1       1.474   0.837   3.679  0.00  0.00    -0.495 OA
ATOM     24  C   UNL     1       2.205   1.761   4.488  0.00  0.00    +0.277 C 
ENDBRANCH  22  23
ENDBRANCH   9  13
BRANCH  11  25
ATOM     25  N   UNL     1       3.442  -0.278   3.594  0.00  0.00    -0.358 N 
ATOM     26  H   UNL     1       4.191   0.517   3.474  0.00  0.00    +0.142 HD
ATOM     27  H   UNL     1       3.554  -1.023   4.396  0.00  0.00    +0.142 HD
ENDBRANCH  11  25
BRANCH  12  28
ATOM     28  C   UNL     1       3.276   1.603   1.629  0.00  0.00    +0.101 C 
ATOM     29  N   UNL     1       4.074   2.402   1.516  0.00  0.00    -0.191 NA
ENDBRANCH  12  28
BRANCH  10  30
ATOM     30  C   UNL     1       1.165  -1.645   4.391  0.00  0.00    +0.091 C 
ATOM     31  N   UNL     1       1.003  -1.800   5.505  0.00  0.00    -0.194 NA
ENDBRANCH  10  30
BRANCH  10  32
ATOM     32  C   UNL     1       1.906  -2.684   2.362  0.00  0.00    +0.091 C 
ATOM     33  N   UNL     1       2.317  -3.642   1.909  0.00  0.00    -0.194 NA
ENDBRANCH  10  32
BRANCH   1  34
ATOM     34  O   UNL     1      -2.972   2.518  -0.019  0.00  0.00    -0.451 OA
BRANCH  34  36
ATOM     35  C   UNL     1      -4.512   4.403   0.062  0.00  0.00    +0.048 C 
ATOM     36  C   UNL     1      -4.316   2.915   0.360  0.00  0.00    +0.230 C 
ENDBRANCH  34  36
ENDBRANCH   1  34
TORSDOF 8
