REMARK  Name = ZINC09466240
REMARK  8 active torsions:
REMARK  status: ('A' for Active; 'I' for Inactive)
REMARK    1  A    between atoms: C_1  and  C_2
REMARK    2  A    between atoms: C_3  and  C_28
REMARK    3  A    between atoms: C_7  and  S_17
REMARK    4  A    between atoms: C_9  and  C_11
REMARK    5  A    between atoms: C_11  and  N_55
REMARK    6  A    between atoms: S_17  and  C_18
REMARK    7  A    between atoms: C_21  and  C_23
REMARK    8  A    between atoms: C_23  and  N_57
REMARK                            x       y       z     vdW  Elec       q    Type
REMARK                         _______ _______ _______ _____ _____    ______ ____
ROOT
ATOM      1  C   UNL     1      -1.326   2.082   0.020  0.00  0.00    +0.045 C 
ATOM      2  C   UNL     1      -0.016   1.337   0.009  0.00  0.00    -0.029 A 
ATOM      3  C   UNL     1       0.012   0.017  -0.226  0.00  0.00    -0.008 A 
ATOM      4  S   UNL     1       1.748  -0.384  -0.143  0.00  0.00    -0.074 S 
ATOM      5  C   UNL     1       2.388   1.232   0.206  0.00  0.00    +0.113 A 
ATOM      6  C   UNL     1       1.231   2.042   0.249  0.00  0.00    +0.043 A 
ATOM      7  C   UNL     1       1.460   3.419   0.518  0.00  0.00    +0.118 A 
ATOM      8  N   UNL     1       2.701   3.842   0.706  0.00  0.00    -0.227 NA
ATOM      9  C   UNL     1       3.738   3.026   0.652  0.00  0.00    +0.115 A 
ATOM     10  N   UNL     1       3.588   1.738   0.406  0.00  0.00    -0.227 NA
ATOM     11  C   UNL     1      -1.147  -0.907  -0.497  0.00  0.00    +0.052 C 
ENDROOT
BRANCH   9  12
ATOM     12  C   UNL     1       5.122   3.578   0.876  0.00  0.00    -0.001 C 
BRANCH  12  18
ATOM     13  C   UNL     1       5.923   2.848  -1.291  0.00  0.00    -0.050 C 
ATOM     14  C   UNL     1       6.462   3.340  -2.637  0.00  0.00    +0.141 C 
ATOM     15  O   UNL     1       7.654   4.100  -2.418  0.00  0.00    -0.383 OA
ATOM     16  C   UNL     1       7.467   5.232  -1.565  0.00  0.00    +0.141 C 
ATOM     17  C   UNL     1       6.938   4.759  -0.208  0.00  0.00    -0.050 C 
ATOM     18  N   UNL     1       5.677   4.019  -0.422  0.00  0.00    +0.387 N 
ATOM     19  H   UNL     1       5.000   4.639  -0.881  0.00  0.00    -0.081 HD
ENDBRANCH  12  18
ENDBRANCH   9  12
BRANCH   7  20
ATOM     20  S   UNL     1       0.111   4.548   0.602  0.00  0.00    -0.009 S 
BRANCH  20  21
ATOM     21  C   UNL     1       0.981   6.040   0.950  0.00  0.00    +0.283 A 
ATOM     22  N   UNL     1       2.278   6.169   1.089  0.00  0.00    -0.101 NA
ATOM     23  N   UNL     1       2.560   7.400   1.337  0.00  0.00    -0.114 NA
ATOM     24  C   UNL     1       1.463   8.100   1.366  0.00  0.00    +0.202 A 
ATOM     25  O   UNL     1       0.439   7.261   1.117  0.00  0.00    -0.417 OA
BRANCH  24  26
ATOM     26  C   UNL     1       1.359   9.581   1.625  0.00  0.00    +0.021 C 
BRANCH  26  31
ATOM     27  C   UNL     1       0.462   9.783  -0.629  0.00  0.00    -0.078 C 
ATOM     28  C   UNL     1       0.322  10.943  -1.646  0.00  0.00    -0.020 C 
ATOM     29  C   UNL     1       0.396  12.200  -0.749  0.00  0.00    -0.020 C 
ATOM     30  C   UNL     1       1.110  11.737   0.534  0.00  0.00    -0.078 C 
ATOM     31  N   UNL     1       1.435  10.324   0.332  0.00  0.00    +0.386 N 
ATOM     32  H   UNL     1       2.385  10.238  -0.050  0.00  0.00    -0.081 HD
ENDBRANCH  26  31
ENDBRANCH  24  26
ENDBRANCH  20  21
ENDBRANCH   7  20
TORSDOF 6
