REMARK  Name = ZINC00967213
REMARK  3 active torsions:
REMARK  status: ('A' for Active; 'I' for Inactive)
REMARK    1  A    between atoms: C_5  and  N_11
REMARK    2  A    between atoms: C_6  and  S_7
REMARK    3  A    between atoms: S_7  and  N_10
REMARK                            x       y       z     vdW  Elec       q    Type
REMARK                         _______ _______ _______ _____ _____    ______ ____
ROOT
ATOM      1  C   UNL     1       1.166   2.593   0.005  0.00  0.00    +0.045 A 
ATOM      2  C   UNL     1      -0.024   1.887   0.012  0.00  0.00    +0.021 A 
ATOM      3  C   UNL     1      -1.232   2.561   0.022  0.00  0.00    +0.032 A 
ATOM      4  C   UNL     1      -1.253   3.942   0.035  0.00  0.00    +0.041 A 
ATOM      5  C   UNL     1      -0.060   4.654   0.028  0.00  0.00    +0.065 A 
ATOM      6  C   UNL     1       1.151   3.974   0.012  0.00  0.00    +0.128 A 
ATOM      7 BR   UNL     1      -2.905   4.863   0.057  0.00  0.00    -0.048 Br
ATOM      8 BR   UNL     1       0.002  -0.004   0.002  0.00  0.00    -0.050 Br
ENDROOT
BRANCH   6   9
ATOM      9  S   UNL     1       2.667   4.873   0.003  0.00  0.00    +0.058 S 
ATOM     10  O   UNL     1       2.568   5.845   1.035  0.00  0.00    -0.153 OA
ATOM     11  O   UNL     1       3.710   3.909  -0.038  0.00  0.00    -0.153 OA
BRANCH   9  12
ATOM     12  N   UNL     1       2.734   5.705  -1.427  0.00  0.00    -0.203 NA
ATOM     13  H   UNL     1       2.007   5.631  -2.065  0.00  0.00    +0.144 HD
ATOM     14  H   UNL     1       3.499   6.267  -1.625  0.00  0.00    +0.144 HD
ENDBRANCH   9  12
ENDBRANCH   6   9
BRANCH   5  15
ATOM     15  N   UNL     1      -0.078   6.052   0.036  0.00  0.00    -0.356 N 
ATOM     16  H   UNL     1       0.755   6.548   0.031  0.00  0.00    +0.142 HD
ATOM     17  H   UNL     1      -0.925   6.526   0.046  0.00  0.00    +0.142 HD
ENDBRANCH   5  15
TORSDOF 3
