REMARK  Name = ZINC09500411
REMARK  11 active torsions:
REMARK  status: ('A' for Active; 'I' for Inactive)
REMARK    1  A    between atoms: C_1  and  C_2
REMARK    2  A    between atoms: C_5  and  N_9
REMARK    3  A    between atoms: C_6  and  C_8
REMARK    4  A    between atoms: C_22  and  S_23
REMARK    5  A    between atoms: S_23  and  C_24
REMARK    6  A    between atoms: C_24  and  C_25
REMARK    7  A    between atoms: C_25  and  C_27
REMARK    8  A    between atoms: C_28  and  C_37
REMARK    9  A    between atoms: C_29  and  C_34
REMARK   10  A    between atoms: C_30  and  C_33
REMARK   11  A    between atoms: C_34  and  C_36
REMARK                            x       y       z     vdW  Elec       q    Type
REMARK                         _______ _______ _______ _____ _____    ______ ____
ROOT
ATOM      1  N   UNL     1      -6.662  -4.899   1.766  0.00  0.00    -0.245 N 
ATOM      2  C   UNL     1      -7.945  -4.548   1.992  0.00  0.00    +0.268 A 
ATOM      3  O   UNL     1      -8.788  -5.397   2.213  0.00  0.00    -0.267 OA
ATOM      4  C   UNL     1      -8.310  -3.120   1.965  0.00  0.00    +0.064 A 
ATOM      5  C   UNL     1      -9.621  -2.703   2.192  0.00  0.00    +0.015 A 
ATOM      6  C   UNL     1      -9.924  -1.359   2.159  0.00  0.00    +0.001 A 
ATOM      7  C   UNL     1      -8.933  -0.423   1.903  0.00  0.00    +0.002 A 
ATOM      8  C   UNL     1      -7.631  -0.823   1.677  0.00  0.00    +0.027 A 
ATOM      9  C   UNL     1      -7.308  -2.171   1.706  0.00  0.00    +0.064 A 
ATOM     10  N   UNL     1      -6.006  -2.604   1.488  0.00  0.00    -0.255 N 
ATOM     11  C   UNL     1      -5.695  -3.939   1.513  0.00  0.00    +0.245 A 
ATOM     12  N   UNL     1      -4.409  -4.034   1.271  0.00  0.00    -0.109 NA
ATOM     13  N   UNL     1      -3.905  -2.865   1.093  0.00  0.00    -0.120 NA
ATOM     14  C   UNL     1      -4.836  -1.950   1.212  0.00  0.00    +0.198 A 
ENDROOT
BRANCH   1  19
ATOM     15  C   UNL     1      -5.205 -10.382   1.858  0.00  0.00    +0.044 C 
ATOM     16  C   UNL     1      -5.592  -8.925   1.834  0.00  0.00    -0.050 A 
ATOM     17  C   UNL     1      -5.542  -8.178   2.997  0.00  0.00    +0.005 A 
ATOM     18  C   UNL     1      -5.890  -6.843   2.977  0.00  0.00    +0.027 A 
ATOM     19  C   UNL     1      -6.303  -6.252   1.789  0.00  0.00    +0.056 A 
ATOM     20  C   UNL     1      -6.352  -7.005   0.623  0.00  0.00    -0.026 A 
ATOM     21  C   UNL     1      -5.997  -8.339   0.649  0.00  0.00    +0.008 A 
ATOM     22  C   UNL     1      -6.793  -6.366  -0.669  0.00  0.00    +0.046 C 
ENDBRANCH   1  19
BRANCH  14  23
ATOM     23  S   UNL     1      -4.621  -0.208   1.053  0.00  0.00    -0.078 S 
BRANCH  23  24
ATOM     24  C   UNL     1      -2.853  -0.015   0.697  0.00  0.00    +0.158 C 
BRANCH  24  25
ATOM     25  C   UNL     1      -2.530   1.448   0.536  0.00  0.00    +0.190 C 
ATOM     26  O   UNL     1      -3.407   2.280   0.650  0.00  0.00    -0.290 OA
BRANCH  25  27
ATOM     27  C   UNL     1      -1.203   1.853   0.251  0.00  0.00    +0.087 A 
ATOM     28  C   UNL     1      -0.772   3.150   0.085  0.00  0.00    -0.012 A 
ATOM     29  C   UNL     1       0.614   3.089  -0.187  0.00  0.00    +0.041 A 
ATOM     30  C   UNL     1       0.974   1.749  -0.169  0.00  0.00    +0.024 A 
ATOM     31  N   UNL     1      -0.116   1.016   0.097  0.00  0.00    -0.355 N 
ATOM     32  H   UNL     1      -0.139   0.049   0.166  0.00  0.00    +0.166 HD
ATOM     33  C   UNL     1       2.360   1.208  -0.409  0.00  0.00    +0.064 C 
ATOM     34  C   UNL     1      -1.617   4.396   0.169  0.00  0.00    +0.047 C 
BRANCH  29  35
ATOM     35  C   UNL     1       1.503   4.227  -0.440  0.00  0.00    +0.162 C 
ATOM     36  O   UNL     1       2.028   4.805   0.489  0.00  0.00    -0.292 OA
ATOM     37  C   UNL     1       1.766   4.678  -1.853  0.00  0.00    +0.091 C 
ENDBRANCH  29  35
ENDBRANCH  25  27
ENDBRANCH  24  25
ENDBRANCH  23  24
ENDBRANCH  14  23
TORSDOF 6
