REMARK  Name = ZINC21811120
REMARK  9 active torsions:
REMARK  status: ('A' for Active; 'I' for Inactive)
REMARK    1  A    between atoms: C_1  and  C_2
REMARK    2  A    between atoms: C_5  and  N_8
REMARK    3  A    between atoms: C_9  and  C_11
REMARK    4  A    between atoms: C_11  and  C_34
REMARK    5  A    between atoms: N_23  and  C_24
REMARK    6  A    between atoms: C_24  and  C_25
REMARK    7  A    between atoms: C_25  and  N_26
REMARK    8  A    between atoms: N_26  and  C_27
REMARK    9  A    between atoms: N_26  and  C_28
REMARK                            x       y       z     vdW  Elec       q    Type
REMARK                         _______ _______ _______ _____ _____    ______ ____
ROOT
ATOM      1  C   UNL     1      -0.153   6.149  -3.050  0.00  0.00    +0.128 C 
ATOM      2  C   UNL     1      -0.513   7.344  -3.932  0.00  0.00    +0.157 C 
ATOM      3  N   UNL     1      -1.593   8.104  -3.295  0.00  0.00    -0.331 N 
ATOM      4  C   UNL     1      -1.886   9.433  -3.363  0.00  0.00    +0.088 A 
ATOM      5  C   UNL     1      -1.514  10.691  -3.894  0.00  0.00    +0.067 A 
ATOM      6  C   UNL     1      -2.406  11.592  -3.449  0.00  0.00    +0.198 A 
ATOM      7  O   UNL     1      -3.313  10.978  -2.672  0.00  0.00    -0.461 OA
ATOM      8  C   UNL     1      -3.027   9.661  -2.593  0.00  0.00    +0.153 A 
ATOM      9  C   UNL     1      -3.421   8.431  -2.045  0.00  0.00    +0.079 A 
ATOM     10  C   UNL     1      -2.534   7.488  -2.473  0.00  0.00    +0.109 A 
ATOM     11  C   UNL     1      -2.456   6.051  -2.192  0.00  0.00    +0.264 C 
ATOM     12  O   UNL     1      -3.357   5.460  -1.626  0.00  0.00    -0.268 OA
ATOM     13  N   UNL     1      -1.328   5.417  -2.590  0.00  0.00    -0.282 N 
ATOM     14  C   UNL     1       0.739   5.198  -3.850  0.00  0.00    +0.043 C 
ENDROOT
BRANCH   1  16
ATOM     15  N   UNL     1      -0.047   7.030  -0.742  0.00  0.00    -0.311 N 
ATOM     16  C   UNL     1       0.614   6.642  -1.851  0.00  0.00    +0.238 C 
ATOM     17  O   UNL     1       1.825   6.690  -1.883  0.00  0.00    -0.273 OA
ATOM     18  H   UNL     1      -1.145   6.987  -0.712  0.00  0.00    +0.149 HD
BRANCH  15  23
ATOM     19  C   UNL     1       1.798   8.242   4.546  0.00  0.00    +0.007 C 
ATOM     20  C   UNL     1       1.019   7.742   3.328  0.00  0.00    -0.014 C 
ATOM     21  C   UNL     1       0.585   8.935   2.474  0.00  0.00    +0.005 C 
ATOM     22  C   UNL     1      -0.194   8.434   1.256  0.00  0.00    +0.022 C 
ATOM     23  C   UNL     1       0.699   7.510   0.425  0.00  0.00    +0.073 C 
ATOM     24  C   UNL     1       1.133   6.317   1.278  0.00  0.00    +0.022 C 
ATOM     25  C   UNL     1       1.912   6.818   2.496  0.00  0.00    +0.005 C 
ENDBRANCH  15  23
ENDBRANCH   1  16
BRANCH  13  26
ATOM     26  C   UNL     1      -1.288   3.953  -2.565  0.00  0.00    +0.091 C 
BRANCH  26  27
ATOM     27  C   UNL     1      -0.769   3.481  -1.205  0.00  0.00    -0.060 C 
BRANCH  27  28
ATOM     28  N   UNL     1      -0.729   2.012  -1.180  0.00  0.00    +0.381 N 
ATOM     29  C   UNL     1      -2.083   1.448  -1.252  0.00  0.00    -0.096 C 
ATOM     30  H   UNL     1      -0.174   1.674  -2.067  0.00  0.00    -0.082 HD
BRANCH  28  31
ATOM     31  C   UNL     1      -0.019   1.526   0.010  0.00  0.00    -0.069 C 
ATOM     32  C   UNL     1       1.417   2.055  -0.000  0.00  0.00    -0.015 C 
ATOM     33  C   UNL     1       2.157   1.548   1.239  0.00  0.00    -0.002 C 
ATOM     34  C   UNL     1       2.178   0.019   1.231  0.00  0.00    -0.000 C 
ATOM     35  C   UNL     1       0.742  -0.511   1.242  0.00  0.00    -0.002 C 
ATOM     36  C   UNL     1       0.002  -0.004   0.002  0.00  0.00    -0.015 C 
ENDBRANCH  28  31
ENDBRANCH  27  28
ENDBRANCH  26  27
ENDBRANCH  13  26
TORSDOF 6
