REMARK  Name = ZINC05192873
REMARK  6 active torsions:
REMARK  status: ('A' for Active; 'I' for Inactive)
REMARK    1  A    between atoms: C_1  and  O_2
REMARK    2  A    between atoms: O_2  and  C_3
REMARK    3  A    between atoms: C_7  and  C_9
REMARK    4  A    between atoms: C_16  and  N_32
REMARK    5  A    between atoms: C_17  and  C_30
REMARK    6  A    between atoms: C_18  and  C_20
REMARK                            x       y       z     vdW  Elec       q    Type
REMARK                         _______ _______ _______ _____ _____    ______ ____
ROOT
ATOM      1  C   UNL     1       1.172  -4.552  -2.248  0.00  0.00    +0.074 A 
ATOM      2  C   UNL     1       0.990  -5.085  -3.481  0.00  0.00    +0.054 A 
ATOM      3  C   UNL     1       1.143  -6.482  -3.379  0.00  0.00    +0.245 A 
ATOM      4  N   UNL     1       1.404  -6.777  -2.138  0.00  0.00    -0.135 NA
ATOM      5  N   UNL     1       1.436  -5.586  -1.395  0.00  0.00    -0.273 N 
ATOM      6  H   UNL     1       1.613  -5.511  -0.444  0.00  0.00    +0.189 HD
ATOM      7  O   UNL     1       1.020  -7.300  -4.460  0.00  0.00    -0.421 OA
ATOM      8  C   UNL     1       1.018  -6.724  -5.678  0.00  0.00    +0.201 C 
ATOM      9  C   UNL     1       0.868  -5.401  -5.898  0.00  0.00    +0.098 C 
ATOM     10  C   UNL     1       0.678  -4.401  -4.787  0.00  0.00    +0.102 C 
ENDROOT
BRANCH  10  11
ATOM     11  C   UNL     1      -0.748  -3.914  -4.778  0.00  0.00    -0.027 A 
ATOM     12  C   UNL     1      -1.763  -4.777  -4.497  0.00  0.00    +0.005 A 
ATOM     13  C   UNL     1      -3.088  -4.345  -4.484  0.00  0.00    +0.001 A 
ATOM     14  C   UNL     1      -3.406  -3.049  -4.753  0.00  0.00    +0.008 A 
ATOM     15  C   UNL     1      -2.385  -2.130  -5.048  0.00  0.00    -0.018 A 
ATOM     16  C   UNL     1      -1.036  -2.567  -5.055  0.00  0.00    -0.014 A 
ATOM     17  C   UNL     1      -0.015  -1.647  -5.344  0.00  0.00    +0.009 A 
ATOM     18  C   UNL     1      -0.332  -0.350  -5.607  0.00  0.00    +0.001 A 
ATOM     19  C   UNL     1      -1.657   0.082  -5.594  0.00  0.00    +0.001 A 
ATOM     20  C   UNL     1      -2.674  -0.784  -5.331  0.00  0.00    +0.008 A 
ENDBRANCH  10  11
BRANCH   1  25
ATOM     21  C   UNL     1       0.351  -1.367  -0.427  0.00  0.00    +0.121 A 
ATOM     22  C   UNL     1       0.977  -0.427  -1.236  0.00  0.00    +0.045 A 
ATOM     23  C   UNL     1       1.663  -0.829  -2.366  0.00  0.00    +0.004 A 
ATOM     24  C   UNL     1       1.729  -2.166  -2.700  0.00  0.00    +0.010 A 
ATOM     25  C   UNL     1       1.103  -3.117  -1.894  0.00  0.00    +0.004 A 
ATOM     26  C   UNL     1       0.416  -2.712  -0.750  0.00  0.00    +0.055 A 
BRANCH  21  28
ATOM     27  C   UNL     1      -0.349   0.436   0.956  0.00  0.00    +0.277 C 
ATOM     28  O   UNL     1      -0.322  -0.967   0.684  0.00  0.00    -0.495 OA
ENDBRANCH  21  28
ENDBRANCH   1  25
BRANCH   8  29
ATOM     29  N   UNL     1       1.179  -7.540  -6.771  0.00  0.00    -0.328 N 
ATOM     30  H   UNL     1       1.289  -8.496  -6.650  0.00  0.00    +0.145 HD
ATOM     31  H   UNL     1       1.182  -7.160  -7.663  0.00  0.00    +0.145 HD
ENDBRANCH   8  29
BRANCH   9  32
ATOM     32  C   UNL     1       0.891  -4.926  -7.249  0.00  0.00    +0.101 C 
ATOM     33  N   UNL     1       0.909  -4.549  -8.321  0.00  0.00    -0.191 NA
ENDBRANCH   9  32
TORSDOF 5
