REMARK  Name = ZINC06015430
REMARK  13 active torsions:
REMARK  status: ('A' for Active; 'I' for Inactive)
REMARK    1  A    between atoms: C_1  and  C_2
REMARK    2  A    between atoms: C_6  and  C_14
REMARK    3  A    between atoms: C_8  and  C_10
REMARK    4  A    between atoms: C_10  and  O_12
REMARK    5  A    between atoms: O_12  and  C_13
REMARK    6  A    between atoms: C_17  and  O_21
REMARK    7  A    between atoms: C_18  and  O_20
REMARK    8  A    between atoms: O_21  and  C_22
REMARK    9  A    between atoms: C_26  and  C_29
REMARK   10  A    between atoms: C_32  and  O_37
REMARK   11  A    between atoms: C_33  and  O_35
REMARK   12  A    between atoms: O_35  and  C_36
REMARK   13  A    between atoms: O_37  and  C_38
REMARK                            x       y       z     vdW  Elec       q    Type
REMARK                         _______ _______ _______ _____ _____    ______ ____
ROOT
ATOM      1  C   UNL     1      -0.018   1.503   0.010  0.00  0.00    +0.061 C 
ATOM      2  C   UNL     1       0.002  -0.004   0.002  0.00  0.00    +0.031 C 
ATOM      3  N   UNL     1       0.005  -0.633  -1.124  0.00  0.00    -0.260 NA
ATOM      4  C   UNL     1       0.001  -1.978  -1.206  0.00  0.00    +0.049 C 
ATOM      5  C   UNL     1      -0.349  -2.731  -0.135  0.00  0.00    +0.025 C 
ATOM      6  C   UNL     1      -0.772  -2.055   1.149  0.00  0.00    +0.073 C 
ATOM      7  C   UNL     1       0.025  -0.754   1.309  0.00  0.00    +0.153 C 
ATOM      8  C   UNL     1      -0.328  -4.136  -0.189  0.00  0.00    +0.162 C 
ATOM      9  O   UNL     1      -0.630  -4.777   0.798  0.00  0.00    -0.292 OA
ATOM     10  C   UNL     1       0.062  -4.859  -1.450  0.00  0.00    +0.088 C 
ATOM     11  C   UNL     1       1.026  -3.981  -2.254  0.00  0.00    +0.032 C 
ATOM     12  C   UNL     1       0.355  -2.631  -2.518  0.00  0.00    +0.064 C 
ENDROOT
BRANCH   6  13
ATOM     13  C   UNL     1      -2.247  -1.748   1.095  0.00  0.00    -0.035 A 
ATOM     14  C   UNL     1      -2.745  -0.928   0.100  0.00  0.00    +0.008 A 
ATOM     15  C   UNL     1      -4.096  -0.644   0.047  0.00  0.00    +0.049 A 
ATOM     16  C   UNL     1      -4.955  -1.182   0.991  0.00  0.00    +0.161 A 
ATOM     17  C   UNL     1      -4.454  -2.008   1.993  0.00  0.00    +0.159 A 
ATOM     18  C   UNL     1      -3.099  -2.293   2.038  0.00  0.00    +0.053 A 
BRANCH  17  19
ATOM     19  O   UNL     1      -5.293  -2.539   2.922  0.00  0.00    -0.503 OA
ATOM     20  H   UNL     1      -5.663  -3.397   2.673  0.00  0.00    +0.292 HD
ENDBRANCH  17  19
BRANCH  16  21
ATOM     21  O   UNL     1      -6.286  -0.903   0.940  0.00  0.00    -0.491 OA
ATOM     22  C   UNL     1      -6.729  -0.047  -0.115  0.00  0.00    +0.277 C 
ENDBRANCH  16  21
ENDBRANCH   6  13
BRANCH  11  23
ATOM     23  C   UNL     1       1.350  -4.653  -3.563  0.00  0.00    -0.040 A 
ATOM     24  C   UNL     1       0.338  -4.938  -4.461  0.00  0.00    +0.008 A 
ATOM     25  C   UNL     1       0.629  -5.554  -5.664  0.00  0.00    +0.049 A 
ATOM     26  C   UNL     1       1.939  -5.888  -5.971  0.00  0.00    +0.161 A 
ATOM     27  C   UNL     1       2.957  -5.601  -5.068  0.00  0.00    +0.162 A 
ATOM     28  C   UNL     1       2.659  -4.979  -3.866  0.00  0.00    +0.053 A 
BRANCH  27  29
ATOM     29  O   UNL     1       4.244  -5.927  -5.365  0.00  0.00    -0.491 OA
ATOM     30  C   UNL     1       5.237  -5.603  -4.391  0.00  0.00    +0.277 C 
ENDBRANCH  27  29
BRANCH  26  31
ATOM     31  O   UNL     1       2.227  -6.495  -7.154  0.00  0.00    -0.491 OA
ATOM     32  C   UNL     1       1.131  -6.759  -8.032  0.00  0.00    +0.277 C 
ENDBRANCH  26  31
ENDBRANCH  11  23
BRANCH   7  33
ATOM     33  C   UNL     1       1.449  -1.072   1.683  0.00  0.00    +0.316 C 
ATOM     34  O   UNL     1       1.796  -2.221   1.820  0.00  0.00    -0.250 OA
BRANCH  33  35
ATOM     35  O   UNL     1       2.333  -0.078   1.865  0.00  0.00    -0.467 OA
ATOM     36  C   UNL     1       3.667  -0.453   2.218  0.00  0.00    +0.280 C 
ENDBRANCH  33  35
ENDBRANCH   7  33
TORSDOF 8
