REMARK  Name = ZINC27289474
REMARK  8 active torsions:
REMARK  status: ('A' for Active; 'I' for Inactive)
REMARK    1  A    between atoms: C_1  and  C_2
REMARK    2  A    between atoms: C_15  and  C_17
REMARK    3  A    between atoms: C_17  and  N_18
REMARK    4  A    between atoms: N_18  and  C_19
REMARK    5  A    between atoms: N_18  and  C_20
REMARK    6  A    between atoms: C_20  and  C_21
REMARK    7  A    between atoms: C_24  and  C_27
REMARK    8  A    between atoms: N_29  and  C_30
REMARK                            x       y       z     vdW  Elec       q    Type
REMARK                         _______ _______ _______ _____ _____    ______ ____
ROOT
ATOM      1  C   UNL     1      -1.331   2.079   0.020  0.00  0.00    +0.019 C 
ENDROOT
BRANCH   1  15
ATOM      2  C   UNL     1       1.579  -1.262   1.382  0.00  0.00    +0.029 C 
ATOM      3  C   UNL     1       1.272  -0.732  -0.020  0.00  0.00    +0.087 C 
ATOM      4  C   UNL     1       1.185  -1.905  -0.992  0.00  0.00    +0.118 C 
ATOM      5  C   UNL     1       0.513  -1.468  -2.267  0.00  0.00    +0.219 C 
ATOM      6  O   UNL     1       1.177  -1.277  -3.264  0.00  0.00    -0.275 OA
ATOM      7  N   UNL     1      -0.825  -1.287  -2.308  0.00  0.00    -0.284 N 
ATOM      8  C   UNL     1      -1.593  -1.410  -1.144  0.00  0.00    +0.055 A 
ATOM      9  C   UNL     1      -2.756  -2.162  -1.137  0.00  0.00    +0.025 A 
ATOM     10  C   UNL     1      -3.529  -2.224   0.008  0.00  0.00    +0.002 A 
ATOM     11  C   UNL     1      -3.144  -1.538   1.145  0.00  0.00    +0.002 A 
ATOM     12  C   UNL     1      -1.978  -0.794   1.150  0.00  0.00    +0.025 A 
ATOM     13  C   UNL     1      -1.195  -0.734   0.009  0.00  0.00    +0.058 A 
ATOM     14  N   UNL     1       0.002  -0.004   0.002  0.00  0.00    -0.268 N 
ATOM     15  C   UNL     1      -0.016   1.344   0.009  0.00  0.00    +0.204 C 
ATOM     16  O   UNL     1       1.026   1.964   0.003  0.00  0.00    -0.277 OA
ATOM     17  H   UNL     1      -1.318  -1.042  -3.260  0.00  0.00    +0.155 HD
ENDBRANCH   1  15
BRANCH   1  18
ATOM     18  N   UNL     1      -1.083   3.527   0.026  0.00  0.00    +0.386 N 
ATOM     19  C   UNL     1      -0.451   3.958  -1.228  0.00  0.00    -0.095 C 
ATOM     20  H   UNL     1      -0.386   3.747   0.849  0.00  0.00    -0.081 HD
BRANCH  18  21
ATOM     21  C   UNL     1      -2.323   4.273   0.274  0.00  0.00    -0.043 C 
BRANCH  21  22
ATOM     22  C   UNL     1      -1.997   5.724   0.518  0.00  0.00    -0.064 A 
ATOM     23  C   UNL     1      -1.751   6.168   1.805  0.00  0.00    +0.002 A 
ATOM     24  C   UNL     1      -1.446   7.494   2.035  0.00  0.00    +0.013 A 
ATOM     25  C   UNL     1      -1.397   8.390   0.966  0.00  0.00    +0.037 A 
ATOM     26  C   UNL     1      -1.652   7.937  -0.329  0.00  0.00    +0.013 A 
ATOM     27  C   UNL     1      -1.950   6.608  -0.546  0.00  0.00    +0.002 A 
BRANCH  25  28
ATOM     28  C   UNL     1      -1.077   9.814   1.205  0.00  0.00    +0.244 C 
ATOM     29  O   UNL     1      -1.035  10.592   0.272  0.00  0.00    -0.270 OA
ATOM     30  N   UNL     1      -0.831  10.248   2.457  0.00  0.00    -0.308 N 
ATOM     31  H   UNL     1      -0.869   9.543   3.301  0.00  0.00    +0.149 HD
BRANCH  30  32
ATOM     32  C   UNL     1      -0.513  11.658   2.694  0.00  0.00    +0.073 C 
ATOM     33  C   UNL     1       0.634  11.972   3.656  0.00  0.00    +0.024 C 
ATOM     34  C   UNL     1      -0.813  12.226   4.083  0.00  0.00    +0.024 C 
ENDBRANCH  30  32
ENDBRANCH  25  28
ENDBRANCH  21  22
ENDBRANCH  18  21
ENDBRANCH   1  18
TORSDOF 6
