REMARK  Name = ZINC35966514
REMARK  11 active torsions:
REMARK  status: ('A' for Active; 'I' for Inactive)
REMARK    1  A    between atoms: C_1  and  C_2
REMARK    2  A    between atoms: C_2  and  N_3
REMARK    3  A    between atoms: C_6  and  C_11
REMARK    4  A    between atoms: C_16  and  C_17
REMARK    5  A    between atoms: N_23  and  C_25
REMARK    6  A    between atoms: C_25  and  C_27
REMARK    7  A    between atoms: C_25  and  C_30
REMARK    8  A    between atoms: C_27  and  C_28
REMARK    9  A    between atoms: C_27  and  C_29
REMARK   10  A    between atoms: N_32  and  C_33
REMARK   11  A    between atoms: C_33  and  C_34
REMARK                            x       y       z     vdW  Elec       q    Type
REMARK                         _______ _______ _______ _____ _____    ______ ____
ROOT
ATOM      1  N   UNL     1       0.973   0.981  -0.886  0.00  0.00    -0.257 N 
ATOM      2  C   UNL     1       2.170   0.461  -0.484  0.00  0.00    +0.042 C 
ATOM      3  C   UNL     1       2.282  -0.224   0.671  0.00  0.00    +0.058 C 
ATOM      4  C   UNL     1       1.032  -0.399   1.510  0.00  0.00    +0.142 C 
ATOM      5  N   UNL     1      -0.209   0.200   0.990  0.00  0.00    -0.288 N 
ATOM      6  C   UNL     1      -0.160   0.862  -0.183  0.00  0.00    +0.307 C 
ATOM      7  O   UNL     1      -1.179   1.363  -0.618  0.00  0.00    -0.252 OA
ATOM      8  C   UNL     1       3.611  -0.655   0.860  0.00  0.00    +0.247 C 
ATOM      9  O   UNL     1       3.997  -1.297   1.820  0.00  0.00    -0.270 OA
ATOM     10  N   UNL     1       4.397  -0.266  -0.160  0.00  0.00    -0.280 N 
ATOM     11  C   UNL     1       3.550   0.478  -1.104  0.00  0.00    +0.160 C 
ATOM     12  H   UNL     1      -1.042   0.122   1.482  0.00  0.00    +0.151 HD
ENDROOT
BRANCH   4  13
ATOM     13  C   UNL     1       0.795  -1.876   1.690  0.00  0.00    -0.011 A 
ATOM     14  C   UNL     1       0.412  -2.651   0.611  0.00  0.00    +0.006 A 
ATOM     15  C   UNL     1       0.195  -4.006   0.776  0.00  0.00    +0.000 A 
ATOM     16  C   UNL     1       0.361  -4.586   2.020  0.00  0.00    +0.001 A 
ATOM     17  C   UNL     1       0.745  -3.812   3.099  0.00  0.00    +0.013 A 
ATOM     18  C   UNL     1       0.966  -2.457   2.933  0.00  0.00    +0.060 A 
BRANCH  18  19
ATOM     19  C   UNL     1       1.389  -1.613   4.107  0.00  0.00    +0.418 C 
ATOM     20  F   UNL     1       1.581  -2.433   5.225  0.00  0.00    -0.166 F 
ATOM     21  F   UNL     1       2.585  -0.955   3.802  0.00  0.00    -0.166 F 
ATOM     22  F   UNL     1       0.395  -0.669   4.386  0.00  0.00    -0.166 F 
ENDBRANCH  18  19
ENDBRANCH   4  13
BRANCH   1  24
ATOM     23  C   UNL     1       1.216   3.195  -1.897  0.00  0.00    +0.025 C 
ATOM     24  C   UNL     1       0.927   1.715  -2.154  0.00  0.00    +0.111 C 
ENDBRANCH   1  24
BRANCH  10  25
ATOM     25  C   UNL     1       5.830  -0.533  -0.304  0.00  0.00    +0.165 C 
BRANCH  25  26
ATOM     26  C   UNL     1       6.573   0.070   0.861  0.00  0.00    +0.234 C 
ATOM     27  O   UNL     1       5.961   0.467   1.830  0.00  0.00    -0.274 OA
ATOM     28  N   UNL     1       7.916   0.169   0.825  0.00  0.00    -0.307 N 
ATOM     29  H   UNL     1       8.401  -0.100   0.029  0.00  0.00    +0.149 HD
BRANCH  28  30
ATOM     30  C   UNL     1       8.644   0.682   1.989  0.00  0.00    +0.178 C 
BRANCH  30  31
ATOM     31  C   UNL     1      10.122   0.691   1.693  0.00  0.00    +0.122 A 
ATOM     32  C   UNL     1      10.809   1.711   1.150  0.00  0.00    +0.046 A 
ATOM     33  C   UNL     1      12.156   1.291   1.051  0.00  0.00    +0.041 A 
ATOM     34  C   UNL     1      12.210   0.039   1.540  0.00  0.00    +0.195 A 
ATOM     35  O   UNL     1      10.977  -0.317   1.933  0.00  0.00    -0.466 OA
ENDBRANCH  30  31
ENDBRANCH  28  30
ENDBRANCH  25  26
BRANCH  25  36
ATOM     36  C   UNL     1       6.067  -2.044  -0.332  0.00  0.00    +0.012 C 
ATOM     37  C   UNL     1       5.206  -2.675  -1.427  0.00  0.00    +0.009 C 
ATOM     38  C   UNL     1       7.544  -2.324  -0.619  0.00  0.00    +0.009 C 
ENDBRANCH  25  36
ENDBRANCH  10  25
TORSDOF 8
