REMARK  Name = ZINC64449837
REMARK  4 active torsions:
REMARK  status: ('A' for Active; 'I' for Inactive)
REMARK    1  A    between atoms: C_1  and  C_2
REMARK    2  A    between atoms: C_5  and  N_9
REMARK    3  A    between atoms: N_9  and  C_10
REMARK    4  A    between atoms: C_17  and  C_19
REMARK                            x       y       z     vdW  Elec       q    Type
REMARK                         _______ _______ _______ _____ _____    ______ ____
ROOT
ATOM      1  C   UNL     1       0.133  -4.790   1.206  0.00  0.00    +0.133 A 
ATOM      2  C   UNL     1       0.241  -6.165   1.294  0.00  0.00    +0.014 A 
ATOM      3  C   UNL     1       0.316  -6.761   2.550  0.00  0.00    +0.052 A 
ATOM      4  N   UNL     1       0.283  -6.016   3.638  0.00  0.00    -0.215 NA
ATOM      5  C   UNL     1       0.178  -4.685   3.570  0.00  0.00    +0.255 A 
ATOM      6  N   UNL     1       0.107  -4.058   2.358  0.00  0.00    -0.182 N 
ATOM      7  N   UNL     1       0.012  -2.687   2.626  0.00  0.00    -0.147 NA
ATOM      8  C   UNL     1       0.034  -2.547   3.929  0.00  0.00    +0.151 A 
ATOM      9  N   UNL     1       0.127  -3.741   4.503  0.00  0.00    -0.194 NA
ATOM     10  C   UNL     1      -0.044  -1.234   4.663  0.00  0.00    +0.090 C 
ATOM     11  C   UNL     1       0.429  -8.262   2.389  0.00  0.00    +0.056 C 
ATOM     12  C   UNL     1      -0.024  -8.551   0.942  0.00  0.00    +0.011 C 
ATOM     13  C   UNL     1       0.298  -7.226   0.219  0.00  0.00    +0.041 C 
ENDROOT
BRANCH   1  14
ATOM     14  N   UNL     1       0.057  -4.169  -0.022  0.00  0.00    -0.299 N 
ATOM     15  H   UNL     1       0.767  -4.292  -0.672  0.00  0.00    +0.154 HD
BRANCH  14  20
ATOM     16  C   UNL     1      -4.404  -0.899  -1.280  0.00  0.00    +0.045 C 
ATOM     17  C   UNL     1      -3.219  -1.768  -0.946  0.00  0.00    -0.032 A 
ATOM     18  C   UNL     1      -2.140  -1.827  -1.810  0.00  0.00    +0.006 A 
ATOM     19  C   UNL     1      -1.053  -2.622  -1.506  0.00  0.00    +0.023 A 
ATOM     20  C   UNL     1      -1.042  -3.363  -0.331  0.00  0.00    +0.034 A 
ATOM     21  C   UNL     1      -2.126  -3.302   0.535  0.00  0.00    +0.043 A 
ATOM     22  C   UNL     1      -3.209  -2.500   0.228  0.00  0.00    +0.046 A 
ATOM     23 CL   UNL     1      -4.561  -2.417   1.313  0.00  0.00    -0.083 Cl
ENDBRANCH  14  20
ENDBRANCH   1  14
TORSDOF 2
