REMARK  Name = ZINC39445830
REMARK  6 active torsions:
REMARK  status: ('A' for Active; 'I' for Inactive)
REMARK    1  A    between atoms: C_1  and  C_2
REMARK    2  A    between atoms: C_2  and  C_3
REMARK    3  A    between atoms: C_2  and  C_4
REMARK    4  A    between atoms: C_4  and  C_5
REMARK    5  A    between atoms: C_5  and  C_6
REMARK    6  A    between atoms: C_14  and  C_16
REMARK                            x       y       z     vdW  Elec       q    Type
REMARK                         _______ _______ _______ _____ _____    ______ ____
ROOT
ATOM      1  C   UNL     1      -2.851  -2.587  -0.110  0.00  0.00    +0.157 C 
ATOM      2  C   UNL     1      -2.866  -4.092  -0.183  0.00  0.00    -0.004 C 
ATOM      3  C   UNL     1      -3.512  -4.378  -1.318  0.00  0.00    +0.067 C 
ATOM      4  C   UNL     1      -3.767  -5.790  -1.796  0.00  0.00    +0.076 C 
ATOM      5  C   UNL     1      -2.808  -6.742  -1.072  0.00  0.00    +0.114 C 
ATOM      6  N   UNL     1      -2.796  -6.423   0.364  0.00  0.00    -0.297 N 
ATOM      7  C   UNL     1      -2.294  -5.097   0.775  0.00  0.00    +0.142 C 
ATOM      8  C   UNL     1      -3.231  -7.315   1.277  0.00  0.00    +0.217 C 
ATOM      9  O   UNL     1      -3.214  -7.032   2.456  0.00  0.00    -0.276 OA
ATOM     10  N   UNL     1      -3.884  -3.234  -1.936  0.00  0.00    -0.158 NA
ATOM     11  N   UNL     1      -3.563  -2.195  -1.342  0.00  0.00    -0.180 NA
ENDROOT
BRANCH   8  12
ATOM     12  C   UNL     1      -3.739  -8.662   0.832  0.00  0.00    +0.105 C 
ATOM     13  N   UNL     1      -2.604  -9.577   0.522  0.00  0.00    -0.263 NA
ATOM     14  N   UNL     1      -2.996 -10.913   0.997  0.00  0.00    -0.271 NA
ATOM     15  C   UNL     1      -4.370 -10.769   1.487  0.00  0.00    +0.018 C 
ATOM     16  N   UNL     1      -4.431  -9.348   1.936  0.00  0.00    +0.408 N 
ATOM     17  C   UNL     1      -5.833  -8.998   2.112  0.00  0.00    -0.074 C 
ATOM     18  C   UNL     1      -6.372  -9.815   3.297  0.00  0.00    -0.018 C 
ATOM     19  C   UNL     1      -6.199 -11.313   3.049  0.00  0.00    -0.002 C 
ATOM     20  C   UNL     1      -4.739 -11.651   2.669  0.00  0.00    +0.001 C 
ATOM     21  H   UNL     1      -2.408  -9.588  -0.468  0.00  0.00    +0.139 HD
ATOM     22  H   UNL     1      -2.948 -11.590   0.251  0.00  0.00    +0.139 HD
ATOM     23  H   UNL     1      -3.919  -9.230   2.797  0.00  0.00    -0.076 HD
ENDBRANCH   8  12
BRANCH   1  24
ATOM     24  C   UNL     1      -1.416  -2.058  -0.121  0.00  0.00    +0.033 C 
BRANCH  24  25
ATOM     25  C   UNL     1      -1.433  -0.534   0.013  0.00  0.00    +0.005 C 
BRANCH  25  27
ATOM     26  C   UNL     1      -0.019   1.526   0.010  0.00  0.00    +0.007 C 
ATOM     27  C   UNL     1       0.002  -0.004   0.002  0.00  0.00    -0.017 C 
ATOM     28  C   UNL     1       0.742  -0.511   1.242  0.00  0.00    +0.007 C 
ENDBRANCH  25  27
ENDBRANCH  24  25
ENDBRANCH   1  24
TORSDOF 4
