REMARK  Name = ZINC14642918
REMARK  12 active torsions:
REMARK  status: ('A' for Active; 'I' for Inactive)
REMARK    1  A    between atoms: C_1  and  C_2
REMARK    2  A    between atoms: C_6  and  C_34
REMARK    3  A    between atoms: C_7  and  O_8
REMARK    4  A    between atoms: O_8  and  C_9
REMARK    5  A    between atoms: C_9  and  C_11
REMARK    6  A    between atoms: C_9  and  C_12
REMARK    7  A    between atoms: C_20  and  C_22
REMARK    8  A    between atoms: C_22  and  C_23
REMARK    9  A    between atoms: C_23  and  O_25
REMARK   10  A    between atoms: O_25  and  C_26
REMARK   11  A    between atoms: C_26  and  C_27
REMARK   12  A    between atoms: C_27  and  C_28
REMARK                            x       y       z     vdW  Elec       q    Type
REMARK                         _______ _______ _______ _____ _____    ______ ____
ROOT
ATOM      1  C   UNL     1      -0.214  -0.934   2.182  0.00  0.00    +0.257 C 
ATOM      2  O   UNL     1       0.767  -0.925   2.894  0.00  0.00    -0.272 OA
ATOM      3  N   UNL     1      -0.092  -0.689   0.862  0.00  0.00    -0.285 N 
ATOM      4  C   UNL     1      -1.248  -0.783  -0.045  0.00  0.00    +0.127 C 
ATOM      5  C   UNL     1      -1.478   0.594  -0.670  0.00  0.00    +0.123 C 
ATOM      6  N   UNL     1      -0.224   1.161  -1.148  0.00  0.00    -0.312 N 
ATOM      7  C   UNL     1       0.984   0.800  -0.714  0.00  0.00    +0.234 C 
ATOM      8  O   UNL     1       1.952   1.400  -1.131  0.00  0.00    -0.274 OA
ATOM      9  C   UNL     1       1.202  -0.317   0.270  0.00  0.00    +0.173 C 
ATOM     10  H   UNL     1      -0.271   1.849  -1.830  0.00  0.00    +0.149 HD
ENDROOT
BRANCH   1  11
ATOM     11  C   UNL     1      -1.571  -1.220   2.772  0.00  0.00    +0.256 C 
ATOM     12  C   UNL     1      -2.004  -2.637   2.393  0.00  0.00    +0.062 C 
BRANCH  11  13
ATOM     13  O   UNL     1      -1.504  -1.107   4.195  0.00  0.00    -0.479 OA
BRANCH  13  20
ATOM     14  C   UNL     1      -2.236   1.619   4.296  0.00  0.00    +0.047 C 
ATOM     15  C   UNL     1      -3.067   0.532   4.926  0.00  0.00    -0.007 A 
ATOM     16  C   UNL     1      -4.241   0.850   5.580  0.00  0.00    +0.022 A 
ATOM     17  C   UNL     1      -5.002  -0.148   6.163  0.00  0.00    +0.019 A 
ATOM     18  C   UNL     1      -4.591  -1.467   6.088  0.00  0.00    +0.022 A 
ATOM     19  C   UNL     1      -3.420  -1.790   5.429  0.00  0.00    -0.007 A 
ATOM     20  C   UNL     1      -2.656  -0.791   4.844  0.00  0.00    +0.127 A 
ATOM     21  C   UNL     1      -2.974  -3.227   5.347  0.00  0.00    +0.047 C 
ATOM     22 BR   UNL     1      -6.605   0.292   7.064  0.00  0.00    -0.050 Br
ENDBRANCH  13  20
ENDBRANCH  11  13
ENDBRANCH   1  11
BRANCH   9  23
ATOM     23  C   UNL     1       2.156   0.146   1.373  0.00  0.00    +0.152 C 
BRANCH  23  24
ATOM     24  C   UNL     1       2.804  -1.054   2.014  0.00  0.00    +0.309 C 
ATOM     25  O   UNL     1       2.614  -2.158   1.559  0.00  0.00    -0.251 OA
BRANCH  24  26
ATOM     26  O   UNL     1       3.591  -0.897   3.090  0.00  0.00    -0.464 OA
BRANCH  26  27
ATOM     27  C   UNL     1       4.181  -2.097   3.655  0.00  0.00    +0.237 C 
BRANCH  27  28
ATOM     28  C   UNL     1       5.039  -1.722   4.865  0.00  0.00    +0.076 C 
BRANCH  28  29
ATOM     29  C   UNL     1       5.652  -2.968   5.452  0.00  0.00    -0.044 A 
ATOM     30  C   UNL     1       4.984  -3.667   6.440  0.00  0.00    +0.004 A 
ATOM     31  C   UNL     1       5.544  -4.812   6.974  0.00  0.00    +0.000 A 
ATOM     32  C   UNL     1       6.777  -5.253   6.529  0.00  0.00    +0.000 A 
ATOM     33  C   UNL     1       7.447  -4.550   5.544  0.00  0.00    +0.000 A 
ATOM     34  C   UNL     1       6.884  -3.408   5.006  0.00  0.00    +0.004 A 
ENDBRANCH  28  29
ENDBRANCH  27  28
ENDBRANCH  26  27
ENDBRANCH  24  26
ENDBRANCH  23  24
ENDBRANCH   9  23
TORSDOF 9
