REMARK  Name = ZINC15133483
REMARK  8 active torsions:
REMARK  status: ('A' for Active; 'I' for Inactive)
REMARK    1  A    between atoms: C_1  and  C_2
REMARK    2  A    between atoms: C_2  and  O_3
REMARK    3  A    between atoms: O_3  and  C_4
REMARK    4  A    between atoms: C_4  and  C_6
REMARK    5  A    between atoms: C_6  and  C_31
REMARK    6  A    between atoms: C_11  and  C_28
REMARK    7  A    between atoms: C_14  and  C_25
REMARK    8  A    between atoms: C_16  and  C_18
REMARK                            x       y       z     vdW  Elec       q    Type
REMARK                         _______ _______ _______ _____ _____    ______ ____
ROOT
ATOM      1  C   UNL     1       2.555   5.852   1.264  0.00  0.00    +0.184 C 
ATOM      2  C   UNL     1       3.406   7.041   0.788  0.00  0.00    +0.128 C 
ATOM      3  C   UNL     1       4.830   6.912   1.265  0.00  0.00    -0.002 C 
ATOM      4  C   UNL     1       5.816   7.340   0.481  0.00  0.00    +0.012 C 
ATOM      5  C   UNL     1       5.539   7.942  -0.840  0.00  0.00    +0.050 C 
ATOM      6  C   UNL     1       4.314   7.728  -1.428  0.00  0.00    +0.084 C 
ATOM      7  N   UNL     1       3.435   6.990  -0.688  0.00  0.00    -0.314 N 
ATOM      8  C   UNL     1       2.452   6.003  -1.139  0.00  0.00    +0.169 C 
ATOM      9  C   UNL     1       2.437   4.952   0.005  0.00  0.00    +0.081 C 
ENDROOT
BRANCH   9  10
ATOM     10  C   UNL     1       1.143   4.181   0.013  0.00  0.00    -0.039 A 
ATOM     11  C   UNL     1      -0.064   4.855   0.028  0.00  0.00    +0.004 A 
ATOM     12  C   UNL     1      -1.251   4.148   0.035  0.00  0.00    +0.001 A 
ATOM     13  C   UNL     1      -1.233   2.766   0.023  0.00  0.00    +0.014 A 
ATOM     14  C   UNL     1      -0.026   2.091   0.013  0.00  0.00    +0.014 A 
ATOM     15  C   UNL     1       1.162   2.799   0.006  0.00  0.00    +0.018 A 
ATOM     16  I   UNL     1       0.002  -0.004   0.002  0.00  0.00    -0.044 I 
ENDBRANCH   9  10
BRANCH   8  17
ATOM     17  C   UNL     1       2.891   5.370  -2.434  0.00  0.00    +0.232 C 
ATOM     18  O   UNL     1       4.034   5.505  -2.817  0.00  0.00    -0.274 OA
ATOM     19  N   UNL     1       2.015   4.654  -3.166  0.00  0.00    -0.328 N 
ATOM     20  H   UNL     1       1.101   4.546  -2.859  0.00  0.00    +0.145 HD
ATOM     21  H   UNL     1       2.298   4.247  -4.000  0.00  0.00    +0.145 HD
ENDBRANCH   8  17
BRANCH   5  22
ATOM     22  C   UNL     1       6.556   8.757  -1.514  0.00  0.00    +0.243 C 
ATOM     23  O   UNL     1       6.318   9.249  -2.601  0.00  0.00    -0.270 OA
ATOM     24  N   UNL     1       7.753   8.960  -0.929  0.00  0.00    -0.325 N 
ATOM     25  H   UNL     1       7.942   8.568  -0.062  0.00  0.00    +0.145 HD
ATOM     26  H   UNL     1       8.425   9.499  -1.374  0.00  0.00    +0.145 HD
ENDBRANCH   5  22
BRANCH   1  27
ATOM     27  C   UNL     1       3.249   5.114   2.380  0.00  0.00    +0.330 C 
ATOM     28  O   UNL     1       3.623   3.978   2.211  0.00  0.00    -0.249 OA
BRANCH  27  29
ATOM     29  O   UNL     1       3.451   5.719   3.561  0.00  0.00    -0.464 OA
BRANCH  29  31
ATOM     30  C   UNL     1       4.265   5.797   5.854  0.00  0.00    +0.048 C 
ATOM     31  C   UNL     1       4.126   4.948   4.589  0.00  0.00    +0.229 C 
ENDBRANCH  29  31
ENDBRANCH  27  29
ENDBRANCH   1  27
BRANCH   1  32
ATOM     32  C   UNL     1       1.225   6.310   1.698  0.00  0.00    +0.084 C 
ATOM     33  N   UNL     1       0.198   6.663   2.033  0.00  0.00    -0.195 NA
ENDBRANCH   1  32
TORSDOF 7
