REMARK  Name = ZINC15858243
REMARK  3 active torsions:
REMARK  status: ('A' for Active; 'I' for Inactive)
REMARK    1  A    between atoms: C_3  and  C_6
REMARK    2  A    between atoms: C_14  and  C_16
REMARK    3  A    between atoms: C_19  and  N_23
REMARK                            x       y       z     vdW  Elec       q    Type
REMARK                         _______ _______ _______ _____ _____    ______ ____
ROOT
ATOM      1  C   UNL     1      -7.040   1.244   0.873  0.00  0.00    +0.282 C 
ATOM      2  O   UNL     1      -7.041   0.032   0.975  0.00  0.00    -0.267 OA
ATOM      3  N   UNL     1      -5.880   1.926   0.948  0.00  0.00    -0.292 N 
ATOM      4  C   UNL     1      -5.874   3.396   0.944  0.00  0.00    +0.127 C 
ATOM      5  C   UNL     1      -4.966   3.879  -0.194  0.00  0.00    +0.127 C 
ATOM      6  N   UNL     1      -3.684   3.166  -0.107  0.00  0.00    -0.294 N 
ATOM      7  C   UNL     1      -3.689   1.696  -0.108  0.00  0.00    +0.127 C 
ATOM      8  C   UNL     1      -4.597   1.213   1.035  0.00  0.00    +0.127 C 
ATOM      9  C   UNL     1      -2.524   3.848  -0.033  0.00  0.00    +0.248 C 
ATOM     10  O   UNL     1      -2.536   5.059   0.069  0.00  0.00    -0.270 OA
ENDROOT
BRANCH   9  11
ATOM     11  C   UNL     1      -1.239   3.124  -0.075  0.00  0.00    +0.055 A 
ATOM     12  C   UNL     1      -0.963   2.247  -1.128  0.00  0.00    +0.016 A 
ATOM     13  C   UNL     1       0.234   1.569  -1.162  0.00  0.00    +0.026 A 
ATOM     14  C   UNL     1       1.175   1.763  -0.155  0.00  0.00    +0.061 A 
ATOM     15  C   UNL     1       0.907   2.639   0.892  0.00  0.00    +0.046 A 
ATOM     16  C   UNL     1      -0.292   3.317   0.935  0.00  0.00    +0.055 A 
ATOM     17 CL   UNL     1      -0.625   4.411   2.242  0.00  0.00    -0.083 Cl
BRANCH  14  18
ATOM     18  N   UNL     1       2.389   1.078  -0.196  0.00  0.00    -0.144 N 
ATOM     19  C   UNL     1       2.614  -0.092  -0.811  0.00  0.00    +0.240 C 
ATOM     20  O   UNL     1       1.732  -0.646  -1.432  0.00  0.00    -0.274 OA
ATOM     21  C   UNL     1       3.982  -0.697  -0.718  0.00  0.00    +0.122 C 
ATOM     22  C   UNL     1       4.989   0.409  -0.302  0.00  0.00    +0.198 C 
ATOM     23  S   UNL     1       3.821   1.568   0.520  0.00  0.00    +0.052 S 
ATOM     24  O   UNL     1       4.035   2.902   0.080  0.00  0.00    -0.155 OA
ATOM     25  O   UNL     1       3.686   1.258   1.901  0.00  0.00    -0.155 OA
ENDBRANCH  14  18
ENDBRANCH   9  11
BRANCH   1  28
ATOM     26  C   UNL     1     -10.441   2.449   0.316  0.00  0.00    +0.042 A 
ATOM     27  C   UNL     1      -9.525   1.395   0.460  0.00  0.00    +0.054 A 
ATOM     28  C   UNL     1      -8.301   1.964   0.669  0.00  0.00    +0.189 A 
ATOM     29  O   UNL     1      -8.457   3.304   0.659  0.00  0.00    -0.458 OA
ATOM     30  C   UNL     1      -9.745   3.600   0.442  0.00  0.00    +0.196 A 
ENDBRANCH   1  28
TORSDOF 3
