REMARK  Name = ZINC12883387
REMARK  5 active torsions:
REMARK  status: ('A' for Active; 'I' for Inactive)
REMARK    1  A    between atoms: C_2  and  C_3
REMARK    2  A    between atoms: C_3  and  N_4
REMARK    3  A    between atoms: C_5  and  C_7
REMARK    4  A    between atoms: C_12  and  N_13
REMARK    5  A    between atoms: C_29  and  C_34
REMARK                            x       y       z     vdW  Elec       q    Type
REMARK                         _______ _______ _______ _____ _____    ______ ____
ROOT
ATOM      1  N   UNL     1       1.262  -2.076  -0.021  0.00  0.00    -0.192 N 
ATOM      2  C   UNL     1       1.291  -2.839   1.091  0.00  0.00    +0.248 C 
ATOM      3  O   UNL     1       1.308  -2.455   2.241  0.00  0.00    -0.273 OA
ATOM      4  C   UNL     1       1.295  -4.275   0.608  0.00  0.00    +0.170 C 
ATOM      5  C   UNL     1       2.595  -4.962   1.045  0.00  0.00    +0.069 C 
ATOM      6  C   UNL     1       2.907  -6.092   0.097  0.00  0.00    -0.015 A 
ATOM      7  C   UNL     1       3.793  -7.218   0.328  0.00  0.00    +0.003 A 
ATOM      8  C   UNL     1       4.572  -7.598   1.426  0.00  0.00    +0.010 A 
ATOM      9  C   UNL     1       5.308  -8.749   1.294  0.00  0.00    +0.001 A 
ATOM     10  C   UNL     1       5.289  -9.507   0.135  0.00  0.00    +0.002 A 
ATOM     11  C   UNL     1       4.527  -9.154  -0.966  0.00  0.00    +0.026 A 
ATOM     12  C   UNL     1       3.768  -7.990  -0.861  0.00  0.00    +0.047 A 
ATOM     13  N   UNL     1       2.924  -7.366  -1.732  0.00  0.00    -0.356 N 
ATOM     14  H   UNL     1       2.717  -7.675  -2.628  0.00  0.00    +0.166 HD
ATOM     15  C   UNL     1       2.413  -6.237  -1.151  0.00  0.00    +0.046 A 
ATOM     16  C   UNL     1       1.433  -5.268  -1.783  0.00  0.00    +0.155 C 
ATOM     17  N   UNL     1       1.329  -4.129  -0.864  0.00  0.00    -0.260 N 
ATOM     18  C   UNL     1       1.263  -2.824  -1.134  0.00  0.00    +0.317 C 
ATOM     19  O   UNL     1       1.214  -2.365  -2.258  0.00  0.00    -0.252 OA
ENDROOT
BRANCH   1  25
ATOM     20  C   UNL     1       0.002  -0.004   0.002  0.00  0.00    +0.059 A 
ATOM     21  C   UNL     1      -0.017   1.392   0.010  0.00  0.00    +0.015 A 
ATOM     22  C   UNL     1       1.168   2.096   0.002  0.00  0.00    +0.001 A 
ATOM     23  C   UNL     1       2.380   1.425  -0.013  0.00  0.00    +0.002 A 
ATOM     24  C   UNL     1       2.414   0.044  -0.021  0.00  0.00    +0.025 A 
ATOM     25  C   UNL     1       1.230  -0.680  -0.013  0.00  0.00    +0.058 A 
BRANCH  20  27
ATOM     26  N   UNL     1      -2.442  -0.110   0.026  0.00  0.00    -0.308 N 
ATOM     27  C   UNL     1      -1.263  -0.763   0.011  0.00  0.00    +0.246 C 
ATOM     28  O   UNL     1      -1.243  -1.979   0.004  0.00  0.00    -0.270 OA
ATOM     29  H   UNL     1      -2.458   0.860   0.031  0.00  0.00    +0.149 HD
BRANCH  26  30
ATOM     30  C   UNL     1      -3.698  -0.864   0.034  0.00  0.00    +0.131 C 
BRANCH  30  32
ATOM     31  C   UNL     1      -5.788   0.017  -0.870  0.00  0.00    +0.005 C 
ATOM     32  C   UNL     1      -4.859   0.096   0.051  0.00  0.00    -0.016 C 
ENDBRANCH  30  32
ENDBRANCH  26  30
ENDBRANCH  20  27
ENDBRANCH   1  25
BRANCH  16  33
ATOM     33  C   UNL     1       1.948  -4.808  -3.122  0.00  0.00    -0.021 A 
ATOM     34  C   UNL     1       2.949  -3.856  -3.187  0.00  0.00    +0.006 A 
ATOM     35  C   UNL     1       3.425  -3.437  -4.415  0.00  0.00    +0.000 A 
ATOM     36  C   UNL     1       2.894  -3.962  -5.579  0.00  0.00    +0.000 A 
ATOM     37  C   UNL     1       1.890  -4.910  -5.514  0.00  0.00    +0.000 A 
ATOM     38  C   UNL     1       1.417  -5.333  -4.285  0.00  0.00    +0.006 A 
ENDBRANCH  16  33
TORSDOF 5
