REMARK  Name = ZINC05032975
REMARK  6 active torsions:
REMARK  status: ('A' for Active; 'I' for Inactive)
REMARK    1  A    between atoms: C_4  and  C_7
REMARK    2  A    between atoms: C_7  and  O_8
REMARK    3  A    between atoms: O_8  and  C_9
REMARK    4  A    between atoms: C_9  and  C_11
REMARK    5  A    between atoms: C_11  and  N_12
REMARK    6  A    between atoms: N_21  and  C_22
REMARK                            x       y       z     vdW  Elec       q    Type
REMARK                         _______ _______ _______ _____ _____    ______ ____
ROOT
ATOM      1  N   UNL     1      -2.491  -4.229  -1.652  0.00  0.00    -0.286 N 
ATOM      2  C   UNL     1      -1.215  -3.829  -1.882  0.00  0.00    +0.205 A 
ATOM      3  N   UNL     1      -0.721  -2.728  -1.394  0.00  0.00    -0.216 NA
ATOM      4  C   UNL     1      -1.448  -1.907  -0.623  0.00  0.00    +0.190 A 
ATOM      5  C   UNL     1      -2.777  -2.234  -0.329  0.00  0.00    +0.196 A 
ATOM      6  C   UNL     1      -3.315  -3.477  -0.886  0.00  0.00    +0.284 A 
ATOM      7  O   UNL     1      -4.463  -3.822  -0.669  0.00  0.00    -0.265 OA
ATOM      8  N   UNL     1      -3.281  -1.266   0.450  0.00  0.00    -0.122 NA
ATOM      9  N   UNL     1      -2.386  -0.367   0.672  0.00  0.00    -0.058 NA
ATOM     10  N   UNL     1      -1.201  -0.723   0.009  0.00  0.00    -0.194 N 
ENDROOT
BRANCH  10  11
ATOM     11  C   UNL     1       0.002  -0.004   0.002  0.00  0.00    +0.071 A 
ATOM     12  C   UNL     1      -0.017   1.385   0.010  0.00  0.00    +0.028 A 
ATOM     13  C   UNL     1       1.170   2.090   0.002  0.00  0.00    +0.003 A 
ATOM     14  C   UNL     1       2.377   1.416  -0.013  0.00  0.00    +0.020 A 
ATOM     15  C   UNL     1       2.400   0.033  -0.021  0.00  0.00    +0.043 A 
ATOM     16  C   UNL     1       1.215  -0.679  -0.013  0.00  0.00    +0.048 A 
ATOM     17 CL   UNL     1       3.918  -0.810  -0.040  0.00  0.00    -0.083 Cl
ENDBRANCH  10  11
BRANCH   1  18
ATOM     18  C   UNL     1      -2.978  -5.481  -2.235  0.00  0.00    +0.246 C 
BRANCH  18  19
ATOM     19  C   UNL     1      -2.715  -6.616  -1.278  0.00  0.00    +0.328 C 
ATOM     20  O   UNL     1      -2.176  -6.400  -0.219  0.00  0.00    -0.249 OA
BRANCH  19  21
ATOM     21  O   UNL     1      -3.080  -7.866  -1.604  0.00  0.00    -0.459 OA
BRANCH  21  22
ATOM     22  C   UNL     1      -2.796  -8.909  -0.635  0.00  0.00    +0.267 C 
BRANCH  22  26
ATOM     23  C   UNL     1      -4.147 -12.668  -2.150  0.00  0.00    +0.000 A 
ATOM     24  C   UNL     1      -2.859 -12.239  -2.412  0.00  0.00    +0.000 A 
ATOM     25  C   UNL     1      -2.422 -11.023  -1.922  0.00  0.00    +0.007 A 
ATOM     26  C   UNL     1      -3.273 -10.235  -1.169  0.00  0.00    -0.010 A 
ATOM     27  C   UNL     1      -4.559 -10.666  -0.903  0.00  0.00    +0.007 A 
ATOM     28  C   UNL     1      -4.998 -11.880  -1.397  0.00  0.00    +0.000 A 
ENDBRANCH  22  26
ENDBRANCH  21  22
ENDBRANCH  19  21
ENDBRANCH  18  19
ENDBRANCH   1  18
TORSDOF 6
