REMARK  Name = ZINC38789945
REMARK  11 active torsions:
REMARK  status: ('A' for Active; 'I' for Inactive)
REMARK    1  A    between atoms: C_1  and  O_2
REMARK    2  A    between atoms: O_2  and  C_3
REMARK    3  A    between atoms: C_9  and  C_19
REMARK    4  A    between atoms: C_13  and  O_17
REMARK    5  A    between atoms: C_14  and  O_15
REMARK    6  A    between atoms: O_15  and  C_16
REMARK    7  A    between atoms: O_17  and  C_18
REMARK    8  A    between atoms: C_19  and  N_20
REMARK    9  A    between atoms: N_20  and  C_21
REMARK   10  A    between atoms: C_24  and  N_27
REMARK   11  A    between atoms: C_31  and  O_34
REMARK                            x       y       z     vdW  Elec       q    Type
REMARK                         _______ _______ _______ _____ _____    ______ ____
ROOT
ATOM      1  C   UNL     1      -1.204  -0.576   0.016  0.00  0.00    +0.167 A 
ATOM      2  C   UNL     1      -2.365   0.173   0.016  0.00  0.00    +0.073 A 
ATOM      3  C   UNL     1      -3.614  -0.452   0.028  0.00  0.00    +0.048 A 
ATOM      4  N   UNL     1      -4.729   0.288   0.029  0.00  0.00    -0.284 N 
ATOM      5  C   UNL     1      -5.940  -0.236   0.041  0.00  0.00    +0.226 C 
ATOM      6  O   UNL     1      -6.919   0.487   0.041  0.00  0.00    -0.275 OA
ATOM      7  C   UNL     1      -6.106  -1.739   0.053  0.00  0.00    +0.116 C 
ATOM      8  C   UNL     1      -4.846  -2.581   0.051  0.00  0.00    +0.001 C 
ATOM      9  C   UNL     1      -3.657  -1.927   0.040  0.00  0.00    +0.039 A 
ATOM     10  C   UNL     1      -2.391  -2.672   0.039  0.00  0.00    +0.174 A 
ATOM     11  C   UNL     1      -1.216  -1.976   0.021  0.00  0.00    +0.204 A 
ATOM     12  H   UNL     1      -4.643   1.254   0.021  0.00  0.00    +0.155 HD
ENDROOT
BRANCH   1  14
ATOM     13  C   UNL     1      -0.045   1.496  -0.001  0.00  0.00    +0.277 C 
ATOM     14  O   UNL     1      -0.011   0.068   0.005  0.00  0.00    -0.491 OA
ENDBRANCH   1  14
BRANCH  11  15
ATOM     15  O   UNL     1      -0.036  -2.655   0.015  0.00  0.00    -0.488 OA
ATOM     16  C   UNL     1       0.536  -2.973   1.285  0.00  0.00    +0.277 C 
ENDBRANCH  11  15
BRANCH  10  17
ATOM     17  O   UNL     1      -2.389  -4.028   0.050  0.00  0.00    -0.491 OA
ATOM     18  C   UNL     1      -2.396  -4.687  -1.218  0.00  0.00    +0.277 C 
ENDBRANCH  10  17
BRANCH   7  19
ATOM     19  C   UNL     1      -6.917  -2.111   1.296  0.00  0.00    +0.118 C 
BRANCH  19  20
ATOM     20  N   UNL     1      -8.267  -1.554   1.184  0.00  0.00    -0.343 N 
ATOM     21  H   UNL     1      -8.516  -1.040   0.400  0.00  0.00    +0.146 HD
BRANCH  20  22
ATOM     22  C   UNL     1      -9.198  -1.764   2.208  0.00  0.00    +0.027 A 
ATOM     23  C   UNL     1      -8.840  -2.495   3.333  0.00  0.00    +0.025 A 
ATOM     24  C   UNL     1      -9.759  -2.702   4.343  0.00  0.00    +0.025 A 
ATOM     25  C   UNL     1     -11.040  -2.179   4.234  0.00  0.00    +0.030 A 
ATOM     26  C   UNL     1     -11.398  -1.448   3.109  0.00  0.00    +0.025 A 
ATOM     27  C   UNL     1     -10.478  -1.236   2.101  0.00  0.00    +0.025 A 
BRANCH  25  28
ATOM     28  N   UNL     1     -11.972  -2.389   5.258  0.00  0.00    -0.327 N 
ATOM     29  C   UNL     1     -13.291  -1.744   5.214  0.00  0.00    +0.105 C 
ATOM     30  C   UNL     1     -14.372  -2.818   5.366  0.00  0.00    +0.021 C 
ATOM     31  C   UNL     1     -14.108  -3.624   6.640  0.00  0.00    +0.034 C 
ATOM     32  C   UNL     1     -12.748  -4.318   6.535  0.00  0.00    +0.132 C 
ATOM     33  C   UNL     1     -11.651  -3.265   6.393  0.00  0.00    +0.136 C 
BRANCH  32  34
ATOM     34  O   UNL     1     -12.517  -5.095   7.712  0.00  0.00    -0.390 OA
ATOM     35  H   UNL     1     -13.178  -5.785   7.864  0.00  0.00    +0.210 HD
ENDBRANCH  32  34
ENDBRANCH  25  28
ENDBRANCH  20  22
ENDBRANCH  19  20
ENDBRANCH   7  19
TORSDOF 8
