REMARK  Name = ZINC38984702
REMARK  8 active torsions:
REMARK  status: ('A' for Active; 'I' for Inactive)
REMARK    1  A    between atoms: C_1  and  C_2
REMARK    2  A    between atoms: C_7  and  N_8
REMARK    3  A    between atoms: N_8  and  C_9
REMARK    4  A    between atoms: N_8  and  S_24
REMARK    5  A    between atoms: C_9  and  C_10
REMARK    6  A    between atoms: C_15  and  O_22
REMARK    7  A    between atoms: O_22  and  C_23
REMARK    8  A    between atoms: S_24  and  C_27
REMARK                            x       y       z     vdW  Elec       q    Type
REMARK                         _______ _______ _______ _____ _____    ______ ____
ROOT
ATOM      1  N   UNL     1       0.231  -0.015   2.417  0.00  0.00    -0.202 N 
ENDROOT
BRANCH   1   8
ATOM      2  C   UNL     1      -0.322   1.609   0.148  0.00  0.00    +0.046 C 
ATOM      3  C   UNL     1      -0.163   0.114   0.040  0.00  0.00    -0.028 A 
ATOM      4  C   UNL     1      -0.280  -0.506  -1.189  0.00  0.00    +0.005 A 
ATOM      5  C   UNL     1      -0.135  -1.877  -1.289  0.00  0.00    +0.000 A 
ATOM      6  C   UNL     1       0.128  -2.633  -0.160  0.00  0.00    +0.002 A 
ATOM      7  C   UNL     1       0.246  -2.019   1.071  0.00  0.00    +0.025 A 
ATOM      8  C   UNL     1       0.106  -0.640   1.174  0.00  0.00    +0.054 A 
ENDBRANCH   1   8
BRANCH   1   9
ATOM      9  S   UNL     1      -1.118   0.293   3.327  0.00  0.00    +0.075 S 
ATOM     10  O   UNL     1      -0.785   1.370   4.193  0.00  0.00    -0.150 OA
ATOM     11  O   UNL     1      -2.213   0.352   2.424  0.00  0.00    -0.150 OA
BRANCH   9  12
ATOM     12  C   UNL     1      -1.386  -1.113   4.354  0.00  0.00    +0.109 A 
ATOM     13  C   UNL     1      -2.173  -2.157   3.904  0.00  0.00    +0.029 A 
ATOM     14  C   UNL     1      -2.384  -3.260   4.710  0.00  0.00    +0.002 A 
ATOM     15  C   UNL     1      -1.808  -3.320   5.965  0.00  0.00    +0.000 A 
ATOM     16  C   UNL     1      -1.020  -2.277   6.414  0.00  0.00    +0.002 A 
ATOM     17  C   UNL     1      -0.806  -1.175   5.607  0.00  0.00    +0.029 A 
ENDBRANCH   9  12
ENDBRANCH   1   9
BRANCH   1  18
ATOM     18  C   UNL     1       1.554   0.367   2.916  0.00  0.00    +0.148 C 
BRANCH  18  19
ATOM     19  C   UNL     1       2.441  -0.876   3.014  0.00  0.00    +0.118 C 
ATOM     20  C   UNL     1       3.872  -0.413   3.208  0.00  0.00    -0.003 C 
ATOM     21  C   UNL     1       4.523  -0.848   4.324  0.00  0.00    -0.004 A 
ATOM     22  C   UNL     1       5.906  -0.449   4.588  0.00  0.00    +0.055 A 
ATOM     23  C   UNL     1       6.518  -0.908   5.715  0.00  0.00    +0.121 A 
ATOM     24  C   UNL     1       5.849  -1.748   6.614  0.00  0.00    +0.047 A 
ATOM     25  C   UNL     1       4.567  -2.152   6.422  0.00  0.00    +0.027 A 
ATOM     26  C   UNL     1       3.846  -1.732   5.289  0.00  0.00    +0.041 A 
ATOM     27  N   UNL     1       2.588  -2.136   5.114  0.00  0.00    -0.284 N 
ATOM     28  C   UNL     1       1.854  -1.782   4.073  0.00  0.00    +0.226 C 
ATOM     29  O   UNL     1       0.710  -2.183   3.968  0.00  0.00    -0.275 OA
ATOM     30  H   UNL     1       2.192  -2.718   5.782  0.00  0.00    +0.155 HD
BRANCH  23  31
ATOM     31  O   UNL     1       7.802  -0.545   5.971  0.00  0.00    -0.495 OA
ATOM     32  C   UNL     1       8.394  -1.055   7.167  0.00  0.00    +0.277 C 
ENDBRANCH  23  31
ENDBRANCH  18  19
ENDBRANCH   1  18
TORSDOF 6
