REMARK  Name = ZINC35894349
REMARK  5 active torsions:
REMARK  status: ('A' for Active; 'I' for Inactive)
REMARK    1  A    between atoms: C_6  and  N_7
REMARK    2  A    between atoms: C_11  and  C_28
REMARK    3  A    between atoms: N_18  and  C_20
REMARK    4  A    between atoms: C_20  and  C_21
REMARK    5  A    between atoms: N_30  and  C_31
REMARK                            x       y       z     vdW  Elec       q    Type
REMARK                         _______ _______ _______ _____ _____    ______ ____
ROOT
ATOM      1  C   UNL     1      -0.017   1.378   0.010  0.00  0.00    +0.034 A 
ATOM      2  C   UNL     1       1.169   2.085   0.002  0.00  0.00    +0.025 A 
ATOM      3  C   UNL     1       2.383   1.406  -0.012  0.00  0.00    +0.033 A 
ATOM      4  C   UNL     1       2.399   0.022  -0.018  0.00  0.00    -0.023 A 
ATOM      5  C   UNL     1       1.207  -0.681  -0.012  0.00  0.00    +0.038 A 
ATOM      6  C   UNL     1       0.002  -0.004   0.002  0.00  0.00    +0.127 A 
ATOM      7  C   UNL     1       3.701  -0.737  -0.025  0.00  0.00    +0.051 C 
ATOM      8  C   UNL     1       4.797   0.128   0.596  0.00  0.00    +0.098 C 
ATOM      9  C   UNL     1       4.857   1.478  -0.127  0.00  0.00    +0.069 C 
ATOM     10  N   UNL     1       3.572   2.152  -0.024  0.00  0.00    -0.329 N 
ATOM     11  C   UNL     1       3.453   3.611   0.039  0.00  0.00    +0.087 C 
ATOM     12  C   UNL     1       4.649   4.216   0.771  0.00  0.00    -0.059 C 
ATOM     13  N   UNL     1       5.880   3.713   0.143  0.00  0.00    +0.388 N 
ATOM     14  C   UNL     1       6.013   2.287   0.438  0.00  0.00    -0.055 C 
ATOM     15  H   UNL     1       5.829   3.848  -0.855  0.00  0.00    -0.081 HD
ENDROOT
BRANCH   8  16
ATOM     16  C   UNL     1       4.493   0.353   2.055  0.00  0.00    +0.218 C 
ATOM     17  O   UNL     1       4.338   1.480   2.475  0.00  0.00    -0.275 OA
ATOM     18  N   UNL     1       4.392  -0.698   2.892  0.00  0.00    -0.312 N 
ATOM     19  H   UNL     1       4.516  -1.600   2.556  0.00  0.00    +0.149 HD
BRANCH  18  20
ATOM     20  C   UNL     1       4.096  -0.479   4.310  0.00  0.00    +0.073 C 
ATOM     21  C   UNL     1       5.396  -0.190   5.064  0.00  0.00    +0.022 C 
ATOM     22  C   UNL     1       5.087   0.039   6.545  0.00  0.00    +0.002 C 
ATOM     23  C   UNL     1       4.428  -1.213   7.127  0.00  0.00    +0.000 C 
ATOM     24  C   UNL     1       3.128  -1.502   6.374  0.00  0.00    +0.002 C 
ATOM     25  C   UNL     1       3.437  -1.731   4.893  0.00  0.00    +0.022 C 
ENDBRANCH  18  20
ENDBRANCH   8  16
BRANCH   6  26
ATOM     26  N   UNL     1      -1.270  -0.760   0.009  0.00  0.00    +0.056 N 
ATOM     27  O   UNL     1      -2.325  -0.169   0.021  0.00  0.00    -0.126 OA
ATOM     28  O   UNL     1      -1.255  -1.969   0.002  0.00  0.00    -0.126 OA
ENDBRANCH   6  26
BRANCH  13  29
ATOM     29  C   UNL     1       7.038   4.437   0.682  0.00  0.00    +0.019 C 
BRANCH  29  30
ATOM     30  C   UNL     1       6.953   5.888   0.285  0.00  0.00    +0.199 C 
ATOM     31  O   UNL     1       6.019   6.280  -0.383  0.00  0.00    -0.278 OA
ATOM     32  N   UNL     1       7.915   6.750   0.670  0.00  0.00    -0.303 N 
ATOM     33  C   UNL     1       9.100   6.410   1.471  0.00  0.00    +0.108 C 
ATOM     34  C   UNL     1       9.898   7.713   1.686  0.00  0.00    +0.020 C 
ATOM     35  C   UNL     1       8.826   8.816   1.474  0.00  0.00    +0.020 C 
ATOM     36  C   UNL     1       7.956   8.189   0.353  0.00  0.00    +0.108 C 
ENDBRANCH  29  30
ENDBRANCH  13  29
TORSDOF 5
