REMARK  Name = ZINC12887832
REMARK  8 active torsions:
REMARK  status: ('A' for Active; 'I' for Inactive)
REMARK    1  A    between atoms: C_1  and  C_2
REMARK    2  A    between atoms: C_7  and  C_8
REMARK    3  A    between atoms: C_17  and  C_19
REMARK    4  A    between atoms: C_19  and  C_20
REMARK    5  A    between atoms: N_32  and  C_35
REMARK    6  A    between atoms: C_35  and  C_36
REMARK    7  A    between atoms: C_36  and  O_37
REMARK    8  A    between atoms: O_37  and  C_38
REMARK                            x       y       z     vdW  Elec       q    Type
REMARK                         _______ _______ _______ _____ _____    ______ ____
ROOT
ATOM      1  C   UNL     1      -2.133   1.146   2.664  0.00  0.00    +0.044 C 
ATOM      2  C   UNL     1      -0.907   1.879   2.184  0.00  0.00    -0.046 A 
ATOM      3  C   UNL     1       0.199   1.165   1.759  0.00  0.00    +0.004 A 
ATOM      4  C   UNL     1       1.323   1.837   1.312  0.00  0.00    +0.005 A 
ATOM      5  C   UNL     1       1.341   3.214   1.297  0.00  0.00    -0.027 A 
ATOM      6  C   UNL     1       0.236   3.943   1.728  0.00  0.00    +0.039 A 
ATOM      7  C   UNL     1      -0.891   3.258   2.176  0.00  0.00    -0.026 A 
ATOM      8  C   UNL     1      -2.099   4.026   2.647  0.00  0.00    +0.046 C 
ATOM      9  N   UNL     1       0.489   5.312   1.621  0.00  0.00    -0.286 N 
ATOM     10  C   UNL     1       1.720   5.565   1.136  0.00  0.00    +0.211 C 
ATOM     11  O   UNL     1       2.211   6.656   0.938  0.00  0.00    -0.277 OA
ATOM     12  C   UNL     1       2.368   4.231   0.886  0.00  0.00    +0.050 C 
ATOM     13  C   UNL     1       2.765   4.066  -0.586  0.00  0.00    +0.088 C 
ATOM     14  C   UNL     1       4.279   4.413  -0.624  0.00  0.00    +0.073 C 
ATOM     15  C   UNL     1       4.642   4.769   0.833  0.00  0.00    -0.053 C 
ATOM     16  C   UNL     1       4.929   3.100  -0.996  0.00  0.00    +0.224 C 
ATOM     17  O   UNL     1       6.121   2.920  -1.125  0.00  0.00    -0.275 OA
ATOM     18  N   UNL     1       3.984   2.168  -1.162  0.00  0.00    -0.240 N 
ATOM     19  C   UNL     1       2.718   2.603  -0.964  0.00  0.00    +0.225 C 
ATOM     20  O   UNL     1       1.710   1.938  -1.067  0.00  0.00    -0.275 OA
ATOM     21  H   UNL     1      -0.148   6.002   1.866  0.00  0.00    +0.155 HD
ATOM     22  N   UNL     1       3.610   4.099   1.628  0.00  0.00    +0.394 N 
ATOM     23  H   UNL     1       3.846   3.108   1.753  0.00  0.00    -0.083 HD
ATOM     24  H   UNL     1       3.523   4.549   2.547  0.00  0.00    -0.083 HD
ENDROOT
BRANCH  15  25
ATOM     25  C   UNL     1       4.574   6.283   1.044  0.00  0.00    +0.022 C 
BRANCH  25  26
ATOM     26  C   UNL     1       5.931   6.887   0.791  0.00  0.00    -0.024 A 
ATOM     27  C   UNL     1       6.866   7.164   1.714  0.00  0.00    +0.087 A 
ATOM     28  N   UNL     1       7.971   7.702   1.112  0.00  0.00    -0.360 N 
ATOM     29  H   UNL     1       8.777   7.980   1.573  0.00  0.00    +0.165 HD
ATOM     30  C   UNL     1       7.765   7.795  -0.247  0.00  0.00    +0.047 A 
ATOM     31  C   UNL     1       6.479   7.288  -0.507  0.00  0.00    +0.003 A 
ATOM     32  C   UNL     1       5.994   7.256  -1.816  0.00  0.00    +0.010 A 
ATOM     33  C   UNL     1       6.773   7.720  -2.839  0.00  0.00    +0.001 A 
ATOM     34  C   UNL     1       8.043   8.220  -2.587  0.00  0.00    +0.002 A 
ATOM     35  C   UNL     1       8.541   8.260  -1.303  0.00  0.00    +0.026 A 
ENDBRANCH  25  26
ENDBRANCH  15  25
BRANCH  18  36
ATOM     36  C   UNL     1       4.292   0.784  -1.534  0.00  0.00    +0.144 C 
BRANCH  36  37
ATOM     37  C   UNL     1       4.408   0.679  -3.055  0.00  0.00    +0.179 C 
BRANCH  37  38
ATOM     38  O   UNL     1       5.532   1.440  -3.502  0.00  0.00    -0.381 OA
ATOM     39  C   UNL     1       5.731   1.409  -4.916  0.00  0.00    +0.194 C 
ENDBRANCH  37  38
ENDBRANCH  36  37
ENDBRANCH  18  36
TORSDOF 5
