REMARK  Name = ZINC09223938
REMARK  9 active torsions:
REMARK  status: ('A' for Active; 'I' for Inactive)
REMARK    1  A    between atoms: C_1  and  C_2
REMARK    2  A    between atoms: C_5  and  N_8
REMARK    3  A    between atoms: C_11  and  C_13
REMARK    4  A    between atoms: C_14  and  C_31
REMARK    5  A    between atoms: C_16  and  N_21
REMARK    6  A    between atoms: C_22  and  C_24
REMARK    7  A    between atoms: C_28  and  C_30
REMARK    8  A    between atoms: C_35  and  O_37
REMARK    9  A    between atoms: O_37  and  C_38
REMARK                            x       y       z     vdW  Elec       q    Type
REMARK                         _______ _______ _______ _____ _____    ______ ____
ROOT
ATOM      1  N   UNL     1       2.095   4.187  -0.069  0.00  0.00    -0.218 N 
ATOM      2  C   UNL     1       1.124   3.259  -0.192  0.00  0.00    +0.133 A 
ATOM      3  C   UNL     1      -0.017   3.905  -0.589  0.00  0.00    +0.025 A 
ATOM      4  C   UNL     1       0.269   5.259  -0.687  0.00  0.00    +0.066 A 
ATOM      5  N   UNL     1       1.532   5.436  -0.376  0.00  0.00    -0.170 NA
ATOM      6  C   UNL     1      -0.703   6.340  -1.084  0.00  0.00    +0.068 C 
ATOM      7  C   UNL     1      -1.307   3.172  -0.855  0.00  0.00    +0.083 C 
ATOM      8  C   UNL     1      -1.339   1.919   0.019  0.00  0.00    +0.171 C 
ATOM      9  C   UNL     1      -0.014   1.209   0.009  0.00  0.00    +0.240 C 
ATOM     10  O   UNL     1       0.002  -0.004   0.002  0.00  0.00    -0.273 OA
ATOM     11  N   UNL     1       1.158   1.879   0.001  0.00  0.00    -0.268 N 
ATOM     12  H   UNL     1       1.999   1.413   0.127  0.00  0.00    +0.156 HD
ENDROOT
BRANCH   1  17
ATOM     13  C   UNL     1       7.485   3.217   1.420  0.00  0.00    +0.044 C 
ATOM     14  C   UNL     1       6.054   3.474   1.024  0.00  0.00    -0.050 A 
ATOM     15  C   UNL     1       5.760   4.463   0.104  0.00  0.00    +0.005 A 
ATOM     16  C   UNL     1       4.449   4.702  -0.261  0.00  0.00    +0.028 A 
ATOM     17  C   UNL     1       3.426   3.947   0.298  0.00  0.00    +0.067 A 
ATOM     18  C   UNL     1       3.724   2.958   1.226  0.00  0.00    +0.028 A 
ATOM     19  C   UNL     1       5.038   2.721   1.583  0.00  0.00    +0.005 A 
ENDBRANCH   1  17
BRANCH   7  20
ATOM     20  C   UNL     1      -1.376   2.775  -2.307  0.00  0.00    -0.034 A 
ATOM     21  C   UNL     1      -0.407   1.946  -2.843  0.00  0.00    +0.004 A 
ATOM     22  C   UNL     1      -0.467   1.579  -4.174  0.00  0.00    +0.004 A 
ATOM     23  C   UNL     1      -1.495   2.040  -4.974  0.00  0.00    +0.045 A 
ATOM     24  C   UNL     1      -2.468   2.872  -4.439  0.00  0.00    +0.120 A 
ATOM     25  C   UNL     1      -2.409   3.234  -3.101  0.00  0.00    +0.050 A 
BRANCH  24  26
ATOM     26  O   UNL     1      -3.480   3.328  -5.223  0.00  0.00    -0.495 OA
ATOM     27  C   UNL     1      -3.480   2.910  -6.590  0.00  0.00    +0.277 C 
ENDBRANCH  24  26
ENDBRANCH   7  20
BRANCH   8  28
ATOM     28  N   UNL     1      -1.665   2.306   1.394  0.00  0.00    -0.299 N 
ATOM     29  C   UNL     1      -2.271   1.427   2.216  0.00  0.00    +0.245 C 
ATOM     30  O   UNL     1      -2.547   0.313   1.817  0.00  0.00    -0.270 OA
ATOM     31  H   UNL     1      -1.444   3.196   1.712  0.00  0.00    +0.150 HD
BRANCH  29  32
ATOM     32  C   UNL     1      -2.600   1.819   3.603  0.00  0.00    +0.037 A 
ATOM     33  C   UNL     1      -2.279   3.096   4.066  0.00  0.00    +0.013 A 
ATOM     34  C   UNL     1      -2.594   3.456   5.360  0.00  0.00    +0.001 A 
ATOM     35  C   UNL     1      -3.216   2.551   6.202  0.00  0.00    +0.003 A 
ATOM     36  C   UNL     1      -3.532   1.282   5.751  0.00  0.00    -0.050 A 
ATOM     37  C   UNL     1      -3.228   0.911   4.457  0.00  0.00    +0.016 A 
ATOM     38  C   UNL     1      -4.210   0.303   6.675  0.00  0.00    +0.044 C 
ENDBRANCH  29  32
ENDBRANCH   8  28
TORSDOF 5
