REMARK  Name = ZINC10602514
REMARK  13 active torsions:
REMARK  status: ('A' for Active; 'I' for Inactive)
REMARK    1  A    between atoms: C_1  and  C_2
REMARK    2  A    between atoms: C_2  and  C_4
REMARK    3  A    between atoms: C_2  and  N_12
REMARK    4  A    between atoms: C_13  and  C_15
REMARK    5  A    between atoms: C_15  and  C_17
REMARK    6  A    between atoms: C_15  and  O_18
REMARK    7  A    between atoms: O_18  and  C_19
REMARK    8  A    between atoms: C_19  and  C_21
REMARK    9  A    between atoms: C_24  and  S_27
REMARK   10  A    between atoms: S_27  and  N_30
REMARK   11  A    between atoms: N_30  and  C_31
REMARK   12  A    between atoms: C_31  and  C_32
REMARK   13  A    between atoms: C_31  and  C_33
REMARK                            x       y       z     vdW  Elec       q    Type
REMARK                         _______ _______ _______ _____ _____    ______ ____
ROOT
ATOM      1  O   UNL     1       4.239  -1.376  -1.860  0.00  0.00    -0.449 OA
ENDROOT
BRANCH   1   2
ATOM      2  C   UNL     1       2.880  -1.158  -2.243  0.00  0.00    +0.259 C 
ATOM      3  C   UNL     1       2.825  -0.115  -3.361  0.00  0.00    +0.062 C 
BRANCH   2   5
ATOM      4  N   UNL     1       0.764  -0.485  -1.153  0.00  0.00    -0.306 N 
ATOM      5  C   UNL     1       2.096  -0.663  -1.055  0.00  0.00    +0.254 C 
ATOM      6  O   UNL     1       2.664  -0.425  -0.010  0.00  0.00    -0.272 OA
ATOM      7  H   UNL     1       0.309  -0.676  -1.988  0.00  0.00    +0.149 HD
BRANCH   4   9
ATOM      8  C   UNL     1       0.009   1.526   0.016  0.00  0.00    +0.033 C 
ATOM      9  C   UNL     1       0.002  -0.004   0.002  0.00  0.00    +0.102 C 
BRANCH   9  10
ATOM     10  C   UNL     1      -1.418  -0.499  -0.091  0.00  0.00    -0.009 A 
ATOM     11  C   UNL     1      -1.976  -0.770  -1.327  0.00  0.00    +0.008 A 
ATOM     12  C   UNL     1      -3.278  -1.224  -1.413  0.00  0.00    +0.020 A 
ATOM     13  C   UNL     1      -4.025  -1.408  -0.263  0.00  0.00    +0.042 A 
ATOM     14  C   UNL     1      -3.468  -1.137   0.974  0.00  0.00    +0.040 A 
ATOM     15  C   UNL     1      -2.162  -0.688   1.060  0.00  0.00    +0.047 A 
ATOM     16 CL   UNL     1      -1.460  -0.353   2.612  0.00  0.00    -0.083 Cl
ATOM     17 CL   UNL     1      -5.661  -1.977  -0.372  0.00  0.00    -0.083 Cl
ENDBRANCH   9  10
ENDBRANCH   4   9
ENDBRANCH   2   5
ENDBRANCH   1   2
BRANCH   1  18
ATOM     18  C   UNL     1       4.912  -2.341  -2.515  0.00  0.00    +0.340 C 
ATOM     19  O   UNL     1       4.361  -2.981  -3.388  0.00  0.00    -0.245 OA
BRANCH  18  20
ATOM     20  C   UNL     1       6.322  -2.622  -2.173  0.00  0.00    +0.059 A 
ATOM     21  C   UNL     1       6.957  -1.892  -1.167  0.00  0.00    +0.017 A 
ATOM     22  C   UNL     1       8.274  -2.159  -0.852  0.00  0.00    +0.029 A 
ATOM     23  C   UNL     1       8.964  -3.147  -1.531  0.00  0.00    +0.105 A 
ATOM     24  C   UNL     1       8.340  -3.874  -2.529  0.00  0.00    +0.029 A 
ATOM     25  C   UNL     1       7.022  -3.622  -2.850  0.00  0.00    +0.017 A 
BRANCH  23  26
ATOM     26  S   UNL     1      10.645  -3.482  -1.122  0.00  0.00    +0.059 S 
ATOM     27  O   UNL     1      11.231  -4.078  -2.271  0.00  0.00    -0.153 OA
ATOM     28  O   UNL     1      11.162  -2.298  -0.530  0.00  0.00    -0.153 OA
BRANCH  26  29
ATOM     29  N   UNL     1      10.640  -4.639   0.062  0.00  0.00    -0.187 NA
ATOM     30  H   UNL     1      10.972  -4.428   0.948  0.00  0.00    +0.148 HD
BRANCH  29  31
ATOM     31  C   UNL     1      10.134  -5.983  -0.229  0.00  0.00    +0.070 C 
ATOM     32  C   UNL     1      10.948  -7.016   0.552  0.00  0.00    +0.025 C 
ATOM     33  C   UNL     1       8.663  -6.074   0.184  0.00  0.00    +0.025 C 
ENDBRANCH  29  31
ENDBRANCH  26  29
ENDBRANCH  23  26
ENDBRANCH  18  20
ENDBRANCH   1  18
TORSDOF 9
