REMARK  Name = ZINC40464920
REMARK  7 active torsions:
REMARK  status: ('A' for Active; 'I' for Inactive)
REMARK    1  A    between atoms: C_3  and  C_10
REMARK    2  A    between atoms: C_5  and  N_7
REMARK    3  A    between atoms: C_11  and  C_16
REMARK    4  A    between atoms: C_17  and  C_18
REMARK    5  A    between atoms: C_18  and  C_20
REMARK    6  A    between atoms: C_24  and  N_26
REMARK    7  A    between atoms: C_27  and  C_29
REMARK                            x       y       z     vdW  Elec       q    Type
REMARK                         _______ _______ _______ _____ _____    ______ ____
ROOT
ATOM      1  C   UNL     1       3.120   3.983  -1.947  0.00  0.00    +0.015 C 
ATOM      2  C   UNL     1       3.447   5.231  -2.358  0.00  0.00    +0.052 C 
ENDROOT
BRANCH   1   4
ATOM      3  C   UNL     1       3.880   1.836  -0.643  0.00  0.00    +0.100 A 
ATOM      4  C   UNL     1       4.076   3.195  -1.162  0.00  0.00    +0.020 A 
ATOM      5  C   UNL     1       5.343   3.583  -0.765  0.00  0.00    +0.113 A 
ATOM      6  N   UNL     1       5.884   2.571  -0.069  0.00  0.00    -0.284 N 
ATOM      7  H   UNL     1       6.769   2.577   0.328  0.00  0.00    +0.188 HD
ATOM      8  N   UNL     1       4.977   1.511   0.004  0.00  0.00    -0.173 NA
BRANCH   3  11
ATOM      9  C   UNL     1       0.286   0.790  -0.986  0.00  0.00    +0.003 A 
ATOM     10  C   UNL     1       1.408   1.579  -0.829  0.00  0.00    +0.010 A 
ATOM     11  C   UNL     1       2.672   0.993  -0.810  0.00  0.00    +0.005 A 
ATOM     12  C   UNL     1       2.796  -0.388  -0.949  0.00  0.00    +0.042 A 
ATOM     13  C   UNL     1       1.669  -1.167  -1.105  0.00  0.00    +0.127 A 
ATOM     14  C   UNL     1       0.416  -0.580  -1.123  0.00  0.00    +0.033 A 
BRANCH  13  15
ATOM     15  N   UNL     1       1.799  -2.634  -1.253  0.00  0.00    +0.056 N 
ATOM     16  O   UNL     1       2.893  -3.149  -1.238  0.00  0.00    -0.126 OA
ATOM     17  O   UNL     1       0.811  -3.318  -1.390  0.00  0.00    -0.126 OA
ENDBRANCH  13  15
ENDBRANCH   3  11
ENDBRANCH   1   4
BRANCH   2  18
ATOM     18  C   UNL     1       2.525   5.991  -3.115  0.00  0.00    +0.186 C 
ATOM     19  O   UNL     1       1.436   5.523  -3.396  0.00  0.00    -0.287 OA
BRANCH  18  20
ATOM     20  C   UNL     1       2.882   7.355  -3.564  0.00  0.00    +0.023 A 
ATOM     21  C   UNL     1       4.132   7.892  -3.247  0.00  0.00    +0.012 A 
ATOM     22  C   UNL     1       4.463   9.164  -3.667  0.00  0.00    +0.002 A 
ATOM     23  C   UNL     1       3.561   9.911  -4.402  0.00  0.00    +0.023 A 
ATOM     24  C   UNL     1       2.314   9.386  -4.722  0.00  0.00    +0.034 A 
ATOM     25  C   UNL     1       1.975   8.106  -4.310  0.00  0.00    +0.035 A 
BRANCH  24  26
ATOM     26  N   UNL     1       1.405  10.146  -5.465  0.00  0.00    -0.279 N 
ATOM     27  C   UNL     1       0.082  10.022  -5.241  0.00  0.00    +0.284 C 
ATOM     28  O   UNL     1      -0.318   9.321  -4.330  0.00  0.00    -0.266 OA
ATOM     29  H   UNL     1       1.727  10.763  -6.141  0.00  0.00    +0.155 HD
BRANCH  27  30
ATOM     30  C   UNL     1      -0.876  10.730  -6.096  0.00  0.00    +0.189 A 
ATOM     31  C   UNL     1      -2.236  10.696  -5.977  0.00  0.00    +0.054 A 
ATOM     32  C   UNL     1      -2.751  11.514  -6.995  0.00  0.00    +0.042 A 
ATOM     33  C   UNL     1      -1.696  12.005  -7.682  0.00  0.00    +0.196 A 
ATOM     34  O   UNL     1      -0.568  11.534  -7.134  0.00  0.00    -0.458 OA
ENDBRANCH  27  30
ENDBRANCH  24  26
ENDBRANCH  18  20
ENDBRANCH   2  18
TORSDOF 7
