REMARK  Name = ZINC36007557
REMARK  9 active torsions:
REMARK  status: ('A' for Active; 'I' for Inactive)
REMARK    1  A    between atoms: C_1  and  C_2
REMARK    2  A    between atoms: C_7  and  C_8
REMARK    3  A    between atoms: C_7  and  C_9
REMARK    4  A    between atoms: C_11  and  N_13
REMARK    5  A    between atoms: C_14  and  C_16
REMARK    6  A    between atoms: C_16  and  S_17
REMARK    7  A    between atoms: S_17  and  C_18
REMARK    8  A    between atoms: C_21  and  C_24
REMARK    9  A    between atoms: N_22  and  N_23
REMARK                            x       y       z     vdW  Elec       q    Type
REMARK                         _______ _______ _______ _____ _____    ______ ____
ROOT
ATOM      1  S   UNL     1      -6.228   0.478   1.296  0.00  0.00    -0.075 S 
ENDROOT
BRANCH   1   2
ATOM      2  C   UNL     1      -7.152   1.256   2.580  0.00  0.00    +0.209 A 
ATOM      3  N   UNL     1      -6.662   1.827   3.657  0.00  0.00    -0.121 NA
ATOM      4  N   UNL     1      -7.615   2.294   4.381  0.00  0.00    -0.127 NA
ATOM      5  C   UNL     1      -8.772   2.049   3.812  0.00  0.00    +0.183 A 
ATOM      6  N   UNL     1      -8.511   1.382   2.637  0.00  0.00    -0.224 N 
BRANCH   5   7
ATOM      7  C   UNL     1     -10.104   2.425   4.331  0.00  0.00    +0.039 A 
ATOM      8  C   UNL     1     -11.137   1.486   4.356  0.00  0.00    +0.014 A 
ATOM      9  C   UNL     1     -12.378   1.843   4.843  0.00  0.00    +0.021 A 
ATOM     10  C   UNL     1     -12.600   3.129   5.305  0.00  0.00    +0.042 A 
ATOM     11  C   UNL     1     -11.581   4.065   5.283  0.00  0.00    +0.040 A 
ATOM     12  C   UNL     1     -10.333   3.719   4.804  0.00  0.00    +0.053 A 
ATOM     13 CL   UNL     1      -9.053   4.892   4.784  0.00  0.00    -0.083 Cl
ATOM     14 CL   UNL     1     -14.165   3.570   5.915  0.00  0.00    -0.083 Cl
ENDBRANCH   5   7
BRANCH   6  15
ATOM     15  N   UNL     1      -9.421   0.936   1.721  0.00  0.00    -0.295 N 
ATOM     16  H   UNL     1      -9.782   0.030   1.982  0.00  0.00    +0.163 HD
ATOM     17  H   UNL     1     -10.169   1.602   1.601  0.00  0.00    +0.163 HD
ENDBRANCH   6  15
ENDBRANCH   1   2
BRANCH   1  18
ATOM     18  C   UNL     1      -4.503   0.655   1.829  0.00  0.00    +0.173 C 
BRANCH  18  20
ATOM     19  N   UNL     1      -2.260   0.034   0.992  0.00  0.00    -0.311 N 
ATOM     20  C   UNL     1      -3.595   0.023   0.806  0.00  0.00    +0.224 C 
ATOM     21  O   UNL     1      -4.064  -0.495  -0.185  0.00  0.00    -0.275 OA
ATOM     22  H   UNL     1      -1.884   0.449   1.785  0.00  0.00    +0.149 HD
BRANCH  19  32
ATOM     23  C   UNL     1       0.080   1.583   0.241  0.00  0.00    +0.013 C 
ATOM     24  C   UNL     1       0.042   0.064   0.060  0.00  0.00    -0.008 C 
ATOM     25  C   UNL     1       0.800  -0.493  -1.184  0.00  0.00    +0.009 C 
ATOM     26  C   UNL     1       1.045  -1.984  -0.857  0.00  0.00    +0.005 C 
ATOM     27  C   UNL     1       0.412  -2.187   0.554  0.00  0.00    -0.003 C 
ATOM     28  C   UNL     1       0.698  -0.787   1.204  0.00  0.00    -0.025 C 
ATOM     29  C   UNL     1       2.197  -0.512   1.337  0.00  0.00    +0.012 C 
ATOM     30  C   UNL     1      -0.032  -0.615   2.538  0.00  0.00    +0.012 C 
ATOM     31  C   UNL     1      -1.125  -2.105   0.308  0.00  0.00    +0.027 C 
ATOM     32  C   UNL     1      -1.376  -0.580  -0.002  0.00  0.00    +0.080 C 
ENDBRANCH  19  32
ENDBRANCH  18  20
ENDBRANCH   1  18
TORSDOF 6
