REMARK  Name = ZINC02372382
REMARK  5 active torsions:
REMARK  status: ('A' for Active; 'I' for Inactive)
REMARK    1  A    between atoms: C_11  and  N_13
REMARK    2  A    between atoms: N_13  and  C_14
REMARK    3  A    between atoms: C_14  and  C_15
REMARK    4  A    between atoms: C_15  and  C_16
REMARK    5  A    between atoms: C_16  and  O_17
REMARK                            x       y       z     vdW  Elec       q    Type
REMARK                         _______ _______ _______ _____ _____    ______ ____
ROOT
ATOM      1  C   UNL     1      -6.221   3.480   0.466  0.00  0.00    +0.224 A 
ATOM      2  N   UNL     1      -4.993   3.028   0.490  0.00  0.00    -0.234 NA
ATOM      3  C   UNL     1      -4.282   2.980   1.639  0.00  0.00    +0.093 A 
ATOM      4  C   UNL     1      -2.901   2.503   1.835  0.00  0.00    +0.035 A 
ATOM      5  C   UNL     1      -2.018   1.989   0.855  0.00  0.00    -0.029 A 
ATOM      6  C   UNL     1      -0.763   1.595   1.221  0.00  0.00    -0.005 A 
ATOM      7  C   UNL     1      -0.362   1.699   2.555  0.00  0.00    +0.103 A 
ATOM      8  C   UNL     1      -2.408   2.570   3.149  0.00  0.00    +0.089 A 
ATOM      9  S   UNL     1      -3.754   3.247   4.089  0.00  0.00    -0.066 S 
ATOM     10  C   UNL     1      -4.939   3.441   2.787  0.00  0.00    +0.080 A 
ATOM     11  C   UNL     1      -6.242   3.914   2.722  0.00  0.00    +0.136 A 
ATOM     12  N   UNL     1      -6.854   3.918   1.538  0.00  0.00    -0.220 NA
ATOM     13  N   UNL     1       0.914   1.297   2.924  0.00  0.00    -0.312 N 
ATOM     14  C   UNL     1       1.156  -0.102   2.544  0.00  0.00    +0.134 C 
ATOM     15  C   UNL     1       2.591  -0.485   2.915  0.00  0.00    +0.178 C 
ATOM     16  O   UNL     1       2.793  -0.261   4.313  0.00  0.00    -0.377 OA
ATOM     17  C   UNL     1       2.567   1.092   4.717  0.00  0.00    +0.178 C 
ATOM     18  C   UNL     1       1.131   1.491   4.365  0.00  0.00    +0.134 C 
ATOM     19  C   UNL     1      -0.013   1.086   0.008  0.00  0.00    +0.039 C 
ATOM     20  C   UNL     1      -0.801   1.618  -1.208  0.00  0.00    +0.009 C 
ATOM     21  C   UNL     1      -2.223   1.783  -0.628  0.00  0.00    +0.036 C 
ATOM     22  N   UNL     1      -1.168   2.185   3.541  0.00  0.00    -0.337 N 
ATOM     23  H   UNL     1      -0.857   2.255   4.517  0.00  0.00    +0.168 HD
ENDROOT
BRANCH  11  24
ATOM     24  N   UNL     1      -6.890   4.370   3.860  0.00  0.00    -0.328 N 
ATOM     25  H   UNL     1      -6.433   4.361   4.715  0.00  0.00    +0.147 HD
BRANCH  24  26
ATOM     26  C   UNL     1      -8.266   4.865   3.770  0.00  0.00    +0.105 C 
BRANCH  26  27
ATOM     27  C   UNL     1      -8.742   5.303   5.157  0.00  0.00    +0.046 C 
BRANCH  27  28
ATOM     28  C   UNL     1     -10.179   5.821   5.063  0.00  0.00    +0.157 C 
BRANCH  28  29
ATOM     29  O   UNL     1     -10.623   6.230   6.358  0.00  0.00    -0.395 OA
ATOM     30  H   UNL     1     -11.528   6.570   6.374  0.00  0.00    +0.209 HD
ENDBRANCH  28  29
ENDBRANCH  27  28
ENDBRANCH  26  27
ENDBRANCH  24  26
ENDBRANCH  11  24
TORSDOF 5
