REMARK  Name = ZINC35564554
REMARK  9 active torsions:
REMARK  status: ('A' for Active; 'I' for Inactive)
REMARK    1  A    between atoms: C_1  and  C_2
REMARK    2  A    between atoms: C_2  and  C_3
REMARK    3  A    between atoms: C_2  and  C_4
REMARK    4  A    between atoms: C_4  and  C_5
REMARK    5  A    between atoms: C_5  and  N_6
REMARK    6  A    between atoms: C_18  and  C_20
REMARK    7  A    between atoms: C_20  and  N_21
REMARK    8  A    between atoms: N_24  and  C_27
REMARK    9  A    between atoms: C_32  and  C_33
REMARK                            x       y       z     vdW  Elec       q    Type
REMARK                         _______ _______ _______ _____ _____    ______ ____
ROOT
ATOM      1  N   UNL     1      -2.860  -2.422  -0.186  0.00  0.00    +0.382 N 
ATOM      2  C   UNL     1      -3.744  -1.895  -1.233  0.00  0.00    -0.060 C 
ATOM      3  C   UNL     1      -5.143  -2.499  -1.069  0.00  0.00    +0.089 C 
ATOM      4  N   UNL     1      -5.020  -3.965  -1.058  0.00  0.00    -0.305 N 
ATOM      5  C   UNL     1      -4.034  -4.571  -0.151  0.00  0.00    +0.089 C 
ATOM      6  C   UNL     1      -2.687  -3.870  -0.358  0.00  0.00    -0.060 C 
ATOM      7  C   UNL     1      -5.801  -4.743  -1.870  0.00  0.00    +0.198 A 
ATOM      8  N   UNL     1      -5.747  -6.097  -1.751  0.00  0.00    -0.295 N 
ATOM      9  H   UNL     1      -5.160  -6.505  -1.096  0.00  0.00    +0.172 HD
ATOM     10  C   UNL     1      -6.515  -6.871  -2.548  0.00  0.00    +0.253 A 
ATOM     11  O   UNL     1      -6.480  -8.087  -2.454  0.00  0.00    -0.268 OA
ATOM     12  C   UNL     1      -7.356  -6.249  -3.488  0.00  0.00    +0.091 A 
ATOM     13  C   UNL     1      -7.367  -4.886  -3.562  0.00  0.00    +0.034 A 
ATOM     14  N   UNL     1      -6.595  -4.167  -2.750  0.00  0.00    -0.223 NA
ATOM     15  H   UNL     1      -3.266  -2.238   0.719  0.00  0.00    -0.082 HD
ENDROOT
BRANCH   1  16
ATOM     16  C   UNL     1      -1.551  -1.761  -0.276  0.00  0.00    -0.078 C 
BRANCH  16  17
ATOM     17  C   UNL     1      -1.710  -0.270   0.026  0.00  0.00    -0.016 C 
BRANCH  17  19
ATOM     18  C   UNL     1      -0.525   1.928   0.112  0.00  0.00    +0.007 C 
ATOM     19  C   UNL     1      -0.347   0.419  -0.067  0.00  0.00    -0.019 C 
ATOM     20  C   UNL     1       0.573  -0.120   1.030  0.00  0.00    +0.007 C 
ENDBRANCH  17  19
ENDBRANCH  16  17
ENDBRANCH   1  16
BRANCH  13  21
ATOM     21  C   UNL     1      -8.259  -4.194  -4.560  0.00  0.00    -0.022 C 
BRANCH  21  22
ATOM     22  N   UNL     1      -9.277  -3.412  -3.847  0.00  0.00    +0.385 N 
ATOM     23  C   UNL     1      -8.624  -2.339  -3.087  0.00  0.00    -0.059 C 
ATOM     24  C   UNL     1      -9.671  -1.594  -2.253  0.00  0.00    +0.086 C 
ATOM     25  N   UNL     1     -10.742  -1.135  -3.151  0.00  0.00    -0.332 N 
ATOM     26  C   UNL     1     -11.344  -2.115  -4.069  0.00  0.00    +0.086 C 
ATOM     27  C   UNL     1     -10.217  -2.836  -4.817  0.00  0.00    -0.059 C 
ATOM     28  H   UNL     1      -9.779  -4.014  -3.212  0.00  0.00    -0.081 HD
BRANCH  25  29
ATOM     29  C   UNL     1     -11.173   0.186  -3.134  0.00  0.00    +0.047 A 
ATOM     30  C   UNL     1     -10.575   1.127  -3.963  0.00  0.00    +0.024 A 
ATOM     31  C   UNL     1     -11.004   2.438  -3.944  0.00  0.00    +0.002 A 
ATOM     32  C   UNL     1     -12.032   2.828  -3.100  0.00  0.00    +0.001 A 
ATOM     33  C   UNL     1     -12.638   1.909  -2.270  0.00  0.00    +0.021 A 
ATOM     34  C   UNL     1     -12.219   0.577  -2.283  0.00  0.00    +0.073 A 
BRANCH  34  35
ATOM     35  C   UNL     1     -12.848  -0.384  -1.428  0.00  0.00    +0.101 C 
ATOM     36  N   UNL     1     -13.347  -1.147  -0.749  0.00  0.00    -0.191 NA
ENDBRANCH  34  35
ENDBRANCH  25  29
ENDBRANCH  21  22
ENDBRANCH  13  21
TORSDOF 7
