REMARK  Name = ZINC08741818
REMARK  8 active torsions:
REMARK  status: ('A' for Active; 'I' for Inactive)
REMARK    1  A    between atoms: C_1  and  C_2
REMARK    2  A    between atoms: C_2  and  O_3
REMARK    3  A    between atoms: O_3  and  C_4
REMARK    4  A    between atoms: C_4  and  C_6
REMARK    5  A    between atoms: C_8  and  C_21
REMARK    6  A    between atoms: N_13  and  C_20
REMARK    7  A    between atoms: C_14  and  C_15
REMARK    8  A    between atoms: C_14  and  O_19
REMARK                            x       y       z     vdW  Elec       q    Type
REMARK                         _______ _______ _______ _____ _____    ______ ____
ROOT
ATOM      1  C   UNL     1       4.017   2.479  -1.486  0.00  0.00    +0.182 C 
ATOM      2  C   UNL     1       4.999   2.599  -0.316  0.00  0.00    +0.123 C 
ATOM      3  N   UNL     1       4.724   3.834   0.419  0.00  0.00    -0.291 N 
ATOM      4  C   UNL     1       4.205   4.909  -0.193  0.00  0.00    +0.305 C 
ATOM      5  O   UNL     1       4.006   5.915   0.462  0.00  0.00    -0.253 OA
ATOM      6  N   UNL     1       3.898   4.920  -1.498  0.00  0.00    -0.252 N 
ATOM      7  C   UNL     1       4.125   3.746  -2.343  0.00  0.00    +0.248 C 
ATOM      8  C   UNL     1       3.323   6.130  -2.091  0.00  0.00    +0.137 C 
ATOM      9  H   UNL     1       4.921   3.877   1.368  0.00  0.00    +0.151 HD
ENDROOT
BRANCH   2  10
ATOM     10  C   UNL     1       4.830   1.417   0.605  0.00  0.00    -0.026 A 
ATOM     11  C   UNL     1       3.794   1.396   1.519  0.00  0.00    +0.006 A 
ATOM     12  C   UNL     1       3.639   0.313   2.364  0.00  0.00    +0.015 A 
ATOM     13  C   UNL     1       4.521  -0.750   2.294  0.00  0.00    +0.018 A 
ATOM     14  C   UNL     1       5.559  -0.728   1.379  0.00  0.00    +0.015 A 
ATOM     15  C   UNL     1       5.713   0.355   0.535  0.00  0.00    +0.006 A 
ATOM     16 BR   UNL     1       4.311  -2.232   3.449  0.00  0.00    -0.050 Br
ENDBRANCH   2  10
BRANCH   7  17
ATOM     17  C   UNL     1       3.074   3.704  -3.454  0.00  0.00    +0.437 C 
ATOM     18  F   UNL     1       3.224   4.823  -4.281  0.00  0.00    -0.166 F 
ATOM     19  F   UNL     1       3.240   2.540  -4.211  0.00  0.00    -0.166 F 
ATOM     20  F   UNL     1       1.795   3.713  -2.887  0.00  0.00    -0.166 F 
ENDBRANCH   7  17
BRANCH   1  21
ATOM     21  C   UNL     1       4.367   1.273  -2.319  0.00  0.00    +0.317 C 
ATOM     22  O   UNL     1       5.476   1.161  -2.786  0.00  0.00    -0.250 OA
BRANCH  21  23
ATOM     23  O   UNL     1       3.446   0.322  -2.542  0.00  0.00    -0.465 OA
BRANCH  23  25
ATOM     24  C   UNL     1       2.679  -1.784  -3.496  0.00  0.00    +0.048 C 
ATOM     25  C   UNL     1       3.853  -0.812  -3.353  0.00  0.00    +0.229 C 
ENDBRANCH  23  25
ENDBRANCH  21  23
ENDBRANCH   1  21
BRANCH   7  26
ATOM     26  O   UNL     1       5.429   3.819  -2.922  0.00  0.00    -0.364 OA
ATOM     27  H   UNL     1       5.570   4.600  -3.475  0.00  0.00    +0.212 HD
ENDBRANCH   7  26
TORSDOF 6
