REMARK  Name = ZINC09747665
REMARK  11 active torsions:
REMARK  status: ('A' for Active; 'I' for Inactive)
REMARK    1  A    between atoms: C_1  and  C_2
REMARK    2  A    between atoms: C_2  and  C_3
REMARK    3  A    between atoms: C_3  and  N_70
REMARK    4  A    between atoms: C_4  and  C_5
REMARK    5  A    between atoms: C_4  and  N_70
REMARK    6  A    between atoms: C_5  and  C_6
REMARK    7  A    between atoms: C_7  and  C_8
REMARK    8  A    between atoms: C_7  and  N_70
REMARK    9  A    between atoms: C_11  and  C_13
REMARK   10  A    between atoms: C_13  and  N_14
REMARK   11  A    between atoms: C_15  and  C_17
REMARK                            x       y       z     vdW  Elec       q    Type
REMARK                         _______ _______ _______ _____ _____    ______ ____
ROOT
ATOM      1  N   UNL     1      -5.089   1.292   1.183  0.00  0.00    -0.308 N 
ATOM      2  C   UNL     1      -4.309   1.016   0.119  0.00  0.00    +0.218 C 
ATOM      3  O   UNL     1      -4.738   0.332  -0.786  0.00  0.00    -0.275 OA
ATOM      4  H   UNL     1      -4.746   1.838   1.908  0.00  0.00    +0.149 HD
ENDROOT
BRANCH   2   5
ATOM      5  C   UNL     1      -2.904   1.556   0.055  0.00  0.00    +0.092 C 
ATOM      6  C   UNL     1      -2.239   1.099  -1.246  0.00  0.00    +0.016 C 
ATOM      7  C   UNL     1      -0.793   1.602  -1.276  0.00  0.00    +0.020 C 
ATOM      8  C   UNL     1      -0.050   1.073  -0.047  0.00  0.00    +0.107 C 
ATOM      9  N   UNL     1      -0.724   1.538   1.172  0.00  0.00    -0.307 N 
ATOM     10  C   UNL     1      -2.099   1.029   1.245  0.00  0.00    +0.119 C 
ATOM     11  C   UNL     1      -0.002   1.186   2.305  0.00  0.00    +0.186 A 
ATOM     12  N   UNL     1      -0.388   0.497   3.362  0.00  0.00    -0.124 NA
ATOM     13  N   UNL     1       0.502   0.256   4.383  0.00  0.00    -0.124 NA
ATOM     14  C   UNL     1       1.732   0.724   4.307  0.00  0.00    +0.192 A 
ATOM     15  S   UNL     1       1.696   1.552   2.724  0.00  0.00    -0.015 S 
ATOM     16  N   UNL     1       2.780   0.604   5.216  0.00  0.00    -0.249 N 
ATOM     17  C   UNL     1       2.686  -0.103   6.499  0.00  0.00    +0.116 C 
ATOM     18  C   UNL     1       4.148  -0.352   6.938  0.00  0.00    +0.029 C 
ATOM     19  C   UNL     1       4.892   0.795   6.215  0.00  0.00    +0.098 C 
ATOM     20  C   UNL     1       4.005   1.127   5.035  0.00  0.00    +0.221 C 
ATOM     21  O   UNL     1       4.349   1.770   4.066  0.00  0.00    -0.275 OA
ENDBRANCH   2   5
BRANCH   1  22
ATOM     22  C   UNL     1      -6.455   0.766   1.246  0.00  0.00    +0.178 C 
BRANCH  22  26
ATOM     23  C   UNL     1      -7.768   1.250   4.619  0.00  0.00    +0.089 A 
ATOM     24  C   UNL     1      -8.242   2.369   4.042  0.00  0.00    +0.043 A 
ATOM     25  C   UNL     1      -7.817   2.347   2.694  0.00  0.00    +0.046 A 
ATOM     26  C   UNL     1      -7.109   1.216   2.527  0.00  0.00    +0.122 A 
ATOM     27  O   UNL     1      -7.087   0.553   3.695  0.00  0.00    -0.465 OA
BRANCH  23  28
ATOM     28  C   UNL     1      -7.972   0.845   6.056  0.00  0.00    -0.003 C 
BRANCH  28  29
ATOM     29  N   UNL     1      -9.277   0.160   6.173  0.00  0.00    +0.384 N 
ATOM     30  H   UNL     1      -9.972   0.669   5.615  0.00  0.00    -0.081 HD
BRANCH  29  31
ATOM     31  C   UNL     1      -9.169  -1.223   5.663  0.00  0.00    -0.078 C 
BRANCH  31  33
ATOM     32  C   UNL     1     -10.479  -3.257   5.039  0.00  0.00    +0.002 C 
ATOM     33  C   UNL     1     -10.571  -1.831   5.588  0.00  0.00    -0.022 C 
ENDBRANCH  31  33
ENDBRANCH  29  31
BRANCH  29  34
ATOM     34  C   UNL     1      -9.713   0.145   7.585  0.00  0.00    -0.078 C 
BRANCH  34  35
ATOM     35  C   UNL     1     -10.256   1.529   7.946  0.00  0.00    -0.022 C 
ATOM     36  C   UNL     1     -10.848   1.493   9.356  0.00  0.00    +0.002 C 
ENDBRANCH  34  35
ENDBRANCH  29  34
ENDBRANCH  28  29
ENDBRANCH  23  28
ENDBRANCH  22  26
ENDBRANCH   1  22
TORSDOF 9
