REMARK  Name = ZINC10646038
REMARK  5 active torsions:
REMARK  status: ('A' for Active; 'I' for Inactive)
REMARK    1  A    between atoms: C_3  and  N_19
REMARK    2  A    between atoms: C_4  and  S_10
REMARK    3  A    between atoms: C_6  and  N_7
REMARK    4  A    between atoms: S_10  and  N_13
REMARK    5  A    between atoms: C_23  and  C_26
REMARK                            x       y       z     vdW  Elec       q    Type
REMARK                         _______ _______ _______ _____ _____    ______ ____
ROOT
ATOM      1  C   UNL     1       0.266   1.207   0.858  0.00  0.00    +0.034 A 
ATOM      2  C   UNL     1       1.396   1.933   0.537  0.00  0.00    +0.027 A 
ATOM      3  C   UNL     1       1.286   3.282   0.222  0.00  0.00    +0.057 A 
ATOM      4  C   UNL     1       0.040   3.895   0.232  0.00  0.00    +0.129 A 
ATOM      5  C   UNL     1      -1.086   3.162   0.554  0.00  0.00    +0.063 A 
ATOM      6  C   UNL     1      -0.974   1.818   0.861  0.00  0.00    +0.128 A 
ENDROOT
BRANCH   3   7
ATOM      7  N   UNL     1       2.427   4.020  -0.103  0.00  0.00    -0.328 N 
ATOM      8  C   UNL     1       3.054   3.507  -1.327  0.00  0.00    +0.105 C 
ATOM      9  C   UNL     1       4.210   4.424  -1.732  0.00  0.00    +0.020 C 
ATOM     10  C   UNL     1       5.235   4.478  -0.596  0.00  0.00    +0.014 C 
ATOM     11  C   UNL     1       4.545   4.969   0.680  0.00  0.00    +0.074 C 
ATOM     12  C   UNL     1       3.379   4.036   1.015  0.00  0.00    +0.116 C 
BRANCH  11  13
ATOM     13  C   UNL     1       5.532   4.970   1.819  0.00  0.00    +0.138 A 
ATOM     14  N   UNL     1       6.114   3.924   2.341  0.00  0.00    -0.134 NA
ATOM     15  N   UNL     1       6.901   4.294   3.291  0.00  0.00    -0.134 NA
ATOM     16  C   UNL     1       6.859   5.590   3.411  0.00  0.00    +0.133 A 
ATOM     17  N   UNL     1       5.986   6.054   2.486  0.00  0.00    -0.314 N 
ATOM     18  C   UNL     1       5.593   7.448   2.282  0.00  0.00    +0.125 C 
ATOM     19  C   UNL     1       6.743   8.365   2.707  0.00  0.00    +0.022 C 
ATOM     20  C   UNL     1       6.608   8.709   4.189  0.00  0.00    +0.002 C 
ATOM     21  C   UNL     1       6.684   7.445   5.040  0.00  0.00    +0.008 C 
ATOM     22  C   UNL     1       7.635   6.440   4.383  0.00  0.00    +0.076 C 
ENDBRANCH  11  13
ENDBRANCH   3   7
BRANCH   6  23
ATOM     23  N   UNL     1      -2.183   1.035   1.200  0.00  0.00    +0.056 N 
ATOM     24  O   UNL     1      -2.085  -0.147   1.476  0.00  0.00    -0.126 OA
ATOM     25  O   UNL     1      -3.276   1.573   1.203  0.00  0.00    -0.126 OA
ENDBRANCH   6  23
BRANCH   4  26
ATOM     26  S   UNL     1      -0.106   5.605  -0.168  0.00  0.00    +0.063 S 
ATOM     27  O   UNL     1       0.820   6.295   0.661  0.00  0.00    -0.153 OA
ATOM     28  O   UNL     1      -0.074   5.695  -1.585  0.00  0.00    -0.153 OA
BRANCH  26  29
ATOM     29  N   UNL     1      -1.617   6.091   0.304  0.00  0.00    -0.172 NA
ATOM     30  C   UNL     1      -2.731   6.138  -0.656  0.00  0.00    +0.137 C 
ATOM     31  C   UNL     1      -3.924   5.386  -0.043  0.00  0.00    +0.177 C 
ATOM     32  O   UNL     1      -4.187   5.910   1.261  0.00  0.00    -0.377 OA
ATOM     33  C   UNL     1      -3.116   5.731   2.191  0.00  0.00    +0.177 C 
ATOM     34  C   UNL     1      -1.883   6.495   1.693  0.00  0.00    +0.137 C 
ENDBRANCH  26  29
ENDBRANCH   4  26
TORSDOF 5
