REMARK  Name = ZINC20219166
REMARK  19 active torsions:
REMARK  status: ('A' for Active; 'I' for Inactive)
REMARK    1  A    between atoms: C_1  and  C_2
REMARK    2  A    between atoms: C_2  and  N_3
REMARK    3  A    between atoms: N_3  and  C_4
REMARK    4  A    between atoms: N_3  and  C_6
REMARK    5  A    between atoms: C_4  and  C_5
REMARK    6  A    between atoms: C_6  and  C_7
REMARK    7  A    between atoms: C_7  and  N_8
REMARK    8  A    between atoms: C_9  and  C_30
REMARK    9  A    between atoms: C_11  and  C_16
REMARK   10  A    between atoms: C_16  and  C_18
REMARK   11  A    between atoms: C_19  and  C_29
REMARK   12  A    between atoms: C_20  and  C_25
REMARK   13  A    between atoms: C_23  and  C_24
REMARK   14  A    between atoms: C_25  and  O_27
REMARK   15  A    between atoms: O_27  and  C_28
REMARK   16  A    between atoms: C_33  and  C_36
REMARK   17  A    between atoms: C_36  and  C_37
REMARK   18  A    between atoms: C_36  and  C_38
REMARK   19  A    between atoms: C_36  and  C_39
REMARK                            x       y       z     vdW  Elec       q    Type
REMARK                         _______ _______ _______ _____ _____    ______ ____
ROOT
ATOM      1  N   UNL     1       0.756  -3.645  -3.648  0.00  0.00    -0.285 N 
ATOM      2  C   UNL     1       1.632  -4.344  -2.701  0.00  0.00    +0.145 C 
ATOM      3  C   UNL     1       1.417  -5.820  -2.938  0.00  0.00    +0.076 C 
ATOM      4  C   UNL     1       0.503  -5.928  -3.929  0.00  0.00    +0.249 C 
ATOM      5  C   UNL     1       0.093  -4.575  -4.360  0.00  0.00    +0.288 C 
ATOM      6  O   UNL     1      -0.721  -4.337  -5.231  0.00  0.00    -0.266 OA
ATOM      7  O   UNL     1       0.034  -7.089  -4.440  0.00  0.00    -0.282 OA
ENDROOT
BRANCH   2   8
ATOM      8  C   UNL     1       3.071  -3.980  -2.961  0.00  0.00    -0.022 A 
ATOM      9  C   UNL     1       3.523  -3.836  -4.260  0.00  0.00    +0.006 A 
ATOM     10  C   UNL     1       4.843  -3.502  -4.499  0.00  0.00    +0.004 A 
ATOM     11  C   UNL     1       5.711  -3.312  -3.440  0.00  0.00    -0.042 A 
ATOM     12  C   UNL     1       5.259  -3.455  -2.141  0.00  0.00    +0.004 A 
ATOM     13  C   UNL     1       3.938  -3.784  -1.902  0.00  0.00    +0.006 A 
BRANCH  11  14
ATOM     14  C   UNL     1       7.150  -2.949  -3.701  0.00  0.00    -0.013 C 
ATOM     15  C   UNL     1       7.212  -1.628  -4.470  0.00  0.00    +0.015 C 
ATOM     16  C   UNL     1       7.888  -2.797  -2.369  0.00  0.00    +0.015 C 
ATOM     17  C   UNL     1       7.813  -4.052  -4.528  0.00  0.00    +0.015 C 
ENDBRANCH  11  14
ENDBRANCH   2   8
BRANCH   3  18
ATOM     18  C   UNL     1       2.074  -6.925  -2.230  0.00  0.00    +0.197 C 
ATOM     19  O   UNL     1       3.214  -7.241  -2.519  0.00  0.00    -0.287 OA
BRANCH  18  20
ATOM     20  C   UNL     1       1.354  -7.652  -1.169  0.00  0.00    +0.046 A 
ATOM     21  C   UNL     1       1.804  -8.805  -0.487  0.00  0.00    -0.008 A 
ATOM     22  C   UNL     1       0.832  -9.144   0.408  0.00  0.00    +0.128 A 
ATOM     23  N   UNL     1      -0.198  -8.235   0.294  0.00  0.00    -0.352 N 
ATOM     24  H   UNL     1      -1.016  -8.244   0.816  0.00  0.00    +0.166 HD
ATOM     25  C   UNL     1       0.112  -7.331  -0.649  0.00  0.00    +0.025 A 
ATOM     26  C   UNL     1      -0.747  -6.167  -1.072  0.00  0.00    +0.064 C 
ATOM     27  C   UNL     1       3.110  -9.524  -0.708  0.00  0.00    +0.047 C 
BRANCH  22  28
ATOM     28  C   UNL     1       0.874 -10.282   1.332  0.00  0.00    +0.356 C 
ATOM     29  O   UNL     1       1.840 -11.021   1.342  0.00  0.00    -0.243 OA
BRANCH  28  30
ATOM     30  O   UNL     1      -0.157 -10.509   2.171  0.00  0.00    -0.463 OA
ATOM     31  C   UNL     1      -0.048 -11.635   3.043  0.00  0.00    +0.280 C 
ENDBRANCH  28  30
ENDBRANCH  22  28
ENDBRANCH  18  20
ENDBRANCH   3  18
BRANCH   1  32
ATOM     32  C   UNL     1       0.621  -2.193  -3.789  0.00  0.00    +0.090 C 
BRANCH  32  33
ATOM     33  C   UNL     1      -0.480  -1.690  -2.854  0.00  0.00    -0.060 C 
BRANCH  33  34
ATOM     34  N   UNL     1      -0.537  -0.223  -2.910  0.00  0.00    +0.380 N 
ATOM     35  H   UNL     1       0.379   0.156  -2.723  0.00  0.00    -0.082 HD
BRANCH  34  37
ATOM     36  C   UNL     1      -0.919   1.726  -4.343  0.00  0.00    -0.017 C 
ATOM     37  C   UNL     1      -0.979   0.200  -4.246  0.00  0.00    -0.082 C 
ENDBRANCH  34  37
BRANCH  34  38
ATOM     38  C   UNL     1      -1.486   0.269  -1.902  0.00  0.00    -0.082 C 
ATOM     39  C   UNL     1      -0.955  -0.050  -0.503  0.00  0.00    -0.017 C 
ENDBRANCH  34  38
ENDBRANCH  33  34
ENDBRANCH  32  33
ENDBRANCH   1  32
TORSDOF 11
