REMARK  Name = ZINC64369966
REMARK  5 active torsions:
REMARK  status: ('A' for Active; 'I' for Inactive)
REMARK    1  A    between atoms: C_4  and  O_7
REMARK    2  A    between atoms: O_7  and  C_8
REMARK    3  A    between atoms: C_8  and  C_9
REMARK    4  A    between atoms: C_13  and  N_16
REMARK    5  A    between atoms: C_17  and  C_19
REMARK                            x       y       z     vdW  Elec       q    Type
REMARK                         _______ _______ _______ _____ _____    ______ ____
ROOT
ATOM      1  N   UNL     1       8.596  -1.406  -1.135  0.00  0.00    -0.286 N 
ATOM      2  C   UNL     1       9.020  -0.601  -2.129  0.00  0.00    +0.247 C 
ATOM      3  O   UNL     1       8.288   0.267  -2.562  0.00  0.00    -0.270 OA
ATOM      4  H   UNL     1       9.151  -2.145  -0.839  0.00  0.00    +0.151 HD
ENDROOT
BRANCH   2   5
ATOM      5  C   UNL     1      10.380  -0.774  -2.695  0.00  0.00    +0.051 A 
ATOM      6  C   UNL     1      11.169  -1.820  -2.308  0.00  0.00    +0.083 A 
ATOM      7  C   UNL     1      12.504  -1.964  -2.883  0.00  0.00    +0.250 A 
ATOM      8  O   UNL     1      13.208  -2.897  -2.539  0.00  0.00    -0.268 OA
ATOM      9  N   UNL     1      12.968  -1.082  -3.786  0.00  0.00    -0.322 N 
ATOM     10  H   UNL     1      13.858  -1.201  -4.153  0.00  0.00    +0.169 HD
ATOM     11  C   UNL     1      12.204  -0.013  -4.202  0.00  0.00    +0.050 A 
ATOM     12  C   UNL     1      10.908   0.173  -3.688  0.00  0.00    +0.011 A 
ATOM     13  C   UNL     1      10.137   1.257  -4.120  0.00  0.00    +0.011 A 
ATOM     14  C   UNL     1      10.645   2.126  -5.044  0.00  0.00    +0.001 A 
ATOM     15  C   UNL     1      11.920   1.942  -5.559  0.00  0.00    +0.002 A 
ATOM     16  C   UNL     1      12.702   0.888  -5.139  0.00  0.00    +0.026 A 
ENDBRANCH   2   5
BRANCH   1  20
ATOM     17  C   UNL     1       4.974  -2.614  -0.013  0.00  0.00    +0.167 C 
ATOM     18  N   UNL     1       5.764  -2.082   1.132  0.00  0.00    -0.238 NA
ATOM     19  N   UNL     1       7.171  -1.915   0.788  0.00  0.00    -0.226 NA
ATOM     20  C   UNL     1       7.298  -1.165  -0.501  0.00  0.00    +0.217 C 
ATOM     21  S   UNL     1       5.926  -1.960  -1.448  0.00  0.00    -0.098 S 
ATOM     22  H   UNL     1       5.371  -1.217   1.473  0.00  0.00    +0.142 HD
ATOM     23  H   UNL     1       7.672  -1.448   1.529  0.00  0.00    +0.143 HD
BRANCH  17  24
ATOM     24  C   UNL     1       3.548  -2.059  -0.001  0.00  0.00    +0.260 C 
BRANCH  24  25
ATOM     25  O   UNL     1       3.592  -0.631  -0.019  0.00  0.00    -0.490 OA
BRANCH  25  29
ATOM     26  C   UNL     1      -0.023   1.356   0.002  0.00  0.00    +0.000 A 
ATOM     27  C   UNL     1       1.158   2.074  -0.022  0.00  0.00    +0.004 A 
ATOM     28  C   UNL     1       2.370   1.411  -0.029  0.00  0.00    +0.045 A 
ATOM     29  C   UNL     1       2.401   0.024  -0.012  0.00  0.00    +0.121 A 
ATOM     30  C   UNL     1       1.214  -0.694   0.013  0.00  0.00    +0.045 A 
ATOM     31  C   UNL     1       0.005  -0.026   0.020  0.00  0.00    +0.004 A 
ENDBRANCH  25  29
ENDBRANCH  24  25
ENDBRANCH  17  24
ENDBRANCH   1  20
TORSDOF 5
