REMARK  Name = ZINC20348462
REMARK  12 active torsions:
REMARK  status: ('A' for Active; 'I' for Inactive)
REMARK    1  A    between atoms: C_1  and  C_2
REMARK    2  A    between atoms: C_7  and  N_8
REMARK    3  A    between atoms: C_9  and  C_11
REMARK    4  A    between atoms: C_11  and  S_12
REMARK    5  A    between atoms: S_12  and  C_13
REMARK    6  A    between atoms: C_14  and  C_34
REMARK    7  A    between atoms: C_15  and  C_27
REMARK    8  A    between atoms: C_17  and  C_21
REMARK    9  A    between atoms: C_18  and  C_20
REMARK   10  A    between atoms: C_21  and  O_23
REMARK   11  A    between atoms: O_23  and  C_24
REMARK   12  A    between atoms: C_24  and  C_25
REMARK                            x       y       z     vdW  Elec       q    Type
REMARK                         _______ _______ _______ _____ _____    ______ ____
ROOT
ATOM      1  C   UNL     1      -3.838   0.722   1.322  0.00  0.00    +0.080 C 
ATOM      2  C   UNL     1      -2.813  -0.142   1.094  0.00  0.00    +0.069 C 
ATOM      3  C   UNL     1      -2.259  -0.347  -0.288  0.00  0.00    +0.102 C 
ATOM      4  C   UNL     1      -3.205   0.185  -1.327  0.00  0.00    +0.066 C 
ATOM      5  C   UNL     1      -4.202   1.027  -1.009  0.00  0.00    +0.016 C 
ATOM      6  N   UNL     1      -4.401   1.429   0.283  0.00  0.00    -0.312 N 
ATOM      7  C   UNL     1      -5.117   1.537  -2.093  0.00  0.00    +0.061 C 
ATOM      8  H   UNL     1      -5.011   2.320   0.491  0.00  0.00    +0.152 HD
ENDROOT
BRANCH   3   9
ATOM      9  C   UNL     1      -0.940   0.372  -0.405  0.00  0.00    -0.016 A 
ATOM     10  C   UNL     1      -0.884   1.744  -0.243  0.00  0.00    +0.006 A 
ATOM     11  C   UNL     1       0.326   2.404  -0.351  0.00  0.00    +0.000 A 
ATOM     12  C   UNL     1       1.481   1.692  -0.621  0.00  0.00    +0.001 A 
ATOM     13  C   UNL     1       1.425   0.321  -0.783  0.00  0.00    +0.020 A 
ATOM     14  C   UNL     1       0.215  -0.340  -0.675  0.00  0.00    +0.045 A 
ATOM     15 CL   UNL     1       0.145  -2.063  -0.878  0.00  0.00    -0.083 Cl
ENDBRANCH   3   9
BRANCH   4  16
ATOM     16  C   UNL     1      -3.042  -0.212  -2.673  0.00  0.00    +0.338 C 
ATOM     17  O   UNL     1      -3.858   0.127  -3.510  0.00  0.00    -0.245 OA
BRANCH  16  18
ATOM     18  O   UNL     1      -1.982  -0.966  -3.031  0.00  0.00    -0.457 OA
BRANCH  18  19
ATOM     19  C   UNL     1      -1.880  -1.330  -4.409  0.00  0.00    +0.259 C 
BRANCH  19  20
ATOM     20  C   UNL     1      -0.643  -2.165  -4.618  0.00  0.00    +0.006 C 
ATOM     21  C   UNL     1      -0.702  -3.253  -5.346  0.00  0.00    +0.007 C 
ENDBRANCH  19  20
ENDBRANCH  18  19
ENDBRANCH  16  18
ENDBRANCH   4  16
BRANCH   2  22
ATOM     22  C   UNL     1      -2.251  -0.871   2.190  0.00  0.00    +0.098 C 
ATOM     23  N   UNL     1      -1.804  -1.449   3.061  0.00  0.00    -0.191 NA
ENDBRANCH   2  22
BRANCH   1  24
ATOM     24  S   UNL     1      -4.450   0.939   2.960  0.00  0.00    -0.100 S 
BRANCH  24  25
ATOM     25  C   UNL     1      -5.753   2.157   2.650  0.00  0.00    +0.171 C 
BRANCH  25  27
ATOM     26  N   UNL     1      -7.444   3.397   3.961  0.00  0.00    -0.285 N 
ATOM     27  C   UNL     1      -6.435   2.504   3.948  0.00  0.00    +0.227 C 
ATOM     28  O   UNL     1      -6.076   1.979   4.981  0.00  0.00    -0.275 OA
ATOM     29  H   UNL     1      -7.817   3.820   3.017  0.00  0.00    +0.155 HD
BRANCH  26  36
ATOM     30  C   UNL     1      -8.359   6.080   4.215  0.00  0.00    +0.045 C 
ATOM     31  C   UNL     1      -8.477   5.087   5.343  0.00  0.00    -0.029 A 
ATOM     32  C   UNL     1      -9.042   5.469   6.545  0.00  0.00    +0.005 A 
ATOM     33  C   UNL     1      -9.151   4.559   7.580  0.00  0.00    +0.000 A 
ATOM     34  C   UNL     1      -8.694   3.264   7.417  0.00  0.00    +0.002 A 
ATOM     35  C   UNL     1      -8.133   2.874   6.217  0.00  0.00    +0.023 A 
ATOM     36  C   UNL     1      -8.017   3.788   5.177  0.00  0.00    +0.036 A 
ENDBRANCH  26  36
ENDBRANCH  25  27
ENDBRANCH  24  25
ENDBRANCH   1  24
TORSDOF 10
