REMARK  Name = ZINC21225360
REMARK  11 active torsions:
REMARK  status: ('A' for Active; 'I' for Inactive)
REMARK    1  A    between atoms: C_1  and  C_2
REMARK    2  A    between atoms: C_2  and  O_3
REMARK    3  A    between atoms: O_3  and  C_4
REMARK    4  A    between atoms: C_6  and  C_12
REMARK    5  A    between atoms: C_9  and  O_10
REMARK    6  A    between atoms: C_17  and  C_22
REMARK    7  A    between atoms: C_25  and  O_28
REMARK    8  A    between atoms: O_28  and  C_29
REMARK    9  A    between atoms: C_29  and  C_30
REMARK   10  A    between atoms: C_30  and  C_31
REMARK   11  A    between atoms: C_30  and  C_32
REMARK                            x       y       z     vdW  Elec       q    Type
REMARK                         _______ _______ _______ _____ _____    ______ ____
ROOT
ATOM      1  C   UNL     1       1.789   4.117   1.260  0.00  0.00    +0.136 C 
ATOM      2  C   UNL     1       3.254   3.782   1.395  0.00  0.00    +0.036 C 
ATOM      3  C   UNL     1       3.923   2.863   0.675  0.00  0.00    +0.017 C 
ATOM      4  C   UNL     1       5.408   2.637   0.900  0.00  0.00    +0.059 C 
ATOM      5  C   UNL     1       5.758   2.889   2.365  0.00  0.00    +0.032 C 
ATOM      6  C   UNL     1       5.381   4.339   2.692  0.00  0.00    +0.088 C 
ATOM      7  C   UNL     1       3.927   4.535   2.385  0.00  0.00    +0.163 C 
ATOM      8  O   UNL     1       3.304   5.372   3.010  0.00  0.00    -0.292 OA
ATOM      9  N   UNL     1       3.366   2.091  -0.292  0.00  0.00    -0.316 N 
ATOM     10  C   UNL     1       2.160   1.412  -0.171  0.00  0.00    +0.052 A 
ATOM     11  C   UNL     1       2.082   0.030  -0.215  0.00  0.00    +0.025 A 
ATOM     12  C   UNL     1       0.840  -0.580  -0.181  0.00  0.00    +0.002 A 
ATOM     13  C   UNL     1      -0.312   0.182  -0.104  0.00  0.00    +0.002 A 
ATOM     14  C   UNL     1      -0.235   1.563  -0.042  0.00  0.00    +0.025 A 
ATOM     15  C   UNL     1       1.008   2.175  -0.058  0.00  0.00    +0.049 A 
ATOM     16  N   UNL     1       1.145   3.555   0.092  0.00  0.00    -0.331 N 
ATOM     17  H   UNL     1       3.875   1.968  -1.259  0.00  0.00    +0.152 HD
ATOM     18  H   UNL     1       0.754   4.219  -0.694  0.00  0.00    +0.147 HD
ENDROOT
BRANCH   1  21
ATOM     19  C   UNL     1      -0.173   4.050   4.488  0.00  0.00    +0.163 A 
ATOM     20  C   UNL     1       0.490   4.511   3.362  0.00  0.00    +0.055 A 
ATOM     21  C   UNL     1       1.074   3.614   2.487  0.00  0.00    -0.018 A 
ATOM     22  C   UNL     1       1.008   2.256   2.739  0.00  0.00    +0.029 A 
ATOM     23  C   UNL     1       0.353   1.789   3.864  0.00  0.00    +0.086 A 
ATOM     24  C   UNL     1      -0.240   2.684   4.742  0.00  0.00    +0.177 A 
ATOM     25 CL   UNL     1       0.273   0.083   4.177  0.00  0.00    -0.080 Cl
BRANCH  24  26
ATOM     26  O   UNL     1      -0.885   2.227   5.849  0.00  0.00    -0.502 OA
ATOM     27  H   UNL     1      -0.937   1.146   6.048  0.00  0.00    +0.292 HD
ENDBRANCH  24  26
BRANCH  19  28
ATOM     28  O   UNL     1      -0.753   4.931   5.346  0.00  0.00    -0.489 OA
BRANCH  28  30
ATOM     29  C   UNL     1      -1.352   7.150   6.095  0.00  0.00    +0.048 C 
ATOM     30  C   UNL     1      -0.645   6.319   5.022  0.00  0.00    +0.226 C 
ENDBRANCH  28  30
ENDBRANCH  19  28
ENDBRANCH   1  21
BRANCH   5  31
ATOM     31  C   UNL     1       7.236   2.683   2.580  0.00  0.00    -0.043 A 
ATOM     32  C   UNL     1       8.148   3.451   1.881  0.00  0.00    +0.007 A 
ATOM     33  C   UNL     1       9.503   3.268   2.081  0.00  0.00    +0.046 A 
ATOM     34  C   UNL     1       9.947   2.304   2.974  0.00  0.00    +0.121 A 
ATOM     35  C   UNL     1       9.030   1.531   3.670  0.00  0.00    +0.046 A 
ATOM     36  C   UNL     1       7.676   1.722   3.471  0.00  0.00    +0.007 A 
BRANCH  34  37
ATOM     37  O   UNL     1      11.280   2.119   3.168  0.00  0.00    -0.492 OA
BRANCH  37  38
ATOM     38  C   UNL     1      12.166   2.951   2.418  0.00  0.00    +0.232 C 
BRANCH  38  39
ATOM     39  C   UNL     1      13.614   2.599   2.767  0.00  0.00    +0.020 C 
ATOM     40  C   UNL     1      14.563   3.401   1.875  0.00  0.00    +0.010 C 
ATOM     41  C   UNL     1      13.882   2.941   4.234  0.00  0.00    +0.010 C 
ENDBRANCH  38  39
ENDBRANCH  37  38
ENDBRANCH  34  37
ENDBRANCH   5  31
TORSDOF 8
