REMARK  Name = ZINC41001923
REMARK  15 active torsions:
REMARK  status: ('A' for Active; 'I' for Inactive)
REMARK    1  A    between atoms: C_1  and  C_2
REMARK    2  A    between atoms: C_2  and  C_3
REMARK    3  A    between atoms: C_3  and  O_4
REMARK    4  A    between atoms: O_4  and  C_5
REMARK    5  A    between atoms: C_5  and  C_7
REMARK    6  A    between atoms: C_8  and  C_37
REMARK    7  A    between atoms: C_12  and  S_34
REMARK    8  A    between atoms: C_15  and  C_17
REMARK    9  A    between atoms: C_20  and  O_25
REMARK   10  A    between atoms: C_21  and  O_23
REMARK   11  A    between atoms: O_23  and  C_24
REMARK   12  A    between atoms: O_25  and  C_26
REMARK   13  A    between atoms: C_26  and  C_27
REMARK   14  A    between atoms: S_34  and  C_35
REMARK   15  A    between atoms: C_35  and  C_36
REMARK                            x       y       z     vdW  Elec       q    Type
REMARK                         _______ _______ _______ _____ _____    ______ ____
ROOT
ATOM      1  C   UNL     1      -2.694  -4.015  -0.201  0.00  0.00    +0.082 C 
ATOM      2  C   UNL     1      -3.862  -4.597   0.112  0.00  0.00    +0.020 C 
ATOM      3  N   UNL     1      -3.973  -5.950   0.312  0.00  0.00    -0.287 N 
ATOM      4  C   UNL     1      -2.901  -6.744  -0.071  0.00  0.00    +0.219 A 
ATOM      5  N   UNL     1      -2.820  -8.040  -0.201  0.00  0.00    -0.187 NA
ATOM      6  C   UNL     1      -1.584  -8.374  -0.601  0.00  0.00    +0.210 A 
ATOM      7  N   UNL     1      -0.865  -7.280  -0.728  0.00  0.00    -0.141 NA
ATOM      8  N   UNL     1      -1.695  -6.213  -0.387  0.00  0.00    -0.220 N 
ATOM      9  C   UNL     1      -1.407  -4.782  -0.352  0.00  0.00    +0.179 C 
ATOM     10  C   UNL     1      -5.092  -3.737   0.247  0.00  0.00    +0.061 C 
ATOM     11  H   UNL     1      -4.771  -6.337   0.707  0.00  0.00    +0.155 HD
ENDROOT
BRANCH   9  12
ATOM     12  C   UNL     1      -0.504  -4.485   0.818  0.00  0.00    -0.015 A 
ATOM     13  C   UNL     1      -0.918  -4.784   2.102  0.00  0.00    +0.010 A 
ATOM     14  C   UNL     1      -0.094  -4.513   3.178  0.00  0.00    +0.050 A 
ATOM     15  C   UNL     1       1.151  -3.941   2.970  0.00  0.00    +0.162 A 
ATOM     16  C   UNL     1       1.568  -3.640   1.677  0.00  0.00    +0.162 A 
ATOM     17  C   UNL     1       0.738  -3.918   0.603  0.00  0.00    +0.055 A 
BRANCH  16  18
ATOM     18  O   UNL     1       2.789  -3.078   1.468  0.00  0.00    -0.491 OA
ATOM     19  C   UNL     1       3.150  -2.797   0.114  0.00  0.00    +0.277 C 
ENDBRANCH  16  18
BRANCH  15  20
ATOM     20  O   UNL     1       1.963  -3.673   4.028  0.00  0.00    -0.484 OA
BRANCH  20  21
ATOM     21  C   UNL     1       1.470  -4.008   5.326  0.00  0.00    +0.264 C 
BRANCH  21  22
ATOM     22  C   UNL     1       2.498  -3.642   6.365  0.00  0.00    -0.010 A 
ATOM     23  C   UNL     1       3.459  -4.563   6.740  0.00  0.00    +0.008 A 
ATOM     24  C   UNL     1       4.403  -4.228   7.692  0.00  0.00    +0.020 A 
ATOM     25  C   UNL     1       4.387  -2.971   8.270  0.00  0.00    +0.041 A 
ATOM     26  C   UNL     1       3.425  -2.050   7.894  0.00  0.00    +0.020 A 
ATOM     27  C   UNL     1       2.485  -2.384   6.938  0.00  0.00    +0.008 A 
ATOM     28 CL   UNL     1       5.572  -2.550   9.467  0.00  0.00    -0.084 Cl
ENDBRANCH  21  22
ENDBRANCH  20  21
ENDBRANCH  15  20
ENDBRANCH   9  12
BRANCH   1  29
ATOM     29  C   UNL     1      -2.671  -2.617  -0.402  0.00  0.00    +0.339 C 
ATOM     30  O   UNL     1      -2.697  -2.164  -1.532  0.00  0.00    -0.245 OA
BRANCH  29  31
ATOM     31  O   UNL     1      -2.621  -1.782   0.657  0.00  0.00    -0.461 OA
BRANCH  31  32
ATOM     32  C   UNL     1      -2.601  -0.381   0.380  0.00  0.00    +0.232 C 
BRANCH  32  34
ATOM     33  C   UNL     1      -2.522   1.900   1.397  0.00  0.00    +0.007 C 
ATOM     34  C   UNL     1      -2.544   0.399   1.695  0.00  0.00    +0.038 C 
ENDBRANCH  32  34
ENDBRANCH  31  32
ENDBRANCH  29  31
ENDBRANCH   1  29
BRANCH   6  35
ATOM     35  S   UNL     1      -1.015 -10.013  -0.907  0.00  0.00    -0.085 S 
BRANCH  35  36
ATOM     36  C   UNL     1      -2.460 -11.052  -0.556  0.00  0.00    +0.074 C 
ATOM     37  C   UNL     1      -2.100 -12.521  -0.785  0.00  0.00    +0.016 C 
ENDBRANCH  35  36
ENDBRANCH   6  35
TORSDOF 11
