REMARK  Name = ZINC64502462
REMARK  6 active torsions:
REMARK  status: ('A' for Active; 'I' for Inactive)
REMARK    1  A    between atoms: C_1  and  C_2
REMARK    2  A    between atoms: C_6  and  C_8
REMARK    3  A    between atoms: C_10  and  C_13
REMARK    4  A    between atoms: C_13  and  S_14
REMARK    5  A    between atoms: S_14  and  C_15
REMARK    6  A    between atoms: C_25  and  C_27
REMARK                            x       y       z     vdW  Elec       q    Type
REMARK                         _______ _______ _______ _____ _____    ______ ____
ROOT
ATOM      1  C   UNL     1       1.684  -8.152   5.239  0.00  0.00    +0.272 C 
ATOM      2  N   UNL     1       0.925  -8.145   6.503  0.00  0.00    -0.163 NA
ATOM      3  N   UNL     1       0.157  -9.049   6.840  0.00  0.00    -0.081 NA
ATOM      4  C   UNL     1      -0.051 -10.172   6.106  0.00  0.00    +0.276 C 
ATOM      5  O   UNL     1      -0.891 -10.986   6.409  0.00  0.00    -0.270 OA
ATOM      6  C   UNL     1       0.820 -10.346   4.899  0.00  0.00    +0.193 C 
ATOM      7  N   UNL     1       0.948  -8.976   4.306  0.00  0.00    -0.178 NA
ATOM      8  N   UNL     1       1.412  -9.277   3.071  0.00  0.00    -0.274 N 
ATOM      9  C   UNL     1       0.627 -10.376   2.648  0.00  0.00    +0.047 C 
ATOM     10  C   UNL     1       0.221 -11.096   3.740  0.00  0.00    +0.027 C 
ATOM     11  H   UNL     1       2.126  -8.837   2.583  0.00  0.00    +0.167 HD
ENDROOT
BRANCH   9  12
ATOM     12  C   UNL     1       0.304 -10.706   1.241  0.00  0.00    -0.003 A 
ATOM     13  C   UNL     1      -0.488 -11.816   0.947  0.00  0.00    +0.012 A 
ATOM     14  C   UNL     1      -0.786 -12.119  -0.365  0.00  0.00    +0.039 A 
ATOM     15  C   UNL     1      -0.300 -11.323  -1.390  0.00  0.00    +0.123 A 
ATOM     16  C   UNL     1       0.487 -10.220  -1.103  0.00  0.00    +0.039 A 
ATOM     17  C   UNL     1       0.786  -9.905   0.206  0.00  0.00    +0.012 A 
ATOM     18  F   UNL     1      -0.595 -11.625  -2.674  0.00  0.00    -0.205 F 
ENDBRANCH   9  12
BRANCH   1  19
ATOM     19  S   UNL     1       1.828  -6.462   4.594  0.00  0.00    -0.106 S 
BRANCH  19  20
ATOM     20  C   UNL     1       0.108  -5.926   4.382  0.00  0.00    +0.171 C 
BRANCH  20  23
ATOM     21  C   UNL     1       0.051  -2.846   2.464  0.00  0.00    +0.202 A 
ATOM     22  N   UNL     1       0.075  -4.185   2.585  0.00  0.00    -0.191 NA
ATOM     23  C   UNL     1       0.083  -4.518   3.844  0.00  0.00    +0.238 A 
ATOM     24  O   UNL     1       0.066  -3.400   4.580  0.00  0.00    -0.337 OA
ATOM     25  N   UNL     1       0.051  -2.316   3.662  0.00  0.00    -0.056 NA
BRANCH  21  31
ATOM     26  C   UNL     1      -0.018   1.503   0.010  0.00  0.00    +0.044 C 
ATOM     27  C   UNL     1       0.002  -0.004   0.002  0.00  0.00    -0.050 A 
ATOM     28  C   UNL     1       0.006  -0.688  -1.201  0.00  0.00    +0.003 A 
ATOM     29  C   UNL     1       0.024  -2.071  -1.216  0.00  0.00    +0.001 A 
ATOM     30  C   UNL     1       0.039  -2.776  -0.029  0.00  0.00    +0.012 A 
ATOM     31  C   UNL     1       0.036  -2.092   1.185  0.00  0.00    +0.023 A 
ATOM     32  C   UNL     1       0.023  -0.699   1.194  0.00  0.00    +0.015 A 
ENDBRANCH  21  31
ENDBRANCH  20  23
ENDBRANCH  19  20
ENDBRANCH   1  19
TORSDOF 5
