REMARK  Name = ZINC22802141
REMARK  8 active torsions:
REMARK  status: ('A' for Active; 'I' for Inactive)
REMARK    1  A    between atoms: C_1  and  C_2
REMARK    2  A    between atoms: C_2  and  C_3
REMARK    3  A    between atoms: C_2  and  C_4
REMARK    4  A    between atoms: C_7  and  N_10
REMARK    5  A    between atoms: N_13  and  C_17
REMARK    6  A    between atoms: C_17  and  N_18
REMARK    7  A    between atoms: N_21  and  C_24
REMARK    8  A    between atoms: C_24  and  C_25
REMARK                            x       y       z     vdW  Elec       q    Type
REMARK                         _______ _______ _______ _____ _____    ______ ____
ROOT
ATOM      1  C   UNL     1      -0.320   8.563  -1.631  0.00  0.00    +0.232 C 
ENDROOT
BRANCH   1   5
ATOM      2  N   UNL     1       2.528   8.823  -5.612  0.00  0.00    -0.292 N 
ATOM      3  C   UNL     1       2.068   9.174  -4.349  0.00  0.00    +0.185 A 
ATOM      4  N   UNL     1       1.088   8.653  -3.657  0.00  0.00    -0.146 NA
ATOM      5  N   UNL     1       0.777   9.142  -2.409  0.00  0.00    -0.234 N 
ATOM      6  C   UNL     1       1.505  10.176  -1.916  0.00  0.00    +0.146 A 
ATOM      7  S   UNL     1       1.357  10.995  -0.420  0.00  0.00    -0.023 S 
ATOM      8  S   UNL     1       2.660  10.451  -3.251  0.00  0.00    -0.026 S 
ATOM      9  H   UNL     1       2.116   7.941  -6.122  0.00  0.00    +0.154 HD
BRANCH   2  13
ATOM     10  C   UNL     1       5.471  11.115  -7.464  0.00  0.00    -0.045 A 
ATOM     11  C   UNL     1       5.423   9.749  -7.678  0.00  0.00    +0.006 A 
ATOM     12  C   UNL     1       4.449   8.987  -7.066  0.00  0.00    +0.023 A 
ATOM     13  C   UNL     1       3.516   9.592  -6.233  0.00  0.00    +0.033 A 
ATOM     14  C   UNL     1       3.564  10.965  -6.024  0.00  0.00    +0.023 A 
ATOM     15  C   UNL     1       4.545  11.721  -6.635  0.00  0.00    +0.006 A 
BRANCH  10  17
ATOM     16  C   UNL     1       5.877  12.998  -9.025  0.00  0.00    +0.012 C 
ATOM     17  C   UNL     1       6.537  11.944  -8.134  0.00  0.00    +0.013 C 
ATOM     18  C   UNL     1       7.389  12.637  -7.069  0.00  0.00    +0.012 C 
ENDBRANCH  10  17
ENDBRANCH   2  13
ENDBRANCH   1   5
BRANCH   1  19
ATOM     19  N   UNL     1       0.195   7.468  -0.797  0.00  0.00    -0.281 NA
ATOM     20  C   UNL     1      -0.904   6.710  -0.184  0.00  0.00    +0.101 C 
ATOM     21  C   UNL     1      -0.327   5.632   0.736  0.00  0.00    +0.100 C 
ATOM     22  N   UNL     1       0.550   4.746  -0.042  0.00  0.00    -0.293 NA
ATOM     23  C   UNL     1       1.650   5.504  -0.655  0.00  0.00    +0.100 C 
ATOM     24  C   UNL     1       1.072   6.582  -1.575  0.00  0.00    +0.101 C 
BRANCH  22  25
ATOM     25  C   UNL     1       1.066   3.652   0.791  0.00  0.00    +0.160 C 
BRANCH  25  26
ATOM     26  C   UNL     1       1.753   2.635  -0.084  0.00  0.00    +0.148 A 
ATOM     27  N   UNL     1       3.016   2.628  -0.420  0.00  0.00    -0.133 NA
ATOM     28  N   UNL     1       3.260   1.610  -1.170  0.00  0.00    -0.134 NA
ATOM     29  C   UNL     1       2.167   0.923  -1.340  0.00  0.00    +0.133 A 
ATOM     30  N   UNL     1       1.179   1.561  -0.669  0.00  0.00    -0.314 N 
ATOM     31  C   UNL     1      -0.227   1.163  -0.605  0.00  0.00    +0.125 C 
ATOM     32  C   UNL     1      -0.335  -0.354  -0.775  0.00  0.00    +0.022 C 
ATOM     33  C   UNL     1      -0.465  -0.698  -2.259  0.00  0.00    +0.002 C 
ATOM     34  C   UNL     1       0.769  -0.232  -3.025  0.00  0.00    +0.008 C 
ATOM     35  C   UNL     1       2.005  -0.351  -2.128  0.00  0.00    +0.076 C 
ENDBRANCH  25  26
ENDBRANCH  22  25
ENDBRANCH   1  19
TORSDOF 6
