REMARK  Name = ZINC12491680
REMARK  14 active torsions:
REMARK  status: ('A' for Active; 'I' for Inactive)
REMARK    1  A    between atoms: C_1  and  C_2
REMARK    2  A    between atoms: C_4  and  C_38
REMARK    3  A    between atoms: C_6  and  N_8
REMARK    4  A    between atoms: N_8  and  C_9
REMARK    5  A    between atoms: C_9  and  C_11
REMARK    6  A    between atoms: C_9  and  C_18
REMARK    7  A    between atoms: N_20  and  C_21
REMARK    8  A    between atoms: C_21  and  C_22
REMARK    9  A    between atoms: C_21  and  C_23
REMARK   10  A    between atoms: C_21  and  C_24
REMARK   11  A    between atoms: C_25  and  C_27
REMARK   12  A    between atoms: C_27  and  C_28
REMARK   13  A    between atoms: C_28  and  C_29
REMARK   14  A    between atoms: C_34  and  C_37
REMARK                            x       y       z     vdW  Elec       q    Type
REMARK                         _______ _______ _______ _____ _____    ______ ____
ROOT
ATOM      1  N   UNL     1      -6.231  -3.516  -0.181  0.00  0.00    -0.255 N 
ATOM      2  C   UNL     1      -5.779  -2.253  -0.306  0.00  0.00    +0.221 C 
ATOM      3  O   UNL     1      -6.546  -1.320  -0.192  0.00  0.00    -0.275 OA
ENDROOT
BRANCH   1   9
ATOM      4  C   UNL     1      -2.678  -6.114   2.010  0.00  0.00    +0.044 C 
ATOM      5  C   UNL     1      -3.598  -5.870   0.841  0.00  0.00    -0.048 A 
ATOM      6  C   UNL     1      -3.552  -6.706  -0.260  0.00  0.00    +0.006 A 
ATOM      7  C   UNL     1      -4.394  -6.485  -1.335  0.00  0.00    -0.048 A 
ATOM      8  C   UNL     1      -5.283  -5.429  -1.311  0.00  0.00    +0.027 A 
ATOM      9  C   UNL     1      -5.332  -4.588  -0.208  0.00  0.00    +0.038 A 
ATOM     10  C   UNL     1      -4.481  -4.808   0.868  0.00  0.00    +0.027 A 
ATOM     11  C   UNL     1      -4.341  -7.399  -2.532  0.00  0.00    +0.044 C 
ENDBRANCH   1   9
BRANCH   1  12
ATOM     12  C   UNL     1      -7.665  -3.768  -0.019  0.00  0.00    +0.199 C 
BRANCH  12  13
ATOM     13  C   UNL     1      -8.389  -3.390  -1.285  0.00  0.00    +0.000 A 
ATOM     14  C   UNL     1      -7.728  -3.436  -2.499  0.00  0.00    +0.007 A 
ATOM     15  C   UNL     1      -8.391  -3.088  -3.661  0.00  0.00    +0.000 A 
ATOM     16  C   UNL     1      -9.716  -2.695  -3.610  0.00  0.00    +0.001 A 
ATOM     17  C   UNL     1     -10.378  -2.649  -2.398  0.00  0.00    +0.020 A 
ATOM     18  C   UNL     1      -9.716  -3.002  -1.235  0.00  0.00    +0.046 A 
ATOM     19 CL   UNL     1     -10.548  -2.951   0.288  0.00  0.00    -0.083 Cl
ENDBRANCH  12  13
BRANCH  12  20
ATOM     20  C   UNL     1      -7.889  -5.230   0.270  0.00  0.00    +0.239 C 
ATOM     21  O   UNL     1      -6.943  -5.956   0.492  0.00  0.00    -0.273 OA
ATOM     22  N   UNL     1      -9.140  -5.731   0.281  0.00  0.00    -0.309 N 
ATOM     23  H   UNL     1      -9.897  -5.151   0.102  0.00  0.00    +0.149 HD
BRANCH  22  24
ATOM     24  C   UNL     1      -9.358  -7.153   0.561  0.00  0.00    +0.026 C 
ATOM     25  C   UNL     1      -8.814  -7.487   1.951  0.00  0.00    +0.031 C 
ATOM     26  C   UNL     1     -10.856  -7.458   0.512  0.00  0.00    +0.031 C 
ATOM     27  C   UNL     1      -8.631  -7.997  -0.488  0.00  0.00    +0.031 C 
ENDBRANCH  22  24
ENDBRANCH  12  20
ENDBRANCH   1  12
BRANCH   2  28
ATOM     28  C   UNL     1      -4.320  -1.999  -0.586  0.00  0.00    +0.105 C 
BRANCH  28  29
ATOM     29  C   UNL     1      -4.096  -0.502  -0.807  0.00  0.00    +0.105 C 
BRANCH  29  30
ATOM     30  C   UNL     1      -2.637  -0.248  -1.087  0.00  0.00    +0.219 C 
ATOM     31  O   UNL     1      -1.854  -1.174  -1.108  0.00  0.00    -0.275 OA
ATOM     32  N   UNL     1      -2.203   1.007  -1.314  0.00  0.00    -0.268 N 
ATOM     33  C   UNL     1      -0.853   1.242  -1.573  0.00  0.00    +0.168 A 
ATOM     34  C   UNL     1       0.185   0.274  -1.632  0.00  0.00    +0.091 A 
ATOM     35  C   UNL     1       1.291   0.999  -1.916  0.00  0.00    +0.136 A 
ATOM     36  O   UNL     1       0.900   2.278  -2.002  0.00  0.00    -0.358 OA
ATOM     37  N   UNL     1      -0.288   2.397  -1.807  0.00  0.00    -0.063 NA
ATOM     38  C   UNL     1       2.691   0.471  -2.099  0.00  0.00    +0.089 C 
ATOM     39  H   UNL     1      -2.829   1.748  -1.297  0.00  0.00    +0.156 HD
ENDBRANCH  29  30
ENDBRANCH  28  29
ENDBRANCH   2  28
TORSDOF 8
