REMARK  Name = ZINC38872796
REMARK  10 active torsions:
REMARK  status: ('A' for Active; 'I' for Inactive)
REMARK    1  A    between atoms: C_1  and  C_2
REMARK    2  A    between atoms: C_2  and  C_3
REMARK    3  A    between atoms: C_3  and  C_5
REMARK    4  A    between atoms: C_3  and  N_6
REMARK    5  A    between atoms: C_7  and  C_9
REMARK    6  A    between atoms: C_14  and  N_15
REMARK    7  A    between atoms: C_16  and  C_18
REMARK    8  A    between atoms: N_21  and  C_24
REMARK    9  A    between atoms: C_24  and  C_25
REMARK   10  A    between atoms: C_27  and  C_30
REMARK                            x       y       z     vdW  Elec       q    Type
REMARK                         _______ _______ _______ _____ _____    ______ ____
ROOT
ATOM      1  N   UNL     1       1.818   0.497  -6.032  0.00  0.00    -0.285 N 
ATOM      2  C   UNL     1       2.495   0.818  -7.153  0.00  0.00    +0.220 C 
ATOM      3  O   UNL     1       1.912   1.313  -8.093  0.00  0.00    -0.275 OA
ATOM      4  H   UNL     1       2.294   0.157  -5.259  0.00  0.00    +0.155 HD
ENDROOT
BRANCH   2   5
ATOM      5  C   UNL     1       3.978   0.559  -7.237  0.00  0.00    +0.072 C 
ATOM      6  C   UNL     1       4.698   1.350  -6.141  0.00  0.00    -0.006 C 
ATOM      7  C   UNL     1       6.208   1.146  -6.282  0.00  0.00    -0.077 C 
ATOM      8  N   UNL     1       6.649   1.621  -7.600  0.00  0.00    +0.386 N 
ATOM      9  C   UNL     1       6.016   0.819  -8.655  0.00  0.00    -0.077 C 
ATOM     10  C   UNL     1       4.499   1.010  -8.605  0.00  0.00    -0.006 C 
ATOM     11  H   UNL     1       6.388   2.589  -7.712  0.00  0.00    -0.081 HD
BRANCH   8  12
ATOM     12  C   UNL     1       8.109   1.495  -7.701  0.00  0.00    +0.022 C 
BRANCH  12  13
ATOM     13  C   UNL     1       8.576   2.094  -9.002  0.00  0.00    +0.211 A 
ATOM     14  N   UNL     1       8.930   3.334  -9.185  0.00  0.00    -0.192 NA
ATOM     15  C   UNL     1       9.290   3.526 -10.469  0.00  0.00    +0.209 A 
ATOM     16  N   UNL     1       9.164   2.389 -11.113  0.00  0.00    -0.056 NA
ATOM     17  O   UNL     1       8.702   1.439 -10.164  0.00  0.00    -0.340 OA
BRANCH  15  18
ATOM     18  C   UNL     1       9.751   4.802 -11.053  0.00  0.00    +0.060 A 
ATOM     19  C   UNL     1      10.128   5.075 -12.342  0.00  0.00    +0.019 A 
ATOM     20  C   UNL     1      10.524   6.354 -12.659  0.00  0.00    +0.008 A 
ATOM     21  C   UNL     1      10.531   7.305 -11.688  0.00  0.00    +0.046 A 
ATOM     22  S   UNL     1       9.955   6.391 -10.266  0.00  0.00    -0.093 S 
ENDBRANCH  15  18
ENDBRANCH  12  13
ENDBRANCH   8  12
ENDBRANCH   2   5
BRANCH   1  28
ATOM     23  C   UNL     1      -0.368  -0.335  -5.402  0.00  0.00    +0.058 A 
ATOM     24  C   UNL     1      -1.753  -0.162  -5.356  0.00  0.00    +0.015 A 
ATOM     25  C   UNL     1      -2.322   0.975  -5.887  0.00  0.00    +0.001 A 
ATOM     26  C   UNL     1      -1.526   1.950  -6.468  0.00  0.00    +0.002 A 
ATOM     27  C   UNL     1      -0.156   1.792  -6.521  0.00  0.00    +0.024 A 
ATOM     28  C   UNL     1       0.435   0.656  -5.985  0.00  0.00    +0.046 A 
BRANCH  23  30
ATOM     29  N   UNL     1      -0.513  -2.443  -4.170  0.00  0.00    -0.309 N 
ATOM     30  C   UNL     1       0.247  -1.550  -4.835  0.00  0.00    +0.246 C 
ATOM     31  O   UNL     1       1.440  -1.746  -4.966  0.00  0.00    -0.270 OA
ATOM     32  H   UNL     1      -1.464  -2.287  -4.064  0.00  0.00    +0.149 HD
BRANCH  29  33
ATOM     33  C   UNL     1       0.098  -3.649  -3.606  0.00  0.00    +0.070 C 
ATOM     34  C   UNL     1       0.171  -4.734  -4.683  0.00  0.00    +0.028 C 
BRANCH  33  36
ATOM     35  C   UNL     1      -0.720  -3.117  -1.306  0.00  0.00    +0.005 C 
ATOM     36  C   UNL     1      -0.749  -4.150  -2.435  0.00  0.00    +0.018 C 
ENDBRANCH  33  36
ENDBRANCH  29  33
ENDBRANCH  23  30
ENDBRANCH   1  28
TORSDOF 8
