REMARK  Name = ZINC47962342
REMARK  7 active torsions:
REMARK  status: ('A' for Active; 'I' for Inactive)
REMARK    1  A    between atoms: C_1  and  C_2
REMARK    2  A    between atoms: C_2  and  C_3
REMARK    3  A    between atoms: C_3  and  C_5
REMARK    4  A    between atoms: C_3  and  N_6
REMARK    5  A    between atoms: C_7  and  C_9
REMARK    6  A    between atoms: C_15  and  N_22
REMARK    7  A    between atoms: C_19  and  C_21
REMARK                            x       y       z     vdW  Elec       q    Type
REMARK                         _______ _______ _______ _____ _____    ______ ____
ROOT
ATOM      1  C   UNL     1      -3.983  -0.060  -3.438  0.00  0.00    +0.306 C 
ATOM      2  O   UNL     1      -3.168  -0.600  -2.719  0.00  0.00    -0.265 OA
ATOM      3  N   UNL     1      -5.185   0.298  -2.944  0.00  0.00    -0.260 N 
ATOM      4  C   UNL     1      -5.594   0.112  -1.622  0.00  0.00    +0.040 A 
ATOM      5  C   UNL     1      -4.900  -0.457  -0.552  0.00  0.00    +0.026 A 
ATOM      6  C   UNL     1      -5.490  -0.548   0.690  0.00  0.00    +0.034 A 
ATOM      7  C   UNL     1      -6.775  -0.076   0.887  0.00  0.00    +0.127 A 
ATOM      8  C   UNL     1      -7.469   0.489  -0.167  0.00  0.00    +0.038 A 
ATOM      9  C   UNL     1      -6.881   0.582  -1.414  0.00  0.00    -0.022 A 
ATOM     10  C   UNL     1      -7.404   1.144  -2.717  0.00  0.00    +0.059 C 
ATOM     11  C   UNL     1      -6.250   0.946  -3.714  0.00  0.00    +0.083 C 
ATOM     12  C   UNL     1      -5.771   2.296  -4.250  0.00  0.00    +0.029 C 
ENDROOT
BRANCH   1  14
ATOM     13  N   UNL     1      -2.412  -0.032  -5.333  0.00  0.00    -0.305 N 
ATOM     14  C   UNL     1      -3.655   0.207  -4.870  0.00  0.00    +0.300 C 
ATOM     15  O   UNL     1      -4.508   0.639  -5.618  0.00  0.00    -0.265 OA
ATOM     16  H   UNL     1      -1.730  -0.377  -4.735  0.00  0.00    +0.149 HD
BRANCH  13  17
ATOM     17  C   UNL     1      -2.090   0.230  -6.738  0.00  0.00    +0.070 C 
ATOM     18  C   UNL     1      -1.712   1.703  -6.908  0.00  0.00    +0.028 C 
BRANCH  17  20
ATOM     19  C   UNL     1      -1.334  -2.122  -7.113  0.00  0.00    +0.005 C 
ATOM     20  C   UNL     1      -0.914  -0.651  -7.165  0.00  0.00    +0.018 C 
ENDBRANCH  17  20
ENDBRANCH  13  17
ENDBRANCH   1  14
BRANCH   7  21
ATOM     21  N   UNL     1      -7.406  -0.176   2.222  0.00  0.00    +0.056 N 
ATOM     22  O   UNL     1      -6.798  -0.670   3.143  0.00  0.00    -0.126 OA
ATOM     23  O   UNL     1      -8.529   0.237   2.392  0.00  0.00    -0.126 OA
ENDBRANCH   7  21
TORSDOF 4
