REMARK  Name = ZINC39709280
REMARK  6 active torsions:
REMARK  status: ('A' for Active; 'I' for Inactive)
REMARK    1  A    between atoms: C_4  and  C_10
REMARK    2  A    between atoms: N_11  and  N_12
REMARK    3  A    between atoms: C_13  and  C_15
REMARK    4  A    between atoms: C_17  and  C_21
REMARK    5  A    between atoms: N_23  and  N_24
REMARK    6  A    between atoms: C_25  and  C_26
REMARK                            x       y       z     vdW  Elec       q    Type
REMARK                         _______ _______ _______ _____ _____    ______ ____
ROOT
ATOM      1  C   UNL     1       7.579   6.579  -0.035  0.00  0.00    +0.039 A 
ATOM      2  C   UNL     1       8.939   6.880  -0.052  0.00  0.00    +0.026 A 
ATOM      3  C   UNL     1       9.351   8.212  -0.049  0.00  0.00    +0.039 A 
ATOM      4  C   UNL     1       8.399   9.235  -0.029  0.00  0.00    +0.013 A 
ATOM      5  C   UNL     1       7.053   8.929  -0.012  0.00  0.00    +0.001 A 
ATOM      6  C   UNL     1       6.637   7.612  -0.021  0.00  0.00    +0.013 A 
ENDROOT
BRANCH   1   8
ATOM      7  N   UNL     1       5.816   4.881  -0.027  0.00  0.00    -0.203 N 
ATOM      8  C   UNL     1       7.132   5.171  -0.038  0.00  0.00    +0.263 C 
ATOM      9  O   UNL     1       7.952   4.273  -0.051  0.00  0.00    -0.268 OA
ATOM     10  H   UNL     1       5.162   5.597  -0.017  0.00  0.00    +0.178 HD
BRANCH   7  12
ATOM     11  C   UNL     1       4.113   3.264  -0.020  0.00  0.00    +0.136 C 
ATOM     12  N   UNL     1       5.392   3.545  -0.030  0.00  0.00    -0.188 NA
BRANCH  11  16
ATOM     13  C   UNL     1      -0.017   1.394   0.010  0.00  0.00    +0.001 A 
ATOM     14  C   UNL     1       1.129   2.121   0.003  0.00  0.00    +0.010 A 
ATOM     15  C   UNL     1       2.377   1.460  -0.013  0.00  0.00    +0.004 A 
ATOM     16  C   UNL     1       3.690   1.928  -0.023  0.00  0.00    +0.000 C 
ATOM     17  C   UNL     1       4.562   0.692  -0.038  0.00  0.00    +0.150 C 
ATOM     18  N   UNL     1       3.644  -0.451  -0.035  0.00  0.00    -0.380 N 
ATOM     19  C   UNL     1       2.403  -0.013  -0.021  0.00  0.00    +0.043 A 
ATOM     20  C   UNL     1       1.162  -0.704  -0.013  0.00  0.00    +0.026 A 
ATOM     21  C   UNL     1       0.002  -0.004   0.002  0.00  0.00    +0.002 A 
ATOM     22  H   UNL     1       3.910  -1.384  -0.043  0.00  0.00    +0.160 HD
ENDBRANCH  11  16
ENDBRANCH   7  12
ENDBRANCH   1   8
BRANCH   3  23
ATOM     23  C   UNL     1      10.792   8.541  -0.067  0.00  0.00    +0.263 C 
ATOM     24  O   UNL     1      11.618   7.650  -0.084  0.00  0.00    -0.268 OA
ATOM     25  N   UNL     1      11.189   9.829  -0.064  0.00  0.00    -0.203 N 
ATOM     26  H   UNL     1      10.529  10.540  -0.051  0.00  0.00    +0.178 HD
BRANCH  25  27
ATOM     27  N   UNL     1      12.554  10.141  -0.081  0.00  0.00    -0.188 NA
ATOM     28  C   UNL     1      12.940  11.392  -0.079  0.00  0.00    +0.136 C 
BRANCH  28  29
ATOM     29  C   UNL     1      14.306  11.704  -0.095  0.00  0.00    +0.000 C 
ATOM     30  C   UNL     1      14.881  12.974  -0.089  0.00  0.00    +0.004 A 
ATOM     31  C   UNL     1      16.346  12.827  -0.113  0.00  0.00    +0.043 A 
ATOM     32  N   UNL     1      16.681  11.554  -0.132  0.00  0.00    -0.380 N 
ATOM     33  C   UNL     1      15.466  10.733  -0.117  0.00  0.00    +0.150 C 
ATOM     34  C   UNL     1      17.137  14.007  -0.111  0.00  0.00    +0.026 A 
ATOM     35  C   UNL     1      16.536  15.220  -0.089  0.00  0.00    +0.002 A 
ATOM     36  C   UNL     1      15.145  15.354  -0.066  0.00  0.00    +0.001 A 
ATOM     37  C   UNL     1      14.326  14.272  -0.066  0.00  0.00    +0.010 A 
ATOM     38  H   UNL     1      17.589  11.213  -0.149  0.00  0.00    +0.160 HD
ENDBRANCH  28  29
ENDBRANCH  25  27
ENDBRANCH   3  23
TORSDOF 6
