REMARK  Name = ZINC02924226
REMARK  12 active torsions:
REMARK  status: ('A' for Active; 'I' for Inactive)
REMARK    1  A    between atoms: C_1  and  C_2
REMARK    2  A    between atoms: C_3  and  C_31
REMARK    3  A    between atoms: C_4  and  C_22
REMARK    4  A    between atoms: C_10  and  C_15
REMARK    5  A    between atoms: C_25  and  O_30
REMARK    6  A    between atoms: C_26  and  O_28
REMARK    7  A    between atoms: O_28  and  C_29
REMARK    8  A    between atoms: C_31  and  O_33
REMARK    9  A    between atoms: O_33  and  C_34
REMARK   10  A    between atoms: C_34  and  C_35
REMARK   11  A    between atoms: C_35  and  O_36
REMARK   12  A    between atoms: O_36  and  C_37
REMARK                            x       y       z     vdW  Elec       q    Type
REMARK                         _______ _______ _______ _____ _____    ______ ____
ROOT
ATOM      1  C   UNL     1      -4.527   4.952   5.718  0.00  0.00    +0.061 C 
ATOM      2  C   UNL     1      -3.959   5.760   4.580  0.00  0.00    +0.016 C 
ATOM      3  C   UNL     1      -3.217   5.156   3.637  0.00  0.00    +0.065 C 
ATOM      4  C   UNL     1      -2.634   5.929   2.490  0.00  0.00    +0.092 C 
ATOM      5  C   UNL     1      -3.322   7.261   2.330  0.00  0.00    +0.024 C 
ATOM      6  C   UNL     1      -4.061   7.781   3.334  0.00  0.00    +0.016 C 
ATOM      7  N   UNL     1      -4.199   7.105   4.516  0.00  0.00    -0.321 N 
ATOM      8  C   UNL     1      -4.755   9.111   3.180  0.00  0.00    +0.059 C 
ATOM      9  C   UNL     1      -3.949  10.005   2.235  0.00  0.00    +0.032 C 
ATOM     10  C   UNL     1      -3.812   9.288   0.887  0.00  0.00    +0.088 C 
ATOM     11  C   UNL     1      -3.171   7.945   1.111  0.00  0.00    +0.162 C 
ATOM     12  O   UNL     1      -2.512   7.443   0.223  0.00  0.00    -0.292 OA
ATOM     13  H   UNL     1      -4.505   7.652   5.420  0.00  0.00    +0.152 HD
ENDROOT
BRANCH   9  14
ATOM     14  C   UNL     1      -4.669  11.315   2.040  0.00  0.00    -0.043 A 
ATOM     15  C   UNL     1      -5.949  11.329   1.519  0.00  0.00    +0.005 A 
ATOM     16  C   UNL     1      -6.612  12.530   1.346  0.00  0.00    +0.020 A 
ATOM     17  C   UNL     1      -5.989  13.718   1.683  0.00  0.00    +0.041 A 
ATOM     18  C   UNL     1      -4.705  13.704   2.199  0.00  0.00    +0.020 A 
ATOM     19  C   UNL     1      -4.046  12.502   2.377  0.00  0.00    +0.005 A 
ATOM     20 CL   UNL     1      -6.817  15.227   1.458  0.00  0.00    -0.084 Cl
ENDBRANCH   9  14
BRANCH   4  21
ATOM     21  C   UNL     1      -1.166   6.159   2.744  0.00  0.00    -0.032 A 
ATOM     22  C   UNL     1      -0.762   6.863   3.863  0.00  0.00    +0.008 A 
ATOM     23  C   UNL     1       0.583   7.072   4.104  0.00  0.00    +0.049 A 
ATOM     24  C   UNL     1       1.530   6.585   3.216  0.00  0.00    +0.158 A 
ATOM     25  C   UNL     1       1.122   5.881   2.087  0.00  0.00    +0.162 A 
ATOM     26  C   UNL     1      -0.227   5.670   1.855  0.00  0.00    +0.054 A 
BRANCH  25  27
ATOM     27  O   UNL     1       2.047   5.401   1.213  0.00  0.00    -0.491 OA
ATOM     28  C   UNL     1       1.556   4.689   0.076  0.00  0.00    +0.277 C 
ENDBRANCH  25  27
BRANCH  24  29
ATOM     29  O   UNL     1       2.853   6.795   3.448  0.00  0.00    -0.503 OA
ATOM     30  H   UNL     1       3.603   6.407   2.743  0.00  0.00    +0.292 HD
ENDBRANCH  24  29
ENDBRANCH   4  21
BRANCH   3  31
ATOM     31  C   UNL     1      -2.985   3.763   3.723  0.00  0.00    +0.338 C 
ATOM     32  O   UNL     1      -3.568   3.002   2.973  0.00  0.00    -0.245 OA
BRANCH  31  33
ATOM     33  O   UNL     1      -2.119   3.279   4.637  0.00  0.00    -0.459 OA
BRANCH  33  34
ATOM     34  C   UNL     1      -1.933   1.862   4.668  0.00  0.00    +0.260 C 
BRANCH  34  35
ATOM     35  C   UNL     1      -0.923   1.504   5.760  0.00  0.00    +0.200 C 
BRANCH  35  36
ATOM     36  O   UNL     1      -1.463   1.843   7.039  0.00  0.00    -0.380 OA
ATOM     37  C   UNL     1      -0.594   1.547   8.133  0.00  0.00    +0.194 C 
ENDBRANCH  35  36
ENDBRANCH  34  35
ENDBRANCH  33  34
ENDBRANCH  31  33
ENDBRANCH   3  31
TORSDOF 9
