REMARK  Name = ZINC67059764
REMARK  8 active torsions:
REMARK  status: ('A' for Active; 'I' for Inactive)
REMARK    1  A    between atoms: C_1  and  C_2
REMARK    2  A    between atoms: C_3  and  C_7
REMARK    3  A    between atoms: N_9  and  C_10
REMARK    4  A    between atoms: N_18  and  C_19
REMARK    5  A    between atoms: C_19  and  C_20
REMARK    6  A    between atoms: C_20  and  C_22
REMARK    7  A    between atoms: C_20  and  N_23
REMARK    8  A    between atoms: C_28  and  C_30
REMARK                            x       y       z     vdW  Elec       q    Type
REMARK                         _______ _______ _______ _____ _____    ______ ____
ROOT
ATOM      1  C   UNL     1      -4.789  -1.435   0.794  0.00  0.00    +0.076 C 
ATOM      2  C   UNL     1      -5.513  -0.860   2.014  0.00  0.00    +0.041 C 
ATOM      3  C   UNL     1      -6.923  -0.422   1.607  0.00  0.00    +0.111 C 
ATOM      4  N   UNL     1      -7.609  -1.560   0.980  0.00  0.00    -0.286 N 
ATOM      5  C   UNL     1      -6.957  -2.244  -0.146  0.00  0.00    +0.111 C 
ATOM      6  C   UNL     1      -5.546  -2.662   0.281  0.00  0.00    +0.041 C 
ATOM      7  C   UNL     1      -8.812  -1.969   1.428  0.00  0.00    +0.302 C 
ATOM      8  O   UNL     1      -9.298  -1.456   2.418  0.00  0.00    -0.253 OA
ATOM      9  N   UNL     1      -9.477  -2.946   0.779  0.00  0.00    -0.301 N 
ATOM     10  H   UNL     1      -9.059  -3.404   0.033  0.00  0.00    +0.150 HD
ENDROOT
BRANCH   1  13
ATOM     11  C   UNL     1      -2.439  -0.909   1.168  0.00  0.00    +0.248 C 
ATOM     12  O   UNL     1      -2.677   0.241   0.850  0.00  0.00    -0.270 OA
ATOM     13  N   UNL     1      -3.428  -1.824   1.173  0.00  0.00    -0.308 N 
ATOM     14  H   UNL     1      -3.239  -2.741   1.426  0.00  0.00    +0.149 HD
BRANCH  11  17
ATOM     15  C   UNL     1       0.072   0.969   1.260  0.00  0.00    +0.087 C 
ATOM     16  C   UNL     1       0.033  -0.500   1.595  0.00  0.00    +0.114 A 
ATOM     17  C   UNL     1      -1.071  -1.300   1.548  0.00  0.00    +0.077 A 
ATOM     18  C   UNL     1      -0.609  -2.635   1.957  0.00  0.00    +0.054 A 
ATOM     19  C   UNL     1       0.703  -2.512   2.206  0.00  0.00    +0.196 A 
ATOM     20  O   UNL     1       1.075  -1.242   1.983  0.00  0.00    -0.467 OA
ENDBRANCH  11  17
ENDBRANCH   1  13
BRANCH   9  21
ATOM     21  C   UNL     1     -10.830  -3.315   1.201  0.00  0.00    +0.090 C 
BRANCH  21  22
ATOM     22  C   UNL     1     -11.425  -4.304   0.196  0.00  0.00    -0.054 C 
ATOM     23  C   UNL     1     -12.735  -4.869   0.750  0.00  0.00    -0.012 C 
BRANCH  22  24
ATOM     24  N   UNL     1     -11.687  -3.615  -1.074  0.00  0.00    +0.384 N 
ATOM     25  C   UNL     1     -12.514  -2.428  -0.823  0.00  0.00    -0.078 C 
ATOM     26  C   UNL     1     -12.858  -1.751  -2.151  0.00  0.00    -0.019 C 
ATOM     27  C   UNL     1     -11.564  -1.333  -2.855  0.00  0.00    -0.003 C 
ATOM     28  C   UNL     1     -10.676  -2.567  -3.045  0.00  0.00    -0.016 C 
ATOM     29  C   UNL     1     -10.413  -3.214  -1.683  0.00  0.00    -0.071 C 
ATOM     30  C   UNL     1      -9.527  -4.447  -1.868  0.00  0.00    -0.013 C 
ATOM     31  H   UNL     1     -12.177  -4.237  -1.699  0.00  0.00    -0.081 HD
ENDBRANCH  22  24
ENDBRANCH  21  22
ENDBRANCH   9  21
TORSDOF 5
