REMARK  Name = ZINC35888521
REMARK  6 active torsions:
REMARK  status: ('A' for Active; 'I' for Inactive)
REMARK    1  A    between atoms: C_7  and  C_11
REMARK    2  A    between atoms: C_11  and  C_13
REMARK    3  A    between atoms: C_11  and  C_27
REMARK    4  A    between atoms: C_13  and  C_14
REMARK    5  A    between atoms: N_16  and  C_17
REMARK    6  A    between atoms: C_17  and  C_18
REMARK                            x       y       z     vdW  Elec       q    Type
REMARK                         _______ _______ _______ _____ _____    ______ ____
ROOT
ATOM      1  C   UNL     1       0.666  -3.275  -0.021  0.00  0.00    +0.060 C 
ENDROOT
BRANCH   1   8
ATOM      2  C   UNL     1      -0.017   1.362   0.009  0.00  0.00    +0.001 A 
ATOM      3  C   UNL     1       1.170   2.083   0.002  0.00  0.00    +0.002 A 
ATOM      4  C   UNL     1       2.386   1.436  -0.013  0.00  0.00    +0.026 A 
ATOM      5  C   UNL     1       2.428   0.046  -0.021  0.00  0.00    +0.047 A 
ATOM      6  C   UNL     1       1.223  -0.681  -0.013  0.00  0.00    +0.003 A 
ATOM      7  C   UNL     1       0.002  -0.004   0.002  0.00  0.00    +0.010 A 
ATOM      8  C   UNL     1       1.604  -2.095  -0.025  0.00  0.00    -0.015 A 
ATOM      9  C   UNL     1       2.945  -2.141  -0.038  0.00  0.00    +0.087 A 
ATOM     10  N   UNL     1       3.455  -0.871  -0.036  0.00  0.00    -0.360 N 
ATOM     11  H   UNL     1       4.399  -0.650  -0.044  0.00  0.00    +0.165 HD
ENDBRANCH   1   8
BRANCH   1  12
ATOM     12  C   UNL     1       0.898  -4.104  -1.258  0.00  0.00    -0.036 A 
ATOM     13  C   UNL     1       2.139  -4.669  -1.488  0.00  0.00    +0.008 A 
ATOM     14  C   UNL     1       2.356  -5.430  -2.622  0.00  0.00    +0.050 A 
ATOM     15  C   UNL     1       1.329  -5.629  -3.530  0.00  0.00    +0.166 A 
ATOM     16  C   UNL     1       0.079  -5.060  -3.299  0.00  0.00    +0.167 A 
ATOM     17  C   UNL     1      -0.133  -4.303  -2.158  0.00  0.00    +0.053 A 
ATOM     18  O   UNL     1      -0.752  -5.399  -4.327  0.00  0.00    -0.453 OA
ATOM     19  C   UNL     1       0.113  -5.838  -5.392  0.00  0.00    +0.466 C 
ATOM     20  O   UNL     1       1.281  -6.324  -4.704  0.00  0.00    -0.453 OA
ENDBRANCH   1  12
BRANCH   1  21
ATOM     21  C   UNL     1       0.927  -4.130   1.221  0.00  0.00    +0.108 C 
BRANCH  21  22
ATOM     22  C   UNL     1      -0.090  -5.240   1.289  0.00  0.00    +0.214 C 
ATOM     23  O   UNL     1      -0.939  -5.338   0.429  0.00  0.00    -0.276 OA
ATOM     24  N   UNL     1      -0.055  -6.124   2.306  0.00  0.00    -0.311 N 
ATOM     25  H   UNL     1       0.624  -6.045   2.994  0.00  0.00    +0.149 HD
BRANCH  24  26
ATOM     26  C   UNL     1      -1.044  -7.204   2.372  0.00  0.00    +0.139 C 
BRANCH  26  27
ATOM     27  C   UNL     1      -0.787  -8.045   3.596  0.00  0.00    -0.027 A 
ATOM     28  C   UNL     1       0.063  -9.133   3.519  0.00  0.00    +0.009 A 
ATOM     29  C   UNL     1       0.302  -9.908   4.639  0.00  0.00    +0.050 A 
ATOM     30  C   UNL     1      -0.311  -9.595   5.841  0.00  0.00    +0.166 A 
ATOM     31  C   UNL     1      -1.167  -8.500   5.919  0.00  0.00    +0.167 A 
ATOM     32  C   UNL     1      -1.398  -7.724   4.794  0.00  0.00    +0.054 A 
ATOM     33  O   UNL     1      -1.639  -8.405   7.196  0.00  0.00    -0.453 OA
ATOM     34  C   UNL     1      -1.386  -9.688   7.797  0.00  0.00    +0.466 C 
ATOM     35  O   UNL     1      -0.247 -10.186   7.070  0.00  0.00    -0.453 OA
ENDBRANCH  26  27
ENDBRANCH  24  26
ENDBRANCH  21  22
ENDBRANCH   1  21
TORSDOF 6
