REMARK  Name = ZINC36501720
REMARK  18 active torsions:
REMARK  status: ('A' for Active; 'I' for Inactive)
REMARK    1  A    between atoms: C_1  and  C_2
REMARK    2  A    between atoms: C_2  and  C_4
REMARK    3  A    between atoms: C_2  and  C_34
REMARK    4  A    between atoms: C_4  and  C_5
REMARK    5  A    between atoms: N_7  and  C_8
REMARK    6  A    between atoms: N_7  and  C_14
REMARK    7  A    between atoms: C_8  and  C_9
REMARK    8  A    between atoms: C_14  and  C_16
REMARK    9  A    between atoms: C_14  and  C_23
REMARK   10  A    between atoms: C_21  and  O_22
REMARK   11  A    between atoms: N_25  and  C_26
REMARK   12  A    between atoms: C_26  and  C_27
REMARK   13  A    between atoms: C_26  and  C_28
REMARK   14  A    between atoms: C_26  and  C_29
REMARK   15  A    between atoms: C_29  and  C_30
REMARK   16  A    between atoms: C_30  and  C_31
REMARK   17  A    between atoms: C_30  and  C_32
REMARK   18  A    between atoms: C_30  and  C_33
REMARK                            x       y       z     vdW  Elec       q    Type
REMARK                         _______ _______ _______ _____ _____    ______ ____
ROOT
ATOM      1  C   UNL     1       5.626   2.646   1.394  0.00  0.00    +0.196 C 
ENDROOT
BRANCH   1   2
ATOM      2  C   UNL     1       6.162   1.247   1.559  0.00  0.00    +0.023 A 
ATOM      3  C   UNL     1       6.291   0.701   2.821  0.00  0.00    +0.009 A 
ATOM      4  C   UNL     1       6.783  -0.582   2.974  0.00  0.00    +0.001 A 
ATOM      5  C   UNL     1       7.146  -1.322   1.864  0.00  0.00    +0.004 A 
ATOM      6  C   UNL     1       7.018  -0.781   0.599  0.00  0.00    +0.046 A 
ATOM      7  C   UNL     1       6.520   0.504   0.443  0.00  0.00    +0.122 A 
BRANCH   7   8
ATOM      8  O   UNL     1       6.388   1.037  -0.800  0.00  0.00    -0.506 OA
ATOM      9  H   UNL     1       7.196   1.446  -1.140  0.00  0.00    +0.292 HD
ENDBRANCH   7   8
ENDBRANCH   1   2
BRANCH   1  10
ATOM     10  C   UNL     1       5.739   3.385   2.702  0.00  0.00    +0.239 C 
ATOM     11  O   UNL     1       4.746   3.598   3.366  0.00  0.00    -0.273 OA
ATOM     12  N   UNL     1       6.942   3.808   3.136  0.00  0.00    -0.308 N 
ATOM     13  H   UNL     1       7.724   3.707   2.571  0.00  0.00    +0.149 HD
BRANCH  12  14
ATOM     14  C   UNL     1       7.070   4.422   4.460  0.00  0.00    +0.030 C 
ATOM     15  C   UNL     1       6.412   5.803   4.447  0.00  0.00    +0.031 C 
ATOM     16  C   UNL     1       6.380   3.538   5.500  0.00  0.00    +0.031 C 
BRANCH  14  17
ATOM     17  C   UNL     1       8.551   4.566   4.814  0.00  0.00    +0.031 C 
BRANCH  17  18
ATOM     18  C   UNL     1       9.175   3.179   4.974  0.00  0.00    -0.036 C 
ATOM     19  C   UNL     1       8.598   2.235   3.917  0.00  0.00    +0.010 C 
ATOM     20  C   UNL     1      10.691   3.277   4.797  0.00  0.00    +0.010 C 
ATOM     21  C   UNL     1       8.859   2.635   6.370  0.00  0.00    +0.010 C 
ENDBRANCH  17  18
ENDBRANCH  14  17
ENDBRANCH  12  14
ENDBRANCH   1  10
BRANCH   1  24
ATOM     22  C   UNL     1       3.336   1.879   1.718  0.00  0.00    +0.217 C 
ATOM     23  O   UNL     1       3.705   1.294   2.715  0.00  0.00    -0.276 OA
ATOM     24  N   UNL     1       4.220   2.586   0.986  0.00  0.00    -0.278 N 
BRANCH  22  25
ATOM     25  C   UNL     1       1.890   1.817   1.300  0.00  0.00    +0.104 C 
BRANCH  25  27
ATOM     26  C   UNL     1       1.610  -0.486   2.227  0.00  0.00    +0.013 C 
ATOM     27  C   UNL     1       1.107   0.958   2.294  0.00  0.00    +0.025 C 
BRANCH  27  28
ATOM     28  C   UNL     1      -0.358   0.995   1.946  0.00  0.00    -0.044 A 
ATOM     29  C   UNL     1      -0.788   0.544   0.712  0.00  0.00    +0.004 A 
ATOM     30  C   UNL     1      -2.132   0.579   0.392  0.00  0.00    +0.000 A 
ATOM     31  C   UNL     1      -3.048   1.064   1.307  0.00  0.00    +0.000 A 
ATOM     32  C   UNL     1      -2.619   1.514   2.542  0.00  0.00    +0.000 A 
ATOM     33  C   UNL     1      -1.275   1.476   2.863  0.00  0.00    +0.004 A 
ENDBRANCH  27  28
ENDBRANCH  25  27
ENDBRANCH  22  25
BRANCH  24  34
ATOM     34  C   UNL     1       3.775   3.293  -0.217  0.00  0.00    +0.183 C 
BRANCH  34  35
ATOM     35  C   UNL     1       3.277   4.664   0.162  0.00  0.00    +0.122 A 
ATOM     36  C   UNL     1       3.999   5.798   0.139  0.00  0.00    +0.046 A 
ATOM     37  C   UNL     1       3.143   6.838   0.568  0.00  0.00    +0.041 A 
ATOM     38  C   UNL     1       1.949   6.277   0.827  0.00  0.00    +0.195 A 
ATOM     39  O   UNL     1       2.034   4.961   0.574  0.00  0.00    -0.466 OA
ENDBRANCH  34  35
ENDBRANCH  24  34
ENDBRANCH   1  24
TORSDOF 12
