REMARK  Name = ZINC12828877
REMARK  6 active torsions:
REMARK  status: ('A' for Active; 'I' for Inactive)
REMARK    1  A    between atoms: C_1  and  C_2
REMARK    2  A    between atoms: C_2  and  C_4
REMARK    3  A    between atoms: C_2  and  S_17
REMARK    4  A    between atoms: S_17  and  C_18
REMARK    5  A    between atoms: C_18  and  C_19
REMARK    6  A    between atoms: C_25  and  C_30
REMARK                            x       y       z     vdW  Elec       q    Type
REMARK                         _______ _______ _______ _____ _____    ______ ____
ROOT
ATOM      1  C   UNL     1       2.489   6.002   0.681  0.00  0.00    +0.144 C 
ENDROOT
BRANCH   1   2
ATOM      2  C   UNL     1       3.764   6.651   1.152  0.00  0.00    +0.121 A 
ATOM      3  N   UNL     1       3.812   8.000   1.297  0.00  0.00    -0.310 N 
ATOM      4  H   UNL     1       3.023   8.528   1.096  0.00  0.00    +0.170 HD
ATOM      5  C   UNL     1       4.931   8.620   1.715  0.00  0.00    +0.260 A 
ATOM      6  O   UNL     1       4.957   9.832   1.841  0.00  0.00    -0.267 OA
ATOM      7  C   UNL     1       6.090   7.833   2.010  0.00  0.00    +0.080 A 
ATOM      8  C   UNL     1       7.404   8.264   2.472  0.00  0.00    +0.004 A 
ATOM      9  C   UNL     1       8.359   7.326   2.687  0.00  0.00    +0.056 A 
ATOM     10  S   UNL     1       7.537   5.799   2.276  0.00  0.00    -0.076 S 
ATOM     11  C   UNL     1       5.947   6.448   1.830  0.00  0.00    +0.116 A 
ATOM     12  N   UNL     1       4.804   5.907   1.418  0.00  0.00    -0.226 NA
BRANCH   8  13
ATOM     13  C   UNL     1       7.691   9.700   2.703  0.00  0.00    -0.017 A 
ATOM     14  C   UNL     1       7.389  10.640   1.718  0.00  0.00    +0.008 A 
ATOM     15  C   UNL     1       7.653  11.976   1.941  0.00  0.00    +0.001 A 
ATOM     16  C   UNL     1       8.226  12.382   3.132  0.00  0.00    +0.000 A 
ATOM     17  C   UNL     1       8.533  11.453   4.110  0.00  0.00    +0.001 A 
ATOM     18  C   UNL     1       8.268  10.115   3.902  0.00  0.00    +0.008 A 
ENDBRANCH   8  13
ENDBRANCH   1   2
BRANCH   1  19
ATOM     19  S   UNL     1       2.725   4.206   0.584  0.00  0.00    -0.141 S 
BRANCH  19  21
ATOM     20  C   UNL     1       0.850   4.096  -1.405  0.00  0.00    +0.029 C 
ATOM     21  C   UNL     1       1.121   3.582   0.011  0.00  0.00    +0.130 C 
BRANCH  21  22
ATOM     22  C   UNL     1       1.141   2.075   0.002  0.00  0.00    +0.231 C 
ATOM     23  O   UNL     1       2.200   1.483  -0.011  0.00  0.00    -0.274 OA
ATOM     24  N   UNL     1      -0.017   1.386   0.010  0.00  0.00    -0.264 N 
ATOM     25  C   UNL     1       0.002  -0.004   0.002  0.00  0.00    +0.165 A 
ATOM     26  N   UNL     1       1.037  -0.819  -0.018  0.00  0.00    -0.229 NA
ATOM     27  C   UNL     1       0.898  -2.148  -0.026  0.00  0.00    +0.054 A 
ATOM     28  C   UNL     1      -0.370  -2.599  -0.002  0.00  0.00    +0.014 A 
ATOM     29  S   UNL     1      -1.335  -1.117   0.009  0.00  0.00    -0.057 S 
ATOM     30  C   UNL     1      -0.820  -4.036   0.058  0.00  0.00    +0.044 C 
ATOM     31  C   UNL     1      -0.432  -4.686  -1.284  0.00  0.00    +0.005 C 
ATOM     32  C   UNL     1       1.038  -5.030  -1.290  0.00  0.00    +0.001 C 
ATOM     33  C   UNL     1       2.003  -3.877  -1.392  0.00  0.00    +0.006 C 
ATOM     34  C   UNL     1       2.099  -3.094  -0.080  0.00  0.00    +0.056 C 
ATOM     35  H   UNL     1      -0.863   1.859   0.016  0.00  0.00    +0.157 HD
ENDBRANCH  21  22
ENDBRANCH  19  21
ENDBRANCH   1  19
TORSDOF 5
