REMARK  Name = ZINC03875232
REMARK  11 active torsions:
REMARK  status: ('A' for Active; 'I' for Inactive)
REMARK    1  A    between atoms: C_1  and  C_2
REMARK    2  A    between atoms: C_10  and  O_36
REMARK    3  A    between atoms: C_21  and  N_75
REMARK    4  A    between atoms: C_23  and  C_24
REMARK    5  A    between atoms: C_23  and  N_75
REMARK    6  A    between atoms: C_24  and  C_25
REMARK    7  A    between atoms: C_25  and  C_26
REMARK    8  A    between atoms: C_26  and  C_27
REMARK    9  A    between atoms: C_27  and  C_28
REMARK   10  A    between atoms: C_28  and  N_29
REMARK   11  A    between atoms: O_36  and  C_37
REMARK                            x       y       z     vdW  Elec       q    Type
REMARK                         _______ _______ _______ _____ _____    ______ ____
ROOT
ATOM      1  C   UNL     1      -2.691   4.983   4.624  0.00  0.00    +0.010 C 
ATOM      2  C   UNL     1      -1.717   5.963   3.975  0.00  0.00    -0.041 C 
ATOM      3  C   UNL     1      -0.478   6.129   4.825  0.00  0.00    +0.006 C 
ATOM      4  C   UNL     1      -0.857   6.842   6.129  0.00  0.00    +0.009 C 
ATOM      5  C   UNL     1      -1.495   8.202   5.865  0.00  0.00    +0.023 C 
ATOM      6  C   UNL     1      -1.876   8.851   7.171  0.00  0.00    -0.041 A 
ATOM      7  C   UNL     1      -0.843   9.276   8.000  0.00  0.00    +0.008 A 
ATOM      8  C   UNL     1      -1.114   9.877   9.209  0.00  0.00    +0.046 A 
ATOM      9  C   UNL     1      -2.431  10.061   9.607  0.00  0.00    +0.120 A 
ATOM     10  C   UNL     1      -3.460   9.642   8.781  0.00  0.00    +0.049 A 
ATOM     11  C   UNL     1      -3.183   9.039   7.562  0.00  0.00    -0.040 A 
ATOM     12  C   UNL     1      -4.351   8.610   6.711  0.00  0.00    +0.036 C 
ATOM     13  C   UNL     1      -3.892   7.527   5.724  0.00  0.00    +0.009 C 
ATOM     14  C   UNL     1      -2.713   8.090   4.944  0.00  0.00    +0.000 C 
ATOM     15  C   UNL     1      -2.336   7.348   3.704  0.00  0.00    -0.003 C 
ATOM     16  C   UNL     1      -3.418   7.019   2.673  0.00  0.00    +0.003 C 
ATOM     17  C   UNL     1      -2.697   5.999   1.745  0.00  0.00    -0.015 C 
ATOM     18  C   UNL     1      -1.468   5.478   2.534  0.00  0.00    -0.066 C 
ENDROOT
BRANCH  18  19
ATOM     19  N   UNL     1      -1.425   4.006   2.511  0.00  0.00    +0.381 N 
ATOM     20  H   UNL     1      -2.384   3.639   2.510  0.00  0.00    -0.086 HD
ATOM     21  H   UNL     1      -0.931   3.669   3.346  0.00  0.00    -0.086 HD
BRANCH  19  22
ATOM     22  C   UNL     1      -0.722   3.533   1.304  0.00  0.00    -0.082 C 
BRANCH  22  23
ATOM     23  C   UNL     1      -0.693   2.003   1.308  0.00  0.00    -0.019 C 
BRANCH  23  24
ATOM     24  C   UNL     1       0.036   1.504   0.059  0.00  0.00    -0.002 C 
BRANCH  24  25
ATOM     25  C   UNL     1       0.065  -0.026   0.063  0.00  0.00    +0.001 C 
BRANCH  25  26
ATOM     26  C   UNL     1       0.793  -0.525  -1.186  0.00  0.00    +0.019 C 
BRANCH  26  27
ATOM     27  C   UNL     1       0.822  -2.055  -1.182  0.00  0.00    +0.116 C 
BRANCH  27  28
ATOM     28  N   UNL     1       1.520  -2.533  -2.378  0.00  0.00    -0.242 N 
ATOM     29  C   UNL     1       0.888  -2.795  -3.530  0.00  0.00    +0.222 C 
ATOM     30  O   UNL     1      -0.303  -2.673  -3.721  0.00  0.00    -0.275 OA
ATOM     31  C   UNL     1       1.897  -3.264  -4.556  0.00  0.00    +0.105 C 
ATOM     32  C   UNL     1       3.234  -3.237  -3.787  0.00  0.00    +0.105 C 
ATOM     33  C   UNL     1       2.841  -2.750  -2.409  0.00  0.00    +0.222 C 
ATOM     34  O   UNL     1       3.601  -2.583  -1.480  0.00  0.00    -0.275 OA
ENDBRANCH  27  28
ENDBRANCH  26  27
ENDBRANCH  25  26
ENDBRANCH  24  25
ENDBRANCH  23  24
ENDBRANCH  22  23
ENDBRANCH  19  22
ENDBRANCH  18  19
BRANCH   9  35
ATOM     35  O   UNL     1      -2.709  10.649  10.800  0.00  0.00    -0.495 OA
ATOM     36  C   UNL     1      -1.595  11.055  11.598  0.00  0.00    +0.277 C 
ENDBRANCH   9  35
TORSDOF 9
