REMARK  Name = ZINC04359582
REMARK  6 active torsions:
REMARK  status: ('A' for Active; 'I' for Inactive)
REMARK    1  A    between atoms: C_4  and  C_7
REMARK    2  A    between atoms: C_7  and  N_50
REMARK    3  A    between atoms: N_10  and  C_13
REMARK    4  A    between atoms: C_16  and  C_22
REMARK    5  A    between atoms: C_18  and  N_19
REMARK    6  A    between atoms: N_23  and  N_24
REMARK                            x       y       z     vdW  Elec       q    Type
REMARK                         _______ _______ _______ _____ _____    ______ ____
ROOT
ATOM      1  C   UNL     1      -3.645  -2.176   0.026  0.00  0.00    +0.060 A 
ATOM      2  C   UNL     1      -3.666  -0.785   0.034  0.00  0.00    +0.026 A 
ATOM      3  C   UNL     1      -2.485  -0.077   0.031  0.00  0.00    +0.011 A 
ATOM      4  C   UNL     1      -1.264  -0.758   0.010  0.00  0.00    -0.003 A 
ATOM      5  C   UNL     1      -1.247  -2.156   0.002  0.00  0.00    +0.044 A 
ATOM      6  C   UNL     1      -2.432  -2.857   0.010  0.00  0.00    +0.148 A 
ENDROOT
BRANCH   1   9
ATOM      7  C   UNL     1      -6.900  -3.436   1.243  0.00  0.00    -0.059 C 
ATOM      8  C   UNL     1      -5.634  -2.576   1.232  0.00  0.00    +0.086 C 
ATOM      9  N   UNL     1      -4.842  -2.890   0.034  0.00  0.00    -0.332 N 
ATOM     10  C   UNL     1      -5.617  -2.632  -1.188  0.00  0.00    +0.086 C 
ATOM     11  C   UNL     1      -6.883  -3.492  -1.177  0.00  0.00    -0.059 C 
ATOM     12  N   UNL     1      -7.680  -3.151   0.020  0.00  0.00    +0.384 N 
ATOM     13  H   UNL     1      -7.908  -2.151  -0.005  0.00  0.00    -0.081 HD
BRANCH  12  14
ATOM     14  C   UNL     1      -8.937  -3.930   0.029  0.00  0.00    -0.043 C 
BRANCH  14  18
ATOM     15  C   UNL     1     -11.409  -2.598  -3.189  0.00  0.00    +0.000 A 
ATOM     16  C   UNL     1     -10.522  -3.640  -3.384  0.00  0.00    +0.000 A 
ATOM     17  C   UNL     1      -9.722  -4.071  -2.343  0.00  0.00    +0.002 A 
ATOM     18  C   UNL     1      -9.809  -3.460  -1.106  0.00  0.00    -0.064 A 
ATOM     19  C   UNL     1     -10.700  -2.422  -0.909  0.00  0.00    +0.002 A 
ATOM     20  C   UNL     1     -11.497  -1.988  -1.952  0.00  0.00    +0.000 A 
ENDBRANCH  14  18
ENDBRANCH  12  14
ENDBRANCH   1   9
BRANCH   6  21
ATOM     21  N   UNL     1      -2.415  -4.337   0.002  0.00  0.00    +0.058 N 
ATOM     22  O   UNL     1      -1.353  -4.934  -0.012  0.00  0.00    -0.126 OA
ATOM     23  O   UNL     1      -3.463  -4.958   0.009  0.00  0.00    -0.126 OA
ENDBRANCH   6  21
BRANCH   4  24
ATOM     24  C   UNL     1       0.002  -0.004   0.002  0.00  0.00    +0.141 C 
ATOM     25  N   UNL     1      -0.015   1.294   0.009  0.00  0.00    -0.172 NA
BRANCH  25  26
ATOM     26  N   UNL     1       1.188   2.011   0.002  0.00  0.00    -0.207 N 
ATOM     27  C   UNL     1       2.293   1.771   0.763  0.00  0.00    +0.248 A 
ATOM     28  N   UNL     1       3.187   2.667   0.440  0.00  0.00    -0.136 NA
ATOM     29  N   UNL     1       2.713   3.453  -0.460  0.00  0.00    -0.136 NA
ATOM     30  C   UNL     1       1.494   3.096  -0.764  0.00  0.00    +0.248 A 
ENDBRANCH  25  26
ENDBRANCH   4  24
TORSDOF 6
