REMARK  Name = ZINC18066160
REMARK  4 active torsions:
REMARK  status: ('A' for Active; 'I' for Inactive)
REMARK    1  A    between atoms: C_1  and  C_2
REMARK    2  A    between atoms: N_10  and  N_11
REMARK    3  A    between atoms: N_11  and  C_12
REMARK    4  A    between atoms: C_12  and  N_14
REMARK                            x       y       z     vdW  Elec       q    Type
REMARK                         _______ _______ _______ _____ _____    ______ ____
ROOT
ATOM      1  C   UNL     1      -0.018   1.503   0.010  0.00  0.00    +0.045 C 
ATOM      2  C   UNL     1       0.002  -0.004   0.002  0.00  0.00    -0.036 A 
ATOM      3  C   UNL     1       0.006  -0.689  -1.201  0.00  0.00    +0.006 A 
ATOM      4  C   UNL     1       0.024  -2.069  -1.225  0.00  0.00    +0.024 A 
ATOM      5  C   UNL     1       0.039  -2.788  -0.034  0.00  0.00    +0.044 A 
ATOM      6  C   UNL     1       0.035  -2.092   1.181  0.00  0.00    +0.042 A 
ATOM      7  C   UNL     1       0.023  -0.701   1.195  0.00  0.00    +0.032 A 
ATOM      8 BR   UNL     1       0.026   0.233   2.840  0.00  0.00    -0.049 Br
ATOM      9  C   UNL     1       0.054  -3.117   2.250  0.00  0.00    +0.154 C 
ATOM     10  N   UNL     1       0.057  -2.918   3.547  0.00  0.00    -0.175 NA
ATOM     11  C   UNL     1       0.067  -4.410   1.539  0.00  0.00    +0.269 C 
ATOM     12  O   UNL     1       0.084  -5.511   2.056  0.00  0.00    -0.268 OA
ATOM     13  N   UNL     1       0.058  -4.155   0.219  0.00  0.00    -0.280 N 
ATOM     14  H   UNL     1       0.063  -4.838  -0.469  0.00  0.00    +0.155 HD
ENDROOT
BRANCH  10  15
ATOM     15  N   UNL     1       0.075  -4.012   4.423  0.00  0.00    -0.218 N 
ATOM     16  H   UNL     1       0.086  -4.915   4.070  0.00  0.00    +0.176 HD
BRANCH  15  17
ATOM     17  C   UNL     1       0.079  -3.808   5.755  0.00  0.00    +0.147 C 
ATOM     18  S   UNL     1       0.101  -5.144   6.825  0.00  0.00    -0.017 S 
BRANCH  17  19
ATOM     19  N   UNL     1       0.064  -2.553   6.245  0.00  0.00    -0.339 N 
ATOM     20  H   UNL     1       0.052  -1.796   5.638  0.00  0.00    +0.144 HD
ATOM     21  H   UNL     1       0.067  -2.406   7.204  0.00  0.00    +0.144 HD
ENDBRANCH  17  19
ENDBRANCH  15  17
ENDBRANCH  10  15
TORSDOF 3
