REMARK  Name = ZINC20532239
REMARK  11 active torsions:
REMARK  status: ('A' for Active; 'I' for Inactive)
REMARK    1  A    between atoms: C_1  and  C_2
REMARK    2  A    between atoms: C_2  and  N_3
REMARK    3  A    between atoms: C_9  and  N_29
REMARK    4  A    between atoms: C_10  and  C_11
REMARK    5  A    between atoms: C_11  and  C_13
REMARK    6  A    between atoms: C_11  and  N_14
REMARK    7  A    between atoms: N_17  and  C_18
REMARK    8  A    between atoms: C_21  and  C_24
REMARK    9  A    between atoms: C_24  and  O_26
REMARK   10  A    between atoms: O_26  and  C_27
REMARK   11  A    between atoms: C_27  and  C_28
REMARK                            x       y       z     vdW  Elec       q    Type
REMARK                         _______ _______ _______ _____ _____    ______ ____
ROOT
ATOM      1  C   UNL     1       3.199   6.046   0.661  0.00  0.00    +0.104 C 
ATOM      2  C   UNL     1       3.829   6.123  -0.731  0.00  0.00    +0.033 C 
ENDROOT
BRANCH   1  10
ATOM      3  N   UNL     1       5.466   8.519   4.592  0.00  0.00    +0.383 N 
ATOM      4  C   UNL     1       6.127   7.631   3.625  0.00  0.00    -0.074 C 
ATOM      5  C   UNL     1       5.085   6.803   2.869  0.00  0.00    +0.018 C 
ATOM      6  C   UNL     1       4.036   7.757   2.301  0.00  0.00    -0.034 A 
ATOM      7  C   UNL     1       3.942   9.021   2.800  0.00  0.00    -0.021 A 
ATOM      8  S   UNL     1       2.635   9.754   1.856  0.00  0.00    -0.077 S 
ATOM      9  C   UNL     1       2.264   8.343   0.823  0.00  0.00    +0.090 A 
ATOM     10  C   UNL     1       3.160   7.424   1.272  0.00  0.00    +0.007 A 
ATOM     11  C   UNL     1       4.764   9.615   3.896  0.00  0.00    -0.035 C 
ATOM     12  H   UNL     1       4.722   7.926   5.145  0.00  0.00    -0.081 HD
BRANCH   9  13
ATOM     13  N   UNL     1       1.302   8.218  -0.186  0.00  0.00    -0.317 N 
ATOM     14  C   UNL     1       1.172   7.157  -1.035  0.00  0.00    +0.092 A 
ATOM     15  C   UNL     1       0.134   7.402  -1.861  0.00  0.00    +0.019 A 
ATOM     16  C   UNL     1      -0.392   8.663  -1.516  0.00  0.00    +0.019 A 
ATOM     17  C   UNL     1       0.341   9.140  -0.488  0.00  0.00    +0.092 A 
ENDBRANCH   9  13
BRANCH   3  19
ATOM     18  C   UNL     1       7.549   9.784   4.830  0.00  0.00    -0.017 C 
ATOM     19  C   UNL     1       6.430   9.046   5.567  0.00  0.00    -0.082 C 
ENDBRANCH   3  19
ENDBRANCH   1  10
BRANCH   1  20
ATOM     20  N   UNL     1       1.836   5.521   0.552  0.00  0.00    -0.292 N 
ATOM     21  C   UNL     1       1.636   4.211   0.309  0.00  0.00    +0.304 C 
ATOM     22  O   UNL     1       2.587   3.464   0.181  0.00  0.00    -0.252 OA
ATOM     23  N   UNL     1       0.381   3.728   0.209  0.00  0.00    -0.269 N 
ATOM     24  H   UNL     1       0.975   6.197   0.668  0.00  0.00    +0.151 HD
ATOM     25  H   UNL     1      -0.476   4.417   0.218  0.00  0.00    +0.156 HD
BRANCH  23  26
ATOM     26  C   UNL     1       0.170   2.355   0.094  0.00  0.00    +0.035 A 
ATOM     27  C   UNL     1      -0.861   1.876  -0.708  0.00  0.00    +0.024 A 
ATOM     28  C   UNL     1      -1.073   0.521  -0.823  0.00  0.00    +0.017 A 
ATOM     29  C   UNL     1      -0.249  -0.375  -0.134  0.00  0.00    +0.059 A 
ATOM     30  C   UNL     1       0.786   0.110   0.670  0.00  0.00    +0.017 A 
ATOM     31  C   UNL     1       0.992   1.466   0.781  0.00  0.00    +0.024 A 
BRANCH  29  32
ATOM     32  C   UNL     1      -0.473  -1.827  -0.256  0.00  0.00    +0.339 C 
ATOM     33  O   UNL     1      -1.373  -2.247  -0.955  0.00  0.00    -0.245 OA
BRANCH  32  34
ATOM     34  O   UNL     1       0.322  -2.689   0.409  0.00  0.00    -0.461 OA
BRANCH  34  35
ATOM     35  C   UNL     1       0.044  -4.104   0.243  0.00  0.00    +0.229 C 
ATOM     36  C   UNL     1       1.042  -4.920   1.067  0.00  0.00    +0.048 C 
ENDBRANCH  34  35
ENDBRANCH  32  34
ENDBRANCH  29  32
ENDBRANCH  23  26
ENDBRANCH   1  20
TORSDOF 8
