REMARK  Name = ZINC08490084
REMARK  12 active torsions:
REMARK  status: ('A' for Active; 'I' for Inactive)
REMARK    1  A    between atoms: C_1  and  C_2
REMARK    2  A    between atoms: C_9  and  C_11
REMARK    3  A    between atoms: C_11  and  S_12
REMARK    4  A    between atoms: S_12  and  C_13
REMARK    5  A    between atoms: C_16  and  C_19
REMARK    6  A    between atoms: N_17  and  N_18
REMARK    7  A    between atoms: C_19  and  O_20
REMARK    8  A    between atoms: O_20  and  C_21
REMARK    9  A    between atoms: C_24  and  C_27
REMARK   10  A    between atoms: C_27  and  C_28
REMARK   11  A    between atoms: C_27  and  C_29
REMARK   12  A    between atoms: C_27  and  C_30
REMARK                            x       y       z     vdW  Elec       q    Type
REMARK                         _______ _______ _______ _____ _____    ______ ____
ROOT
ATOM      1  C   UNL     1       1.734  -0.187  -0.958  0.00  0.00    +0.209 A 
ATOM      2  N   UNL     1       2.206   0.735  -1.765  0.00  0.00    -0.121 NA
ATOM      3  N   UNL     1       2.946   0.191  -2.664  0.00  0.00    -0.128 NA
ATOM      4  C   UNL     1       2.991  -1.099  -2.486  0.00  0.00    +0.189 A 
ATOM      5  N   UNL     1       2.226  -1.386  -1.389  0.00  0.00    -0.225 N 
ENDROOT
BRANCH   5   6
ATOM      6  N   UNL     1       1.998  -2.616  -0.842  0.00  0.00    -0.295 N 
ATOM      7  H   UNL     1       1.185  -3.050  -1.253  0.00  0.00    +0.163 HD
ATOM      8  H   UNL     1       2.809  -3.209  -0.932  0.00  0.00    +0.163 HD
ENDBRANCH   5   6
BRANCH   1   9
ATOM      9  S   UNL     1       0.674   0.074   0.425  0.00  0.00    -0.075 S 
BRANCH   9  10
ATOM     10  C   UNL     1       0.487   1.872   0.343  0.00  0.00    +0.173 C 
BRANCH  10  18
ATOM     11  C   UNL     1      -2.062   2.922   3.498  0.00  0.00    +0.028 C 
ATOM     12  C   UNL     1      -1.646   4.103   2.619  0.00  0.00    +0.073 C 
ATOM     13  C   UNL     1      -0.974   5.176   3.481  0.00  0.00    +0.022 C 
ATOM     14  C   UNL     1      -0.439   6.290   2.578  0.00  0.00    +0.003 C 
ATOM     15  C   UNL     1       0.607   5.714   1.621  0.00  0.00    +0.019 C 
ATOM     16  C   UNL     1      -0.042   4.647   0.742  0.00  0.00    +0.108 C 
ATOM     17  N   UNL     1      -0.689   3.647   1.602  0.00  0.00    -0.298 N 
ATOM     18  C   UNL     1      -0.407   2.336   1.464  0.00  0.00    +0.226 C 
ATOM     19  O   UNL     1      -0.872   1.530   2.241  0.00  0.00    -0.275 OA
ENDBRANCH  10  18
ENDBRANCH   9  10
ENDBRANCH   1   9
BRANCH   4  20
ATOM     20  C   UNL     1       3.752  -2.091  -3.328  0.00  0.00    +0.306 C 
BRANCH  20  21
ATOM     21  O   UNL     1       5.068  -2.257  -2.798  0.00  0.00    -0.484 OA
BRANCH  21  22
ATOM     22  C   UNL     1       5.890  -3.124  -3.446  0.00  0.00    +0.121 A 
ATOM     23  C   UNL     1       5.436  -3.806  -4.566  0.00  0.00    +0.046 A 
ATOM     24  C   UNL     1       6.276  -4.682  -5.226  0.00  0.00    +0.008 A 
ATOM     25  C   UNL     1       7.563  -4.889  -4.764  0.00  0.00    -0.042 A 
ATOM     26  C   UNL     1       8.015  -4.215  -3.645  0.00  0.00    +0.008 A 
ATOM     27  C   UNL     1       7.181  -3.333  -2.985  0.00  0.00    +0.046 A 
BRANCH  25  28
ATOM     28  C   UNL     1       8.474  -5.850  -5.483  0.00  0.00    -0.013 C 
ATOM     29  C   UNL     1       8.896  -6.965  -4.524  0.00  0.00    +0.015 C 
ATOM     30  C   UNL     1       7.735  -6.457  -6.678  0.00  0.00    +0.015 C 
ATOM     31  C   UNL     1       9.715  -5.104  -5.976  0.00  0.00    +0.015 C 
ENDBRANCH  25  28
ENDBRANCH  21  22
ENDBRANCH  20  21
ENDBRANCH   4  20
TORSDOF 8
