REMARK  Name = ZINC21229607
REMARK  9 active torsions:
REMARK  status: ('A' for Active; 'I' for Inactive)
REMARK    1  A    between atoms: C_1  and  C_2
REMARK    2  A    between atoms: C_2  and  C_3
REMARK    3  A    between atoms: C_2  and  O_4
REMARK    4  A    between atoms: O_4  and  C_5
REMARK    5  A    between atoms: C_8  and  C_13
REMARK    6  A    between atoms: C_10  and  O_11
REMARK    7  A    between atoms: O_11  and  C_12
REMARK    8  A    between atoms: C_18  and  C_28
REMARK    9  A    between atoms: C_33  and  O_34
REMARK                            x       y       z     vdW  Elec       q    Type
REMARK                         _______ _______ _______ _____ _____    ______ ____
ROOT
ATOM      1  C   UNL     1       1.298   3.039   0.491  0.00  0.00    +0.032 C 
ATOM      2  C   UNL     1       0.242   3.948  -0.136  0.00  0.00    +0.059 C 
ATOM      3  C   UNL     1      -1.133   3.317  -0.001  0.00  0.00    +0.017 C 
ATOM      4  C   UNL     1      -1.275   1.980  -0.023  0.00  0.00    +0.037 C 
ATOM      5  C   UNL     1      -2.575   1.225   0.106  0.00  0.00    +0.139 C 
ATOM      6  N   UNL     1      -3.761   2.047  -0.012  0.00  0.00    -0.331 N 
ATOM      7  C   UNL     1      -4.050   3.030   0.933  0.00  0.00    +0.049 A 
ATOM      8  C   UNL     1      -5.135   2.914   1.787  0.00  0.00    +0.025 A 
ATOM      9  C   UNL     1      -5.320   3.858   2.783  0.00  0.00    +0.002 A 
ATOM     10  C   UNL     1      -4.431   4.908   2.926  0.00  0.00    +0.002 A 
ATOM     11  C   UNL     1      -3.358   5.038   2.060  0.00  0.00    +0.025 A 
ATOM     12  C   UNL     1      -3.183   4.105   1.053  0.00  0.00    +0.052 A 
ATOM     13  N   UNL     1      -2.156   4.201   0.121  0.00  0.00    -0.316 N 
ATOM     14  C   UNL     1      -0.139   1.146  -0.151  0.00  0.00    +0.163 C 
ATOM     15  O   UNL     1      -0.298  -0.059  -0.191  0.00  0.00    -0.292 OA
ATOM     16  C   UNL     1       1.253   1.695  -0.246  0.00  0.00    +0.088 C 
ATOM     17  H   UNL     1      -4.449   1.900  -0.857  0.00  0.00    +0.147 HD
ATOM     18  H   UNL     1      -2.212   5.072  -0.548  0.00  0.00    +0.152 HD
ENDROOT
BRANCH   1  22
ATOM     19  C   UNL     1       5.169   4.801   0.053  0.00  0.00    +0.162 A 
ATOM     20  C   UNL     1       4.399   4.528  -1.066  0.00  0.00    +0.050 A 
ATOM     21  C   UNL     1       3.148   3.958  -0.921  0.00  0.00    +0.008 A 
ATOM     22  C   UNL     1       2.663   3.659   0.339  0.00  0.00    -0.040 A 
ATOM     23  C   UNL     1       3.424   3.935   1.459  0.00  0.00    +0.053 A 
ATOM     24  C   UNL     1       4.681   4.501   1.321  0.00  0.00    +0.162 A 
BRANCH  24  25
ATOM     25  O   UNL     1       5.434   4.767   2.421  0.00  0.00    -0.491 OA
ATOM     26  C   UNL     1       4.869   4.432   3.690  0.00  0.00    +0.277 C 
ENDBRANCH  24  25
BRANCH  19  27
ATOM     27  O   UNL     1       6.400   5.363  -0.088  0.00  0.00    -0.486 OA
BRANCH  27  29
ATOM     28  C   UNL     1       6.224   7.079  -1.781  0.00  0.00    +0.051 C 
ATOM     29  C   UNL     1       6.806   5.713  -1.413  0.00  0.00    +0.167 C 
ATOM     30  C   UNL     1       8.333   5.774  -1.480  0.00  0.00    +0.051 C 
ENDBRANCH  27  29
ENDBRANCH  19  27
ENDBRANCH   1  22
BRANCH   5  31
ATOM     31  C   UNL     1      -2.600   0.540   1.449  0.00  0.00    +0.019 A 
ATOM     32  C   UNL     1      -1.802   1.004   2.477  0.00  0.00    +0.009 A 
ATOM     33  C   UNL     1      -1.829   0.379   3.710  0.00  0.00    +0.001 A 
ATOM     34  C   UNL     1      -2.646  -0.717   3.914  0.00  0.00    +0.004 A 
ATOM     35  C   UNL     1      -3.442  -1.188   2.888  0.00  0.00    +0.046 A 
ATOM     36  C   UNL     1      -3.421  -0.560   1.651  0.00  0.00    +0.122 A 
BRANCH  36  37
ATOM     37  O   UNL     1      -4.203  -1.021   0.640  0.00  0.00    -0.506 OA
ATOM     38  H   UNL     1      -4.853  -1.893   0.802  0.00  0.00    +0.292 HD
ENDBRANCH  36  37
ENDBRANCH   5  31
TORSDOF 6
