REMARK  Name = ZINC64755683
REMARK  7 active torsions:
REMARK  status: ('A' for Active; 'I' for Inactive)
REMARK    1  A    between atoms: C_4  and  C_7
REMARK    2  A    between atoms: C_7  and  C_8
REMARK    3  A    between atoms: C_7  and  N_11
REMARK    4  A    between atoms: N_14  and  C_15
REMARK    5  A    between atoms: C_15  and  C_16
REMARK    6  A    between atoms: N_20  and  C_22
REMARK    7  A    between atoms: C_22  and  C_23
REMARK                            x       y       z     vdW  Elec       q    Type
REMARK                         _______ _______ _______ _____ _____    ______ ____
ROOT
ATOM      1  N   UNL     1       3.611  -1.865  -0.930  0.00  0.00    -0.284 N 
ATOM      2  C   UNL     1       4.721  -2.370  -1.504  0.00  0.00    +0.300 C 
ATOM      3  O   UNL     1       5.805  -1.866  -1.281  0.00  0.00    -0.253 OA
ATOM      4  N   UNL     1       4.629  -3.435  -2.325  0.00  0.00    -0.299 N 
ATOM      5  H   UNL     1       2.747  -2.267  -1.108  0.00  0.00    +0.151 HD
ATOM      6  H   UNL     1       3.765  -3.837  -2.503  0.00  0.00    +0.150 HD
ENDROOT
BRANCH   1   7
ATOM      7  C   UNL     1       3.711  -0.707  -0.038  0.00  0.00    +0.190 C 
BRANCH   7  11
ATOM      8  C   UNL     1      -0.017   1.378   0.010  0.00  0.00    +0.000 A 
ATOM      9  C   UNL     1       1.171   2.086   0.002  0.00  0.00    +0.000 A 
ATOM     10  C   UNL     1       2.377   1.411  -0.013  0.00  0.00    +0.006 A 
ATOM     11  C   UNL     1       2.396   0.029  -0.020  0.00  0.00    -0.018 A 
ATOM     12  C   UNL     1       1.208  -0.679  -0.012  0.00  0.00    +0.006 A 
ATOM     13  C   UNL     1       0.002  -0.004   0.002  0.00  0.00    +0.000 A 
ENDBRANCH   7  11
BRANCH   7  14
ATOM     14  C   UNL     1       4.044  -1.175   1.356  0.00  0.00    +0.235 C 
ATOM     15  O   UNL     1       4.184  -2.358   1.581  0.00  0.00    -0.274 OA
ATOM     16  N   UNL     1       4.186  -0.278   2.352  0.00  0.00    -0.328 N 
ATOM     17  H   UNL     1       4.074   0.669   2.172  0.00  0.00    +0.145 HD
ATOM     18  H   UNL     1       4.400  -0.579   3.249  0.00  0.00    +0.145 HD
ENDBRANCH   7  14
ENDBRANCH   1   7
BRANCH   4  19
ATOM     19  C   UNL     1       5.835  -3.985  -2.949  0.00  0.00    +0.107 C 
BRANCH  19  20
ATOM     20  C   UNL     1       5.456  -5.180  -3.826  0.00  0.00    -0.011 C 
ATOM     21  C   UNL     1       4.911  -6.308  -2.946  0.00  0.00    +0.001 C 
ATOM     22  C   UNL     1       4.609  -7.526  -3.824  0.00  0.00    -0.018 C 
ATOM     23  C   UNL     1       5.878  -7.937  -4.573  0.00  0.00    -0.078 C 
ATOM     24  N   UNL     1       6.334  -6.825  -5.416  0.00  0.00    +0.383 N 
ATOM     25  C   UNL     1       6.695  -5.678  -4.575  0.00  0.00    -0.073 C 
ATOM     26  H   UNL     1       5.595  -6.559  -6.048  0.00  0.00    -0.081 HD
BRANCH  24  27
ATOM     27  C   UNL     1       7.508  -7.250  -6.191  0.00  0.00    -0.036 C 
BRANCH  27  28
ATOM     28  C   UNL     1       7.108  -8.341  -7.150  0.00  0.00    -0.027 A 
ATOM     29  C   UNL     1       6.665  -8.236  -8.427  0.00  0.00    +0.009 A 
ATOM     30  C   UNL     1       6.354  -9.386  -9.126  0.00  0.00    +0.008 A 
ATOM     31  C   UNL     1       6.500 -10.587  -8.515  0.00  0.00    +0.045 A 
ATOM     32  S   UNL     1       7.101 -10.109  -6.903  0.00  0.00    -0.103 S 
ENDBRANCH  27  28
ENDBRANCH  24  27
ENDBRANCH  19  20
ENDBRANCH   4  19
TORSDOF 7
