REMARK  Name = ZINC08964767
REMARK  9 active torsions:
REMARK  status: ('A' for Active; 'I' for Inactive)
REMARK    1  A    between atoms: C_1  and  C_2
REMARK    2  A    between atoms: C_2  and  C_3
REMARK    3  A    between atoms: C_15  and  C_17
REMARK    4  A    between atoms: C_20  and  C_23
REMARK    5  A    between atoms: C_23  and  O_25
REMARK    6  A    between atoms: O_25  and  C_26
REMARK    7  A    between atoms: C_30  and  C_33
REMARK    8  A    between atoms: C_36  and  O_39
REMARK    9  A    between atoms: O_39  and  C_40
REMARK                            x       y       z     vdW  Elec       q    Type
REMARK                         _______ _______ _______ _____ _____    ______ ____
ROOT
ATOM      1  C   UNL     1      -0.465   5.790   0.969  0.00  0.00    +0.220 C 
ATOM      2  O   UNL     1      -0.542   7.000   0.970  0.00  0.00    -0.275 OA
ATOM      3  N   UNL     1       0.040   5.147  -0.102  0.00  0.00    -0.258 N 
ATOM      4  C   UNL     1       0.124   3.754  -0.093  0.00  0.00    +0.058 A 
ATOM      5  C   UNL     1      -1.011   2.960  -0.068  0.00  0.00    +0.025 A 
ATOM      6  C   UNL     1      -0.878   1.583  -0.127  0.00  0.00    +0.002 A 
ATOM      7  C   UNL     1       0.375   1.002  -0.199  0.00  0.00    +0.002 A 
ATOM      8  C   UNL     1       1.511   1.793  -0.207  0.00  0.00    +0.025 A 
ATOM      9  C   UNL     1       1.381   3.169  -0.137  0.00  0.00    +0.053 A 
ATOM     10  N   UNL     1       2.479   4.014  -0.039  0.00  0.00    -0.316 N 
ATOM     11  C   UNL     1       2.825   4.949  -0.959  0.00  0.00    +0.017 C 
ATOM     12  C   UNL     1       1.970   5.819  -1.523  0.00  0.00    +0.037 C 
ATOM     13  C   UNL     1       0.488   5.912  -1.247  0.00  0.00    +0.147 C 
ATOM     14  C   UNL     1       2.435   6.760  -2.473  0.00  0.00    +0.163 C 
ATOM     15  O   UNL     1       1.644   7.549  -2.953  0.00  0.00    -0.292 OA
ATOM     16  C   UNL     1       3.869   6.818  -2.907  0.00  0.00    +0.088 C 
ATOM     17  C   UNL     1       4.475   5.415  -2.773  0.00  0.00    +0.032 C 
ATOM     18  C   UNL     1       4.300   4.970  -1.322  0.00  0.00    +0.059 C 
ATOM     19  H   UNL     1       3.041   3.929   0.747  0.00  0.00    +0.152 HD
ENDROOT
BRANCH  13  20
ATOM     20  C   UNL     1      -0.255   5.427  -2.465  0.00  0.00    -0.022 A 
ATOM     21  C   UNL     1      -0.141   4.107  -2.862  0.00  0.00    +0.006 A 
ATOM     22  C   UNL     1      -0.823   3.656  -3.973  0.00  0.00    +0.015 A 
ATOM     23  C   UNL     1      -1.621   4.538  -4.704  0.00  0.00    +0.059 A 
ATOM     24  C   UNL     1      -1.727   5.871  -4.301  0.00  0.00    +0.015 A 
ATOM     25  C   UNL     1      -1.044   6.307  -3.185  0.00  0.00    +0.006 A 
BRANCH  23  26
ATOM     26  C   UNL     1      -2.350   4.063  -5.898  0.00  0.00    +0.339 C 
ATOM     27  O   UNL     1      -3.043   4.833  -6.532  0.00  0.00    -0.245 OA
BRANCH  26  28
ATOM     28  O   UNL     1      -2.245   2.777  -6.284  0.00  0.00    -0.464 OA
ATOM     29  C   UNL     1      -2.989   2.381  -7.466  0.00  0.00    +0.280 C 
ENDBRANCH  26  28
ENDBRANCH  23  26
ENDBRANCH  13  20
BRANCH  17  30
ATOM     30  C   UNL     1       5.940   5.456  -3.123  0.00  0.00    -0.043 A 
ATOM     31  C   UNL     1       6.800   6.262  -2.400  0.00  0.00    +0.007 A 
ATOM     32  C   UNL     1       8.144   6.297  -2.715  0.00  0.00    +0.046 A 
ATOM     33  C   UNL     1       8.630   5.532  -3.765  0.00  0.00    +0.120 A 
ATOM     34  C   UNL     1       7.764   4.728  -4.493  0.00  0.00    +0.046 A 
ATOM     35  C   UNL     1       6.421   4.692  -4.170  0.00  0.00    +0.007 A 
BRANCH  33  36
ATOM     36  O   UNL     1       9.951   5.568  -4.081  0.00  0.00    -0.495 OA
ATOM     37  C   UNL     1      10.784   6.418  -3.289  0.00  0.00    +0.277 C 
ENDBRANCH  33  36
ENDBRANCH  17  30
BRANCH   1  39
ATOM     38  C   UNL     1      -1.458   5.967   3.234  0.00  0.00    +0.013 C 
ATOM     39  C   UNL     1      -0.934   5.004   2.167  0.00  0.00    +0.093 C 
ENDBRANCH   1  39
TORSDOF 6
