REMARK  Name = ZINC61890295
REMARK  4 active torsions:
REMARK  status: ('A' for Active; 'I' for Inactive)
REMARK    1  A    between atoms: C_2  and  C_12
REMARK    2  A    between atoms: C_6  and  N_7
REMARK    3  A    between atoms: N_14  and  C_15
REMARK    4  A    between atoms: C_20  and  C_22
REMARK                            x       y       z     vdW  Elec       q    Type
REMARK                         _______ _______ _______ _____ _____    ______ ____
ROOT
ATOM      1  C   UNL     1      -0.017   1.375   0.010  0.00  0.00    +0.047 A 
ATOM      2  C   UNL     1       1.184   2.087   0.002  0.00  0.00    +0.040 A 
ATOM      3  C   UNL     1       2.398   1.398  -0.013  0.00  0.00    +0.034 A 
ATOM      4  C   UNL     1       2.405   0.018  -0.021  0.00  0.00    +0.062 A 
ATOM      5  C   UNL     1       1.209  -0.683  -0.014  0.00  0.00    +0.089 A 
ATOM      6  C   UNL     1       0.002  -0.004   0.002  0.00  0.00    +0.147 A 
ATOM      7 CL   UNL     1       1.224  -2.419  -0.024  0.00  0.00    -0.080 Cl
ATOM      8 CL   UNL     1       3.913  -0.842  -0.040  0.00  0.00    -0.082 Cl
ENDROOT
BRANCH   2   9
ATOM      9  C   UNL     1       1.170   3.565   0.009  0.00  0.00    +0.244 C 
ATOM     10  O   UNL     1       0.112   4.162   0.022  0.00  0.00    -0.270 OA
ATOM     11  N   UNL     1       2.331   4.250   0.002  0.00  0.00    -0.307 N 
ATOM     12  H   UNL     1       3.176   3.773  -0.008  0.00  0.00    +0.149 HD
BRANCH  11  13
ATOM     13  C   UNL     1       2.317   5.715   0.010  0.00  0.00    +0.090 C 
ATOM     14  C   UNL     1       2.252   6.235   1.460  0.00  0.00    +0.023 C 
ATOM     15  C   UNL     1       3.730   6.517   1.829  0.00  0.00    +0.003 C 
ATOM     16  C   UNL     1       4.308   7.088   0.511  0.00  0.00    +0.020 C 
ATOM     17  C   UNL     1       3.624   6.257  -0.595  0.00  0.00    +0.112 C 
BRANCH  17  18
ATOM     18  C   UNL     1       3.326   7.111  -1.757  0.00  0.00    +0.068 C 
ATOM     19  N   UNL     1       3.096   7.769  -2.653  0.00  0.00    -0.196 NA
ENDBRANCH  17  18
ENDBRANCH  11  13
ENDBRANCH   2   9
BRANCH   6  20
ATOM     20  N   UNL     1      -1.270  -0.760   0.011  0.00  0.00    +0.058 N 
ATOM     21  O   UNL     1      -2.325  -0.168   0.024  0.00  0.00    -0.126 OA
ATOM     22  O   UNL     1      -1.256  -1.969   0.004  0.00  0.00    -0.126 OA
ENDBRANCH   6  20
TORSDOF 4
