REMARK  Name = ZINC04985708
REMARK  6 active torsions:
REMARK  status: ('A' for Active; 'I' for Inactive)
REMARK    1  A    between atoms: C_1  and  C_2
REMARK    2  A    between atoms: C_2  and  C_4
REMARK    3  A    between atoms: C_2  and  S_11
REMARK    4  A    between atoms: N_9  and  C_10
REMARK    5  A    between atoms: S_11  and  C_12
REMARK    6  A    between atoms: N_22  and  C_23
REMARK                            x       y       z     vdW  Elec       q    Type
REMARK                         _______ _______ _______ _____ _____    ______ ____
ROOT
ATOM      1  C   UNL     1       2.307   1.459  -0.012  0.00  0.00    +0.173 A 
ATOM      2  N   UNL     1       1.156   2.085   0.002  0.00  0.00    -0.223 NA
ATOM      3  C   UNL     1      -0.017   1.410   0.010  0.00  0.00    +0.080 A 
ATOM      4  C   UNL     1      -1.246   2.076   0.031  0.00  0.00    +0.048 A 
ATOM      5  C   UNL     1      -2.414   1.346   0.033  0.00  0.00    +0.043 A 
ATOM      6  C   UNL     1      -2.385  -0.045   0.025  0.00  0.00    +0.021 A 
ATOM      7  C   UNL     1      -1.196  -0.718   0.010  0.00  0.00    +0.017 A 
ATOM      8  C   UNL     1       0.002  -0.004   0.002  0.00  0.00    +0.065 A 
ATOM      9  C   UNL     1       1.306  -0.679  -0.014  0.00  0.00    +0.263 A 
ATOM     10  O   UNL     1       1.388  -1.894  -0.022  0.00  0.00    -0.267 OA
ATOM     11  N   UNL     1       2.414   0.098  -0.020  0.00  0.00    -0.284 N 
ATOM     12 CL   UNL     1      -3.941   2.171   0.053  0.00  0.00    -0.083 Cl
ENDROOT
BRANCH  11  13
ATOM     13  C   UNL     1       3.739  -0.526  -0.037  0.00  0.00    +0.093 C 
ATOM     14  C   UNL     1       3.881  -1.389  -1.292  0.00  0.00    +0.025 C 
ATOM     15  C   UNL     1       5.265  -2.041  -1.310  0.00  0.00    +0.002 C 
ATOM     16  C   UNL     1       5.431  -2.918  -0.067  0.00  0.00    +0.000 C 
ATOM     17  C   UNL     1       5.290  -2.055   1.189  0.00  0.00    +0.002 C 
ATOM     18  C   UNL     1       3.905  -1.403   1.206  0.00  0.00    +0.025 C 
ENDBRANCH  11  13
BRANCH   1  19
ATOM     19  S   UNL     1       3.785   2.418  -0.020  0.00  0.00    -0.075 S 
BRANCH  19  21
ATOM     20  C   UNL     1       2.306   4.323  -1.304  0.00  0.00    +0.029 C 
ATOM     21  C   UNL     1       3.078   4.085  -0.005  0.00  0.00    +0.137 C 
BRANCH  21  22
ATOM     22  C   UNL     1       4.186   5.099   0.114  0.00  0.00    +0.233 C 
ATOM     23  O   UNL     1       5.305   4.822  -0.262  0.00  0.00    -0.274 OA
ATOM     24  N   UNL     1       3.934   6.314   0.639  0.00  0.00    -0.239 N 
ATOM     25  C   UNL     1       4.925   7.222   0.746  0.00  0.00    +0.306 C 
ATOM     26  O   UNL     1       6.046   6.944   0.368  0.00  0.00    -0.252 OA
ATOM     27  N   UNL     1       4.672   8.437   1.271  0.00  0.00    -0.302 N 
ATOM     28  C   UNL     1       5.749   9.423   1.387  0.00  0.00    +0.129 C 
ATOM     29  H   UNL     1       3.039   6.536   0.940  0.00  0.00    +0.159 HD
ATOM     30  H   UNL     1       3.777   8.659   1.572  0.00  0.00    +0.150 HD
ENDBRANCH  21  22
ENDBRANCH  19  21
ENDBRANCH   1  19
TORSDOF 4
