REMARK  Name = ZINC31808322
REMARK  9 active torsions:
REMARK  status: ('A' for Active; 'I' for Inactive)
REMARK    1  A    between atoms: C_1  and  O_2
REMARK    2  A    between atoms: O_2  and  C_3
REMARK    3  A    between atoms: C_3  and  C_5
REMARK    4  A    between atoms: C_5  and  C_6
REMARK    5  A    between atoms: C_6  and  C_8
REMARK    6  A    between atoms: C_6  and  N_12
REMARK    7  A    between atoms: C_8  and  O_10
REMARK    8  A    between atoms: O_10  and  C_11
REMARK    9  A    between atoms: C_24  and  C_26
REMARK                            x       y       z     vdW  Elec       q    Type
REMARK                         _______ _______ _______ _____ _____    ______ ____
ROOT
ATOM      1  N   UNL     1      -5.524  -2.224   0.195  0.00  0.00    -0.286 N 
ATOM      2  C   UNL     1      -4.721  -2.022   1.259  0.00  0.00    +0.304 C 
ATOM      3  O   UNL     1      -3.534  -2.273   1.181  0.00  0.00    -0.253 OA
ATOM      4  N   UNL     1      -5.234  -1.540   2.408  0.00  0.00    -0.273 N 
ATOM      5  C   UNL     1      -4.360  -1.203   3.542  0.00  0.00    +0.116 C 
ATOM      6  C   UNL     1      -4.684  -2.128   4.721  0.00  0.00    +0.076 C 
ATOM      7  C   UNL     1      -6.182  -2.208   4.880  0.00  0.00    +0.066 A 
ATOM      8  C   UNL     1      -7.070  -1.862   3.923  0.00  0.00    +0.064 A 
ATOM      9  N   UNL     1      -8.314  -2.074   4.430  0.00  0.00    -0.346 N 
ATOM     10  H   UNL     1      -9.157  -1.919   3.976  0.00  0.00    +0.167 HD
ATOM     11  C   UNL     1      -8.151  -2.542   5.690  0.00  0.00    +0.197 A 
ATOM     12  N   UNL     1      -6.872  -2.618   5.949  0.00  0.00    -0.240 NA
ATOM     13  C   UNL     1      -6.686  -1.331   2.559  0.00  0.00    +0.159 C 
ATOM     14  H   UNL     1      -6.481  -2.089   0.277  0.00  0.00    +0.151 HD
ENDROOT
BRANCH  13  15
ATOM     15  C   UNL     1      -7.006   0.139   2.468  0.00  0.00    +0.014 A 
ATOM     16  C   UNL     1      -7.267   0.862   3.616  0.00  0.00    +0.010 A 
ATOM     17  C   UNL     1      -7.560   2.210   3.534  0.00  0.00    +0.020 A 
ATOM     18  C   UNL     1      -7.591   2.838   2.300  0.00  0.00    +0.044 A 
ATOM     19  C   UNL     1      -7.330   2.116   1.150  0.00  0.00    +0.058 A 
ATOM     20  C   UNL     1      -7.031   0.766   1.234  0.00  0.00    +0.130 A 
ATOM     21  F   UNL     1      -6.771   0.061   0.112  0.00  0.00    -0.205 F 
ATOM     22 CL   UNL     1      -7.960   4.531   2.197  0.00  0.00    -0.083 Cl
ENDBRANCH  13  15
BRANCH   1  23
ATOM     23  C   UNL     1      -4.951  -2.648  -1.085  0.00  0.00    +0.194 C 
BRANCH  23  24
ATOM     24  C   UNL     1      -4.483  -1.438  -1.851  0.00  0.00    +0.328 C 
ATOM     25  O   UNL     1      -4.614  -0.335  -1.377  0.00  0.00    -0.249 OA
BRANCH  24  26
ATOM     26  O   UNL     1      -3.920  -1.586  -3.060  0.00  0.00    -0.467 OA
ATOM     27  C   UNL     1      -3.499  -0.396  -3.730  0.00  0.00    +0.280 C 
ENDBRANCH  24  26
ENDBRANCH  23  24
BRANCH  23  28
ATOM     28  C   UNL     1      -6.014  -3.388  -1.899  0.00  0.00    +0.154 C 
BRANCH  28  29
ATOM     29  C   UNL     1      -6.394  -4.662  -1.190  0.00  0.00    +0.309 C 
ATOM     30  O   UNL     1      -5.868  -4.950  -0.141  0.00  0.00    -0.251 OA
BRANCH  29  32
ATOM     31  C   UNL     1      -7.627  -6.669  -0.999  0.00  0.00    +0.280 C 
ATOM     32  O   UNL     1      -7.316  -5.478  -1.724  0.00  0.00    -0.468 OA
ENDBRANCH  29  32
ENDBRANCH  28  29
ENDBRANCH  23  28
ENDBRANCH   1  23
TORSDOF 7
