REMARK  Name = ZINC20720595
REMARK  9 active torsions:
REMARK  status: ('A' for Active; 'I' for Inactive)
REMARK    1  A    between atoms: C_1  and  O_2
REMARK    2  A    between atoms: O_2  and  C_3
REMARK    3  A    between atoms: C_3  and  C_5
REMARK    4  A    between atoms: C_5  and  C_7
REMARK    5  A    between atoms: C_5  and  N_11
REMARK    6  A    between atoms: C_7  and  C_8
REMARK    7  A    between atoms: C_8  and  S_9
REMARK    8  A    between atoms: S_9  and  C_10
REMARK    9  A    between atoms: C_23  and  C_25
REMARK                            x       y       z     vdW  Elec       q    Type
REMARK                         _______ _______ _______ _____ _____    ______ ____
ROOT
ATOM      1  N   UNL     1       3.382  -2.294   1.198  0.00  0.00    -0.286 N 
ATOM      2  C   UNL     1       2.720  -2.621   2.325  0.00  0.00    +0.304 C 
ATOM      3  O   UNL     1       1.512  -2.486   2.382  0.00  0.00    -0.253 OA
ATOM      4  N   UNL     1       3.395  -3.097   3.389  0.00  0.00    -0.273 N 
ATOM      5  C   UNL     1       2.682  -3.562   4.588  0.00  0.00    +0.116 C 
ATOM      6  C   UNL     1       2.929  -5.065   4.768  0.00  0.00    +0.074 C 
ATOM      7  C   UNL     1       4.394  -5.344   4.561  0.00  0.00    +0.040 A 
ATOM      8  C   UNL     1       5.259  -4.510   3.943  0.00  0.00    +0.062 A 
ATOM      9  N   UNL     1       6.462  -5.087   3.941  0.00  0.00    -0.348 N 
ATOM     10  C   UNL     1       6.381  -6.249   4.536  0.00  0.00    +0.171 A 
ATOM     11  N   UNL     1       5.104  -6.444   4.938  0.00  0.00    -0.349 N 
ATOM     12  H   UNL     1       4.760  -7.220   5.406  0.00  0.00    +0.166 HD
ATOM     13  C   UNL     1       4.867  -3.170   3.378  0.00  0.00    +0.156 C 
ATOM     14  H   UNL     1       4.351  -2.327   1.178  0.00  0.00    +0.151 HD
ATOM     15  H   UNL     1       7.268  -4.706   3.558  0.00  0.00    +0.167 HD
ENDROOT
BRANCH  13  16
ATOM     16  C   UNL     1       5.442  -2.070   4.233  0.00  0.00    -0.021 A 
ATOM     17  C   UNL     1       5.195  -2.051   5.593  0.00  0.00    +0.007 A 
ATOM     18  C   UNL     1       5.722  -1.043   6.377  0.00  0.00    +0.020 A 
ATOM     19  C   UNL     1       6.497  -0.052   5.801  0.00  0.00    +0.041 A 
ATOM     20  C   UNL     1       6.744  -0.071   4.440  0.00  0.00    +0.020 A 
ATOM     21  C   UNL     1       6.221  -1.083   3.657  0.00  0.00    +0.007 A 
ATOM     22 CL   UNL     1       7.159   1.215   6.786  0.00  0.00    -0.084 Cl
ENDBRANCH  13  16
BRANCH   1  23
ATOM     23  C   UNL     1       2.638  -1.888   0.003  0.00  0.00    +0.184 C 
BRANCH  23  24
ATOM     24  C   UNL     1       2.221  -3.114  -0.769  0.00  0.00    +0.327 C 
ATOM     25  O   UNL     1       2.515  -4.213  -0.363  0.00  0.00    -0.249 OA
BRANCH  24  27
ATOM     26  C   UNL     1       1.161  -4.188  -2.588  0.00  0.00    +0.280 C 
ATOM     27  O   UNL     1       1.523  -2.984  -1.909  0.00  0.00    -0.467 OA
ENDBRANCH  24  27
ENDBRANCH  23  24
BRANCH  23  28
ATOM     28  C   UNL     1       3.527  -1.009  -0.878  0.00  0.00    +0.044 C 
BRANCH  28  29
ATOM     29  C   UNL     1       3.848   0.293  -0.140  0.00  0.00    +0.071 C 
BRANCH  29  30
ATOM     30  S   UNL     1       4.903   1.336  -1.184  0.00  0.00    -0.164 S 
ATOM     31  C   UNL     1       5.188   2.818  -0.178  0.00  0.00    +0.084 C 
ENDBRANCH  29  30
ENDBRANCH  28  29
ENDBRANCH  23  28
ENDBRANCH   1  23
TORSDOF 7
