REMARK  Name = ZINC05686822
REMARK  6 active torsions:
REMARK  status: ('A' for Active; 'I' for Inactive)
REMARK    1  A    between atoms: C_1  and  C_2
REMARK    2  A    between atoms: C_2  and  C_3
REMARK    3  A    between atoms: N_7  and  N_8
REMARK    4  A    between atoms: C_9  and  C_10
REMARK    5  A    between atoms: C_9  and  C_11
REMARK    6  A    between atoms: C_14  and  N_17
REMARK                            x       y       z     vdW  Elec       q    Type
REMARK                         _______ _______ _______ _____ _____    ______ ____
ROOT
ATOM      1  N   UNL     1       0.502  -2.919  -0.833  0.00  0.00    -0.168 NA
ATOM      2  C   UNL     1       0.672  -4.116  -1.307  0.00  0.00    +0.066 C 
ATOM      3  C   UNL     1       1.408  -4.314  -2.607  0.00  0.00    +0.068 C 
ENDROOT
BRANCH   1   8
ATOM      4  C   UNL     1       0.456  -0.809  -2.119  0.00  0.00    +0.153 A 
ATOM      5  N   UNL     1       1.333   0.030  -2.568  0.00  0.00    -0.157 NA
ATOM      6  N   UNL     1       2.606  -0.436  -2.210  0.00  0.00    -0.253 N 
ATOM      7  C   UNL     1       2.435  -1.588  -1.528  0.00  0.00    +0.196 A 
ATOM      8  N   UNL     1       1.110  -1.824  -1.462  0.00  0.00    -0.192 N 
ATOM      9  S   UNL     1       3.674  -2.565  -0.864  0.00  0.00    -0.010 S 
ATOM     10  H   UNL     1       3.453  -0.009  -2.414  0.00  0.00    +0.191 HD
BRANCH   4  12
ATOM     11  C   UNL     1      -1.363   0.579  -3.075  0.00  0.00    +0.012 C 
ATOM     12  C   UNL     1      -1.037  -0.690  -2.284  0.00  0.00    +0.075 C 
ENDBRANCH   4  12
ENDBRANCH   1   8
BRANCH   2  13
ATOM     13  C   UNL     1       0.145  -5.281  -0.573  0.00  0.00    -0.002 A 
ATOM     14  C   UNL     1       0.331  -6.571  -1.076  0.00  0.00    +0.012 A 
ATOM     15  C   UNL     1      -0.165  -7.656  -0.384  0.00  0.00    +0.033 A 
ATOM     16  C   UNL     1      -0.845  -7.470   0.806  0.00  0.00    +0.126 A 
ATOM     17  C   UNL     1      -1.033  -6.195   1.311  0.00  0.00    +0.033 A 
ATOM     18  C   UNL     1      -0.537  -5.101   0.633  0.00  0.00    +0.012 A 
BRANCH  16  19
ATOM     19  N   UNL     1      -1.375  -8.640   1.543  0.00  0.00    +0.056 N 
ATOM     20  O   UNL     1      -1.212  -9.754   1.104  0.00  0.00    -0.126 OA
ATOM     21  O   UNL     1      -1.970  -8.480   2.583  0.00  0.00    -0.126 OA
ENDBRANCH  16  19
ENDBRANCH   2  13
TORSDOF 4
