REMARK  Name = ZINC36752463
REMARK  7 active torsions:
REMARK  status: ('A' for Active; 'I' for Inactive)
REMARK    1  A    between atoms: C_1  and  C_2
REMARK    2  A    between atoms: C_2  and  C_3
REMARK    3  A    between atoms: C_3  and  C_5
REMARK    4  A    between atoms: C_3  and  N_15
REMARK    5  A    between atoms: C_16  and  C_18
REMARK    6  A    between atoms: C_18  and  N_19
REMARK    7  A    between atoms: C_26  and  N_30
REMARK                            x       y       z     vdW  Elec       q    Type
REMARK                         _______ _______ _______ _____ _____    ______ ____
ROOT
ATOM      1  N   UNL     1      -2.105  -0.148  -1.230  0.00  0.00    -0.311 N 
ATOM      2  C   UNL     1      -2.690   1.062  -1.334  0.00  0.00    +0.231 C 
ATOM      3  O   UNL     1      -2.659   1.832  -0.397  0.00  0.00    -0.274 OA
ATOM      4  H   UNL     1      -2.130  -0.764  -1.980  0.00  0.00    +0.149 HD
ENDROOT
BRANCH   1   5
ATOM      5  C   UNL     1      -1.433  -0.534   0.013  0.00  0.00    +0.079 C 
BRANCH   5   6
ATOM      6  C   UNL     1      -1.413  -2.059   0.130  0.00  0.00    -0.010 C 
ATOM      7  C   UNL     1      -0.660  -2.652  -1.062  0.00  0.00    +0.012 C 
ATOM      8  C   UNL     1      -0.640  -4.178  -0.945  0.00  0.00    -0.010 C 
ATOM      9  C   UNL     1      -2.075  -4.707  -0.934  0.00  0.00    +0.007 C 
ATOM     10  C   UNL     1      -2.829  -4.114   0.258  0.00  0.00    -0.010 C 
ATOM     11  C   UNL     1      -2.849  -2.589   0.141  0.00  0.00    +0.012 C 
ATOM     12  C   UNL     1      -2.127  -4.516   1.557  0.00  0.00    +0.007 C 
ATOM     13  C   UNL     1      -0.691  -3.987   1.546  0.00  0.00    -0.010 C 
ATOM     14  C   UNL     1       0.062  -4.580   0.354  0.00  0.00    +0.007 C 
ATOM     15  C   UNL     1      -0.711  -2.461   1.429  0.00  0.00    +0.012 C 
ENDBRANCH   5   6
BRANCH   5  17
ATOM     16  C   UNL     1      -0.019   1.526   0.010  0.00  0.00    +0.006 C 
ATOM     17  C   UNL     1       0.002  -0.004   0.002  0.00  0.00    +0.019 C 
ENDBRANCH   5  17
ENDBRANCH   1   5
BRANCH   2  18
ATOM     18  C   UNL     1      -3.381   1.458  -2.613  0.00  0.00    +0.212 C 
BRANCH  18  19
ATOM     19  N   UNL     1      -3.931   2.809  -2.472  0.00  0.00    -0.225 N 
ATOM     20  C   UNL     1      -5.165   3.084  -2.012  0.00  0.00    +0.254 C 
ATOM     21  O   UNL     1      -5.987   2.266  -1.653  0.00  0.00    -0.270 OA
ATOM     22  C   UNL     1      -5.352   4.551  -2.017  0.00  0.00    +0.052 A 
ATOM     23  C   UNL     1      -6.393   5.394  -1.662  0.00  0.00    +0.014 A 
ATOM     24  C   UNL     1      -6.241   6.766  -1.792  0.00  0.00    +0.003 A 
ATOM     25  C   UNL     1      -5.059   7.297  -2.275  0.00  0.00    +0.033 A 
ATOM     26  C   UNL     1      -4.010   6.465  -2.634  0.00  0.00    +0.139 A 
ATOM     27  C   UNL     1      -4.147   5.092  -2.508  0.00  0.00    +0.080 A 
ATOM     28  C   UNL     1      -3.266   3.937  -2.781  0.00  0.00    +0.256 C 
ATOM     29  O   UNL     1      -2.133   3.996  -3.213  0.00  0.00    -0.269 OA
BRANCH  26  30
ATOM     30  N   UNL     1      -2.748   7.042  -3.149  0.00  0.00    +0.057 N 
ATOM     31  O   UNL     1      -2.630   8.240  -3.257  0.00  0.00    -0.126 OA
ATOM     32  O   UNL     1      -1.834   6.314  -3.462  0.00  0.00    -0.126 OA
ENDBRANCH  26  30
ENDBRANCH  18  19
ENDBRANCH   2  18
TORSDOF 6
