REMARK  Name = ZINC10451965
REMARK  9 active torsions:
REMARK  status: ('A' for Active; 'I' for Inactive)
REMARK    1  A    between atoms: C_1  and  C_2
REMARK    2  A    between atoms: C_7  and  O_8
REMARK    3  A    between atoms: O_8  and  C_9
REMARK    4  A    between atoms: C_9  and  C_10
REMARK    5  A    between atoms: N_12  and  N_13
REMARK    6  A    between atoms: C_14  and  C_16
REMARK    7  A    between atoms: C_19  and  C_22
REMARK    8  A    between atoms: C_22  and  C_23
REMARK    9  A    between atoms: C_22  and  C_24
REMARK                            x       y       z     vdW  Elec       q    Type
REMARK                         _______ _______ _______ _____ _____    ______ ____
ROOT
ATOM      1  C   UNL     1       3.524   1.907  -0.021  0.00  0.00    +0.267 C 
ATOM      2  O   UNL     1       3.508   3.119  -0.015  0.00  0.00    -0.271 OA
ATOM      3  N   UNL     1       2.366   1.217  -0.014  0.00  0.00    -0.231 N 
ATOM      4  H   UNL     1       2.379   0.247  -0.019  0.00  0.00    +0.173 HD
ENDROOT
BRANCH   3   5
ATOM      5  N   UNL     1       1.143   1.901   0.001  0.00  0.00    -0.230 N 
ATOM      6  C   UNL     1      -0.014   1.211   0.009  0.00  0.00    +0.260 C 
ATOM      7  O   UNL     1       0.002  -0.004   0.002  0.00  0.00    -0.269 OA
ATOM      8  H   UNL     1       1.130   2.871   0.007  0.00  0.00    +0.173 HD
BRANCH   6   9
ATOM      9  C   UNL     1      -1.305   1.933   0.019  0.00  0.00    +0.038 A 
ATOM     10  C   UNL     1      -1.327   3.329   0.032  0.00  0.00    +0.013 A 
ATOM     11  C   UNL     1      -2.534   3.996   0.035  0.00  0.00    +0.004 A 
ATOM     12  C   UNL     1      -3.721   3.285   0.037  0.00  0.00    -0.045 A 
ATOM     13  C   UNL     1      -3.706   1.901   0.030  0.00  0.00    +0.004 A 
ATOM     14  C   UNL     1      -2.506   1.222   0.021  0.00  0.00    +0.013 A 
BRANCH  12  15
ATOM     15  C   UNL     1      -5.037   4.021   0.048  0.00  0.00    +0.013 C 
ATOM     16  C   UNL     1      -5.124   4.892   1.302  0.00  0.00    +0.012 C 
ATOM     17  C   UNL     1      -5.136   4.906  -1.196  0.00  0.00    +0.012 C 
ENDBRANCH  12  15
ENDBRANCH   6   9
ENDBRANCH   3   5
BRANCH   1  18
ATOM     18  C   UNL     1       4.839   1.171  -0.038  0.00  0.00    +0.326 C 
BRANCH  18  19
ATOM     19  O   UNL     1       5.913   2.115  -0.043  0.00  0.00    -0.481 OA
BRANCH  19  26
ATOM     20  C   UNL     1       7.098   1.646  -2.563  0.00  0.00    +0.047 C 
ATOM     21  C   UNL     1       7.809   1.362  -1.266  0.00  0.00    -0.007 A 
ATOM     22  C   UNL     1       9.093   0.852  -1.279  0.00  0.00    +0.022 A 
ATOM     23  C   UNL     1       9.747   0.590  -0.088  0.00  0.00    +0.019 A 
ATOM     24  C   UNL     1       9.117   0.839   1.119  0.00  0.00    +0.034 A 
ATOM     25  C   UNL     1       7.835   1.354   1.136  0.00  0.00    +0.061 A 
ATOM     26  C   UNL     1       7.176   1.612  -0.058  0.00  0.00    +0.138 A 
ATOM     27 BR   UNL     1       6.977   1.701   2.785  0.00  0.00    -0.046 Br
ATOM     28 BR   UNL     1      11.504  -0.108  -0.109  0.00  0.00    -0.050 Br
ENDBRANCH  19  26
ENDBRANCH  18  19
ENDBRANCH   1  18
TORSDOF 6
