REMARK  Name = ZINC61757455
REMARK  8 active torsions:
REMARK  status: ('A' for Active; 'I' for Inactive)
REMARK    1  A    between atoms: C_1  and  C_2
REMARK    2  A    between atoms: C_2  and  N_3
REMARK    3  A    between atoms: N_3  and  C_4
REMARK    4  A    between atoms: N_3  and  C_6
REMARK    5  A    between atoms: C_4  and  C_5
REMARK    6  A    between atoms: C_6  and  C_7
REMARK    7  A    between atoms: C_9  and  C_12
REMARK    8  A    between atoms: C_17  and  C_18
REMARK                            x       y       z     vdW  Elec       q    Type
REMARK                         _______ _______ _______ _____ _____    ______ ____
ROOT
ATOM      1  C   UNL     1      -3.356  -2.579   0.154  0.00  0.00    +0.211 A 
ATOM      2  N   UNL     1      -3.784  -2.833  -1.049  0.00  0.00    -0.193 NA
ATOM      3  C   UNL     1      -5.035  -3.324  -0.999  0.00  0.00    +0.202 A 
ATOM      4  N   UNL     1      -5.412  -3.384   0.254  0.00  0.00    -0.056 NA
ATOM      5  O   UNL     1      -4.320  -2.904   1.025  0.00  0.00    -0.340 OA
ENDROOT
BRANCH   3   6
ATOM      6  C   UNL     1      -5.853  -3.730  -2.169  0.00  0.00    +0.025 A 
ATOM      7  C   UNL     1      -5.914  -2.914  -3.297  0.00  0.00    +0.012 A 
ATOM      8  C   UNL     1      -6.676  -3.296  -4.382  0.00  0.00    +0.001 A 
ATOM      9  C   UNL     1      -7.380  -4.487  -4.351  0.00  0.00    +0.000 A 
ATOM     10  C   UNL     1      -7.323  -5.301  -3.234  0.00  0.00    +0.004 A 
ATOM     11  C   UNL     1      -6.559  -4.931  -2.146  0.00  0.00    -0.040 A 
ATOM     12  C   UNL     1      -6.493  -5.822  -0.932  0.00  0.00    +0.044 C 
ENDBRANCH   3   6
BRANCH   1  13
ATOM     13  C   UNL     1      -2.002  -2.019   0.508  0.00  0.00    +0.022 C 
BRANCH  13  14
ATOM     14  N   UNL     1      -2.079  -0.553   0.568  0.00  0.00    +0.385 N 
ATOM     15  H   UNL     1      -2.805  -0.281   1.213  0.00  0.00    -0.081 HD
BRANCH  14  17
ATOM     16  C   UNL     1      -0.907   1.500   1.206  0.00  0.00    -0.017 C 
ATOM     17  C   UNL     1      -0.790  -0.014   1.024  0.00  0.00    -0.082 C 
ENDBRANCH  14  17
BRANCH  14  18
ATOM     18  C   UNL     1      -2.386  -0.024  -0.767  0.00  0.00    -0.082 C 
ATOM     19  C   UNL     1      -1.290  -0.446  -1.748  0.00  0.00    -0.017 C 
ENDBRANCH  14  18
ENDBRANCH  13  14
ENDBRANCH   1  13
TORSDOF 5
