REMARK  Name = ZINC41584792
REMARK  10 active torsions:
REMARK  status: ('A' for Active; 'I' for Inactive)
REMARK    1  A    between atoms: C_1  and  C_2
REMARK    2  A    between atoms: C_2  and  O_3
REMARK    3  A    between atoms: O_3  and  C_4
REMARK    4  A    between atoms: C_4  and  C_6
REMARK    5  A    between atoms: C_9  and  O_12
REMARK    6  A    between atoms: O_12  and  C_13
REMARK    7  A    between atoms: C_13  and  C_14
REMARK    8  A    between atoms: C_18  and  O_40
REMARK    9  A    between atoms: C_19  and  C_23
REMARK   10  A    between atoms: C_23  and  N_24
REMARK                            x       y       z     vdW  Elec       q    Type
REMARK                         _______ _______ _______ _____ _____    ______ ____
ROOT
ATOM      1  C   UNL     1       4.141  -5.675  -7.233  0.00  0.00    +0.128 A 
ATOM      2  C   UNL     1       3.530  -5.889  -8.547  0.00  0.00    +0.048 A 
ATOM      3  C   UNL     1       2.216  -5.830  -9.021  0.00  0.00    +0.017 A 
ATOM      4  C   UNL     1       1.956  -6.088 -10.335  0.00  0.00    +0.046 A 
ATOM      5  C   UNL     1       2.991  -6.412 -11.210  0.00  0.00    +0.122 A 
ATOM      6  C   UNL     1       4.297  -6.475 -10.759  0.00  0.00    +0.023 A 
ATOM      7  C   UNL     1       4.578  -6.214  -9.424  0.00  0.00    +0.172 A 
ATOM      8  O   UNL     1       5.718  -6.198  -8.704  0.00  0.00    -0.354 OA
ATOM      9  N   UNL     1       5.419  -5.859  -7.364  0.00  0.00    -0.079 NA
ENDROOT
BRANCH   5  10
ATOM     10  O   UNL     1       2.715  -6.666 -12.516  0.00  0.00    -0.506 OA
ATOM     11  H   UNL     1       2.743  -5.884 -13.083  0.00  0.00    +0.292 HD
ENDBRANCH   5  10
BRANCH   1  12
ATOM     12  C   UNL     1       3.420  -5.303  -5.963  0.00  0.00    +0.288 C 
BRANCH  12  13
ATOM     13  O   UNL     1       3.350  -3.880  -5.854  0.00  0.00    -0.486 OA
BRANCH  13  17
ATOM     14  C   UNL     1       1.454  -2.347  -2.524  0.00  0.00    +0.059 A 
ATOM     15  C   UNL     1       1.993  -1.484  -3.483  0.00  0.00    +0.018 A 
ATOM     16  C   UNL     1       2.625  -2.000  -4.592  0.00  0.00    +0.046 A 
ATOM     17  C   UNL     1       2.727  -3.376  -4.759  0.00  0.00    +0.121 A 
ATOM     18  C   UNL     1       2.192  -4.237  -3.808  0.00  0.00    +0.046 A 
ATOM     19  C   UNL     1       1.563  -3.730  -2.693  0.00  0.00    +0.018 A 
BRANCH  14  20
ATOM     20  C   UNL     1       0.776  -1.799  -1.335  0.00  0.00    +0.339 C 
ATOM     21  O   UNL     1       0.312  -2.550  -0.500  0.00  0.00    -0.245 OA
BRANCH  20  22
ATOM     22  O   UNL     1       0.671  -0.465  -1.174  0.00  0.00    -0.461 OA
BRANCH  22  24
ATOM     23  C   UNL     1      -0.019   1.526   0.010  0.00  0.00    +0.048 C 
ATOM     24  C   UNL     1       0.002  -0.004   0.002  0.00  0.00    +0.229 C 
ENDBRANCH  22  24
ENDBRANCH  20  22
ENDBRANCH  14  20
ENDBRANCH  13  17
ENDBRANCH  12  13
ENDBRANCH   1  12
BRANCH   6  25
ATOM     25  C   UNL     1       5.410  -6.827 -11.712  0.00  0.00    -0.035 C 
BRANCH  25  26
ATOM     26  N   UNL     1       5.940  -5.599 -12.319  0.00  0.00    +0.383 N 
ATOM     27  C   UNL     1       7.105  -5.928 -13.146  0.00  0.00    -0.073 C 
ATOM     28  C   UNL     1       7.686  -4.682 -13.799  0.00  0.00    -0.007 C 
ATOM     29  C   UNL     1       6.619  -3.954 -14.622  0.00  0.00    +0.011 C 
ATOM     30  C   UNL     1       5.448  -3.641 -13.682  0.00  0.00    +0.020 C 
ATOM     31  C   UNL     1       4.899  -4.975 -13.149  0.00  0.00    -0.069 C 
ATOM     32  C   UNL     1       5.960  -2.843 -12.504  0.00  0.00    +0.023 A 
ATOM     33  C   UNL     1       5.094  -1.985 -11.903  0.00  0.00    +0.022 A 
ATOM     34  C   UNL     1       5.482  -1.263 -10.769  0.00  0.00    +0.007 A 
ATOM     35  C   UNL     1       6.734  -1.454 -10.262  0.00  0.00    +0.070 A 
ATOM     36  C   UNL     1       7.601  -2.349 -10.904  0.00  0.00    +0.251 A 
ATOM     37  O   UNL     1       8.700  -2.575 -10.424  0.00  0.00    -0.268 OA
ATOM     38  N   UNL     1       7.230  -2.968 -12.052  0.00  0.00    -0.312 N 
ATOM     39  C   UNL     1       8.255  -3.720 -12.769  0.00  0.00    +0.126 C 
ATOM     40  H   UNL     1       6.218  -4.957 -11.591  0.00  0.00    -0.081 HD
ENDBRANCH  25  26
ENDBRANCH   6  25
TORSDOF 9
