REMARK  Name = ZINC45523352
REMARK  4 active torsions:
REMARK  status: ('A' for Active; 'I' for Inactive)
REMARK    1  A    between atoms: C_5  and  C_6
REMARK    2  A    between atoms: C_6  and  O_7
REMARK    3  A    between atoms: O_7  and  C_8
REMARK    4  A    between atoms: C_8  and  C_10
REMARK                            x       y       z     vdW  Elec       q    Type
REMARK                         _______ _______ _______ _____ _____    ______ ____
ROOT
ATOM      1  C   UNL     1      -2.563  -2.120  -1.507  0.00  0.00    +0.360 C 
ATOM      2  O   UNL     1      -3.122  -2.599  -0.541  0.00  0.00    -0.243 OA
ENDROOT
BRANCH   1   3
ATOM      3  C   UNL     1      -3.011  -2.475  -2.872  0.00  0.00    +0.167 A 
ATOM      4  C   UNL     1      -4.080  -3.355  -3.042  0.00  0.00    +0.073 A 
ATOM      5  C   UNL     1      -4.488  -3.678  -4.329  0.00  0.00    +0.025 A 
ATOM      6  C   UNL     1      -3.816  -3.110  -5.398  0.00  0.00    +0.041 A 
ATOM      7  C   UNL     1      -2.761  -2.242  -5.155  0.00  0.00    +0.130 A 
ATOM      8  N   UNL     1      -2.397  -1.948  -3.925  0.00  0.00    -0.227 NA
ATOM      9 CL   UNL     1      -1.914  -1.528  -6.492  0.00  0.00    -0.062 Cl
ATOM     10 CL   UNL     1      -4.886  -4.038  -1.665  0.00  0.00    -0.081 Cl
ENDBRANCH   1   3
BRANCH   1  11
ATOM     11  O   UNL     1      -1.535  -1.266  -1.337  0.00  0.00    -0.455 OA
BRANCH  11  12
ATOM     12  C   UNL     1      -1.156  -0.969   0.009  0.00  0.00    +0.275 C 
BRANCH  12  17
ATOM     13  C   UNL     1      -0.016   1.351   0.009  0.00  0.00    +0.016 A 
ATOM     14  C   UNL     1       1.183   2.038   0.002  0.00  0.00    +0.023 A 
ATOM     15  C   UNL     1       2.343   1.335  -0.013  0.00  0.00    +0.055 A 
ATOM     16  S   UNL     1       1.753  -0.350  -0.017  0.00  0.00    -0.083 S 
ATOM     17  C   UNL     1       0.002  -0.004   0.002  0.00  0.00    +0.028 A 
ATOM     18 BR   UNL     1       4.123   1.974  -0.027  0.00  0.00    -0.043 Br
ENDBRANCH  12  17
ENDBRANCH  11  12
ENDBRANCH   1  11
TORSDOF 4
