REMARK  Name = ZINC09503645
REMARK  8 active torsions:
REMARK  status: ('A' for Active; 'I' for Inactive)
REMARK    1  A    between atoms: C_1  and  C_2
REMARK    2  A    between atoms: C_7  and  S_18
REMARK    3  A    between atoms: C_12  and  C_14
REMARK    4  A    between atoms: S_18  and  N_21
REMARK    5  A    between atoms: C_24  and  C_27
REMARK    6  A    between atoms: N_29  and  C_30
REMARK    7  A    between atoms: C_30  and  C_31
REMARK    8  A    between atoms: C_31  and  C_32
REMARK                            x       y       z     vdW  Elec       q    Type
REMARK                         _______ _______ _______ _____ _____    ______ ____
ROOT
ATOM      1  S   UNL     1      -8.752  -4.366   3.972  0.00  0.00    +0.061 S 
ATOM      2  O   UNL     1      -9.676  -4.343   2.893  0.00  0.00    -0.153 OA
ATOM      3  O   UNL     1      -8.837  -5.312   5.028  0.00  0.00    -0.153 OA
ENDROOT
BRANCH   1   9
ATOM      4  C   UNL     1      -8.494   2.972   4.815  0.00  0.00    +0.029 C 
ATOM      5  C   UNL     1      -9.518   1.896   5.181  0.00  0.00    +0.083 C 
ATOM      6  C   UNL     1      -9.701   0.914   4.013  0.00  0.00    +0.059 C 
ATOM      7  C   UNL     1      -9.284  -0.427   4.572  0.00  0.00    -0.022 A 
ATOM      8  C   UNL     1      -9.236  -1.678   3.987  0.00  0.00    +0.034 A 
ATOM      9  C   UNL     1      -8.810  -2.771   4.719  0.00  0.00    +0.106 A 
ATOM     10  C   UNL     1      -8.436  -2.610   6.040  0.00  0.00    +0.030 A 
ATOM     11  C   UNL     1      -8.476  -1.363   6.627  0.00  0.00    +0.026 A 
ATOM     12  C   UNL     1      -8.905  -0.255   5.894  0.00  0.00    +0.040 A 
ATOM     13  N   UNL     1      -9.025   1.080   6.294  0.00  0.00    -0.268 N 
ATOM     14  C   UNL     1      -8.729   1.547   7.523  0.00  0.00    +0.223 C 
ATOM     15  O   UNL     1      -8.781   2.738   7.748  0.00  0.00    -0.275 OA
BRANCH  14  16
ATOM     16  C   UNL     1      -8.333   0.591   8.618  0.00  0.00    +0.076 C 
ATOM     17  C   UNL     1      -9.515  -0.202   9.201  0.00  0.00    +0.013 C 
ATOM     18  C   UNL     1      -8.866  -0.002  10.581  0.00  0.00    +0.001 C 
ATOM     19  C   UNL     1      -8.199   1.255   9.998  0.00  0.00    +0.013 C 
ENDBRANCH  14  16
ENDBRANCH   1   9
BRANCH   1  20
ATOM     20  N   UNL     1      -7.247  -4.538   3.302  0.00  0.00    -0.177 NA
ATOM     21  C   UNL     1      -6.141  -5.108   4.083  0.00  0.00    +0.110 C 
ATOM     22  C   UNL     1      -4.957  -4.136   4.043  0.00  0.00    +0.030 C 
ATOM     23  C   UNL     1      -4.604  -3.829   2.586  0.00  0.00    +0.077 C 
ATOM     24  C   UNL     1      -5.799  -3.163   1.900  0.00  0.00    +0.030 C 
ATOM     25  C   UNL     1      -6.992  -4.123   1.916  0.00  0.00    +0.110 C 
BRANCH  23  26
ATOM     26  C   UNL     1      -3.418  -2.900   2.542  0.00  0.00    +0.216 C 
ATOM     27  O   UNL     1      -2.905  -2.522   3.574  0.00  0.00    -0.276 OA
ATOM     28  N   UNL     1      -2.927  -2.490   1.356  0.00  0.00    -0.315 N 
ATOM     29  H   UNL     1      -3.337  -2.792   0.530  0.00  0.00    +0.149 HD
BRANCH  28  30
ATOM     30  C   UNL     1      -1.774  -1.587   1.313  0.00  0.00    +0.109 C 
BRANCH  30  31
ATOM     31  C   UNL     1      -1.421  -1.279  -0.143  0.00  0.00    +0.061 C 
BRANCH  31  32
ATOM     32  C   UNL     1      -0.235  -0.351  -0.187  0.00  0.00    -0.009 A 
ATOM     33  C   UNL     1       1.086  -0.654  -0.230  0.00  0.00    +0.011 A 
ATOM     34  C   UNL     1       2.009   0.374  -0.266  0.00  0.00    +0.008 A 
ATOM     35  C   UNL     1       1.566   1.655  -0.258  0.00  0.00    +0.045 A 
ATOM     36  S   UNL     1      -0.204   1.434  -0.197  0.00  0.00    -0.102 S 
ENDBRANCH  31  32
ENDBRANCH  30  31
ENDBRANCH  28  30
ENDBRANCH  23  26
ENDBRANCH   1  20
TORSDOF 7
