REMARK  Name = ZINC35774535
REMARK  15 active torsions:
REMARK  status: ('A' for Active; 'I' for Inactive)
REMARK    1  A    between atoms: C_1  and  C_2
REMARK    2  A    between atoms: C_6  and  C_7
REMARK    3  A    between atoms: C_7  and  N_8
REMARK    4  A    between atoms: N_8  and  C_9
REMARK    5  A    between atoms: C_9  and  C_10
REMARK    6  A    between atoms: C_16  and  C_18
REMARK    7  A    between atoms: C_18  and  N_19
REMARK    8  A    between atoms: N_19  and  C_20
REMARK    9  A    between atoms: C_20  and  C_21
REMARK   10  A    between atoms: C_21  and  N_22
REMARK   11  A    between atoms: C_27  and  C_29
REMARK   12  A    between atoms: C_32  and  C_35
REMARK   13  A    between atoms: C_35  and  C_36
REMARK   14  A    between atoms: C_35  and  C_37
REMARK   15  A    between atoms: C_35  and  C_38
REMARK                            x       y       z     vdW  Elec       q    Type
REMARK                         _______ _______ _______ _____ _____    ______ ____
ROOT
ATOM      1  N   UNL     1      -2.957   3.098   1.848  0.00  0.00    -0.290 N 
ATOM      2  C   UNL     1      -3.901   2.966   0.896  0.00  0.00    +0.247 C 
ATOM      3  O   UNL     1      -4.824   3.754   0.841  0.00  0.00    -0.270 OA
ENDROOT
BRANCH   2   4
ATOM      4  C   UNL     1      -3.813   1.861  -0.083  0.00  0.00    +0.037 A 
ATOM      5  C   UNL     1      -4.016   2.110  -1.441  0.00  0.00    +0.013 A 
ATOM      6  C   UNL     1      -3.933   1.075  -2.349  0.00  0.00    +0.005 A 
ATOM      7  C   UNL     1      -3.650  -0.208  -1.916  0.00  0.00    -0.042 A 
ATOM      8  C   UNL     1      -3.448  -0.462  -0.571  0.00  0.00    +0.005 A 
ATOM      9  C   UNL     1      -3.523   0.565   0.347  0.00  0.00    +0.013 A 
BRANCH   7  10
ATOM     10  C   UNL     1      -3.561  -1.334  -2.913  0.00  0.00    -0.013 C 
ATOM     11  C   UNL     1      -2.410  -1.065  -3.886  0.00  0.00    +0.015 C 
ATOM     12  C   UNL     1      -3.307  -2.650  -2.175  0.00  0.00    +0.015 C 
ATOM     13  C   UNL     1      -4.874  -1.431  -3.692  0.00  0.00    +0.015 C 
ENDBRANCH   7  10
ENDBRANCH   2   4
BRANCH   1  14
ATOM     14  C   UNL     1      -1.780   2.225   1.840  0.00  0.00    +0.203 C 
BRANCH  14  16
ATOM     15  N   UNL     1      -1.012   0.197   3.029  0.00  0.00    -0.291 N 
ATOM     16  C   UNL     1      -2.015   1.058   2.763  0.00  0.00    +0.234 C 
ATOM     17  O   UNL     1      -3.106   0.892   3.267  0.00  0.00    -0.274 OA
BRANCH  15  18
ATOM     18  C   UNL     1       0.279   0.345   2.354  0.00  0.00    +0.150 C 
BRANCH  18  24
ATOM     19  C   UNL     1       0.944  -2.646   2.127  0.00  0.00    +0.044 C 
ATOM     20  C   UNL     1       0.569  -1.799   0.939  0.00  0.00    -0.039 A 
ATOM     21  C   UNL     1       0.504  -2.354  -0.326  0.00  0.00    +0.011 A 
ATOM     22  C   UNL     1       0.164  -1.564  -1.373  0.00  0.00    +0.046 A 
ATOM     23  S   UNL     1      -0.078   0.017  -0.581  0.00  0.00    -0.100 S 
ATOM     24  C   UNL     1       0.285  -0.482   1.094  0.00  0.00    +0.010 A 
ENDBRANCH  18  24
ENDBRANCH  15  18
BRANCH  15  25
ATOM     25  C   UNL     1      -1.215  -0.888   3.994  0.00  0.00    +0.143 C 
BRANCH  25  26
ATOM     26  C   UNL     1      -0.833  -0.411   5.372  0.00  0.00    -0.030 A 
ATOM     27  C   UNL     1       0.466  -0.560   5.819  0.00  0.00    +0.005 A 
ATOM     28  C   UNL     1       0.816  -0.123   7.083  0.00  0.00    +0.000 A 
ATOM     29  C   UNL     1      -0.134   0.462   7.900  0.00  0.00    +0.000 A 
ATOM     30  C   UNL     1      -1.433   0.611   7.452  0.00  0.00    +0.000 A 
ATOM     31  C   UNL     1      -1.782   0.178   6.186  0.00  0.00    +0.005 A 
ENDBRANCH  25  26
ENDBRANCH  15  25
ENDBRANCH  14  16
ENDBRANCH   1  14
BRANCH   1  32
ATOM     32  C   UNL     1      -3.107   4.116   2.892  0.00  0.00    +0.090 C 
BRANCH  32  33
ATOM     33  C   UNL     1      -2.562   5.452   2.383  0.00  0.00    -0.060 C 
BRANCH  33  34
ATOM     34  N   UNL     1      -2.713   6.472   3.429  0.00  0.00    +0.381 N 
ATOM     35  C   UNL     1      -1.801   6.180   4.565  0.00  0.00    -0.079 C 
ATOM     36  C   UNL     1      -1.653   7.554   5.264  0.00  0.00    -0.020 C 
ATOM     37  C   UNL     1      -1.627   8.545   4.077  0.00  0.00    -0.020 C 
ATOM     38  C   UNL     1      -2.303   7.796   2.914  0.00  0.00    -0.079 C 
ATOM     39  H   UNL     1      -3.669   6.505   3.750  0.00  0.00    -0.082 HD
ENDBRANCH  33  34
ENDBRANCH  32  33
ENDBRANCH   1  32
TORSDOF 11
