REMARK  Name = ZINC30556787
REMARK  7 active torsions:
REMARK  status: ('A' for Active; 'I' for Inactive)
REMARK    1  A    between atoms: C_1  and  C_2
REMARK    2  A    between atoms: C_3  and  C_14
REMARK    3  A    between atoms: C_5  and  C_7
REMARK    4  A    between atoms: C_7  and  C_8
REMARK    5  A    between atoms: C_14  and  N_16
REMARK    6  A    between atoms: N_23  and  C_26
REMARK    7  A    between atoms: C_26  and  C_27
REMARK                            x       y       z     vdW  Elec       q    Type
REMARK                         _______ _______ _______ _____ _____    ______ ____
ROOT
ATOM      1  N   UNL     1       2.839   6.214  -7.327  0.00  0.00    -0.152 NA
ATOM      2  C   UNL     1       2.776   5.838  -5.991  0.00  0.00    +0.164 A 
ATOM      3  N   UNL     1       3.759   5.681  -5.128  0.00  0.00    -0.339 N 
ATOM      4  C   UNL     1       3.542   5.313  -3.870  0.00  0.00    +0.024 A 
ATOM      5  C   UNL     1       2.243   5.107  -3.523  0.00  0.00    -0.004 A 
ATOM      6  S   UNL     1       1.379   5.454  -5.029  0.00  0.00    -0.059 S 
ATOM      7  C   UNL     1       1.722   4.690  -2.190  0.00  0.00    -0.033 C 
ATOM      8  N   UNL     1       2.859   4.194  -1.388  0.00  0.00    +0.386 N 
ATOM      9  C   UNL     1       3.982   5.141  -1.440  0.00  0.00    -0.072 C 
ATOM     10  C   UNL     1       4.635   5.116  -2.825  0.00  0.00    +0.035 C 
ATOM     11  H   UNL     1       4.799   5.855  -5.441  0.00  0.00    +0.167 HD
ATOM     12  H   UNL     1       3.198   3.240  -1.818  0.00  0.00    -0.081 HD
ENDROOT
BRANCH   1  13
ATOM     13  C   UNL     1       4.032   6.473  -7.898  0.00  0.00    +0.278 C 
ATOM     14  O   UNL     1       5.053   6.378  -7.244  0.00  0.00    -0.267 OA
BRANCH  13  17
ATOM     15  C   UNL     1       6.586   7.150  -9.511  0.00  0.00    +0.067 C 
ATOM     16  C   UNL     1       5.192   7.184 -10.084  0.00  0.00    +0.058 A 
ATOM     17  C   UNL     1       4.098   6.870  -9.308  0.00  0.00    +0.099 A 
ATOM     18  S   UNL     1       2.782   7.090 -10.497  0.00  0.00    -0.067 S 
ATOM     19  C   UNL     1       3.773   7.548 -11.847  0.00  0.00    +0.084 A 
ATOM     20  N   UNL     1       4.986   7.507 -11.335  0.00  0.00    -0.248 NA
BRANCH  19  21
ATOM     21  C   UNL     1       3.353   7.901 -13.251  0.00  0.00    +0.098 C 
BRANCH  21  22
ATOM     22  C   UNL     1       3.327   6.654 -14.096  0.00  0.00    -0.041 A 
ATOM     23  C   UNL     1       4.459   6.264 -14.787  0.00  0.00    +0.004 A 
ATOM     24  C   UNL     1       4.437   5.118 -15.559  0.00  0.00    +0.000 A 
ATOM     25  C   UNL     1       3.279   4.367 -15.649  0.00  0.00    +0.000 A 
ATOM     26  C   UNL     1       2.146   4.760 -14.962  0.00  0.00    +0.000 A 
ATOM     27  C   UNL     1       2.169   5.904 -14.186  0.00  0.00    +0.004 A 
ENDBRANCH  21  22
ENDBRANCH  19  21
ENDBRANCH  13  17
ENDBRANCH   1  13
BRANCH   8  28
ATOM     28  C   UNL     1       2.451   3.937  -0.001  0.00  0.00    -0.043 C 
BRANCH  28  29
ATOM     29  C   UNL     1       1.156   3.165   0.008  0.00  0.00    -0.064 A 
ATOM     30  C   UNL     1       1.175   1.783   0.000  0.00  0.00    +0.002 A 
ATOM     31  C   UNL     1      -0.013   1.076   0.008  0.00  0.00    +0.000 A 
ATOM     32  C   UNL     1      -1.219   1.751   0.017  0.00  0.00    +0.000 A 
ATOM     33  C   UNL     1      -1.238   3.133   0.030  0.00  0.00    +0.000 A 
ATOM     34  C   UNL     1      -0.050   3.840   0.023  0.00  0.00    +0.002 A 
ENDBRANCH  28  29
ENDBRANCH   8  28
TORSDOF 6
