REMARK  Name = ZINC63731998
REMARK  7 active torsions:
REMARK  status: ('A' for Active; 'I' for Inactive)
REMARK    1  A    between atoms: C_6  and  C_11
REMARK    2  A    between atoms: C_11  and  C_12
REMARK    3  A    between atoms: C_12  and  C_14
REMARK    4  A    between atoms: C_12  and  N_23
REMARK    5  A    between atoms: N_16  and  C_17
REMARK    6  A    between atoms: N_23  and  S_24
REMARK    7  A    between atoms: S_24  and  C_27
REMARK                            x       y       z     vdW  Elec       q    Type
REMARK                         _______ _______ _______ _____ _____    ______ ____
ROOT
ATOM      1  C   UNL     1       5.325  -2.968  -1.352  0.00  0.00    +0.164 C 
ENDROOT
BRANCH   1   2
ATOM      2  C   UNL     1       5.830  -3.700  -2.568  0.00  0.00    +0.232 C 
ATOM      3  O   UNL     1       6.649  -3.176  -3.294  0.00  0.00    -0.274 OA
ATOM      4  N   UNL     1       5.372  -4.936  -2.850  0.00  0.00    -0.311 N 
ATOM      5  H   UNL     1       4.671  -5.328  -2.307  0.00  0.00    +0.149 HD
BRANCH   4   6
ATOM      6  C   UNL     1       5.934  -5.686  -3.976  0.00  0.00    +0.073 C 
ATOM      7  C   UNL     1       5.283  -5.215  -5.278  0.00  0.00    +0.022 C 
ATOM      8  C   UNL     1       5.870  -5.999  -6.454  0.00  0.00    +0.002 C 
ATOM      9  C   UNL     1       5.598  -7.492  -6.258  0.00  0.00    +0.000 C 
ATOM     10  C   UNL     1       6.250  -7.962  -4.956  0.00  0.00    +0.002 C 
ATOM     11  C   UNL     1       5.663  -7.179  -3.780  0.00  0.00    +0.022 C 
ENDBRANCH   4   6
ENDBRANCH   1   2
BRANCH   1  12
ATOM     12  N   UNL     1       5.951  -1.646  -1.282  0.00  0.00    -0.178 NA
ATOM     13  H   UNL     1       6.133  -1.151  -2.096  0.00  0.00    +0.149 HD
BRANCH  12  14
ATOM     14  S   UNL     1       6.349  -0.995   0.188  0.00  0.00    +0.059 S 
ATOM     15  O   UNL     1       6.973   0.254  -0.076  0.00  0.00    -0.153 OA
ATOM     16  O   UNL     1       5.196  -1.111   1.010  0.00  0.00    -0.153 OA
BRANCH  14  17
ATOM     17  C   UNL     1       7.582  -2.033   0.900  0.00  0.00    +0.106 A 
ATOM     18  C   UNL     1       7.210  -3.100   1.697  0.00  0.00    +0.030 A 
ATOM     19  C   UNL     1       8.174  -3.915   2.257  0.00  0.00    +0.025 A 
ATOM     20  C   UNL     1       9.518  -3.663   2.018  0.00  0.00    +0.037 A 
ATOM     21  C   UNL     1       9.889  -2.591   1.218  0.00  0.00    -0.024 A 
ATOM     22  C   UNL     1       8.920  -1.782   0.656  0.00  0.00    +0.034 A 
ATOM     23  C   UNL     1      11.347  -2.318   0.958  0.00  0.00    +0.046 C 
ATOM     24  C   UNL     1      12.165  -2.689   2.196  0.00  0.00    +0.101 C 
ATOM     25  C   UNL     1      11.772  -4.061   2.676  0.00  0.00    +0.218 C 
ATOM     26  O   UNL     1      12.614  -4.792   3.154  0.00  0.00    -0.275 OA
ATOM     27  N   UNL     1      10.499  -4.485   2.582  0.00  0.00    -0.285 N 
ATOM     28  H   UNL     1      10.259  -5.367   2.907  0.00  0.00    +0.155 HD
ENDBRANCH  14  17
ENDBRANCH  12  14
ENDBRANCH   1  12
BRANCH   1  29
ATOM     29  C   UNL     1       3.806  -2.808  -1.447  0.00  0.00    +0.058 C 
BRANCH  29  35
ATOM     30  C   UNL     1       0.144  -3.092  -5.744  0.00  0.00    +0.001 A 
ATOM     31  C   UNL     1       1.266  -3.644  -6.377  0.00  0.00    +0.002 A 
ATOM     32  C   UNL     1       2.508  -3.573  -5.852  0.00  0.00    +0.026 A 
ATOM     33  C   UNL     1       2.725  -2.920  -4.607  0.00  0.00    +0.043 A 
ATOM     34  N   UNL     1       3.814  -2.723  -3.903  0.00  0.00    -0.378 N 
ATOM     35  C   UNL     1       3.457  -1.983  -2.687  0.00  0.00    +0.105 C 
ATOM     36  C   UNL     1       1.963  -1.759  -2.762  0.00  0.00    +0.007 C 
ATOM     37  C   UNL     1       1.556  -2.329  -3.919  0.00  0.00    -0.004 A 
ATOM     38  C   UNL     1       0.240  -2.450  -4.558  0.00  0.00    +0.010 A 
ATOM     39  H   UNL     1       4.706  -3.017  -4.146  0.00  0.00    +0.160 HD
ENDBRANCH  29  35
ENDBRANCH   1  29
TORSDOF 7
