REMARK  Name = ZINC15913499
REMARK  7 active torsions:
REMARK  status: ('A' for Active; 'I' for Inactive)
REMARK    1  A    between atoms: C_1  and  C_2
REMARK    2  A    between atoms: C_7  and  S_8
REMARK    3  A    between atoms: S_8  and  C_9
REMARK    4  A    between atoms: C_9  and  C_10
REMARK    5  A    between atoms: N_12  and  C_13
REMARK    6  A    between atoms: C_17  and  S_19
REMARK    7  A    between atoms: S_19  and  N_22
REMARK                            x       y       z     vdW  Elec       q    Type
REMARK                         _______ _______ _______ _____ _____    ______ ____
ROOT
ATOM      1  C   UNL     1      -0.005  -0.705   7.703  0.00  0.00    +0.035 A 
ATOM      2  C   UNL     1      -0.125   0.676   7.790  0.00  0.00    +0.023 A 
ATOM      3  C   UNL     1      -0.210   1.284   9.027  0.00  0.00    +0.004 A 
ATOM      4  C   UNL     1      -0.177   0.518  10.179  0.00  0.00    +0.029 A 
ATOM      5  C   UNL     1      -0.058  -0.857  10.096  0.00  0.00    +0.114 A 
ATOM      6  C   UNL     1       0.022  -1.471   8.861  0.00  0.00    +0.052 A 
ENDROOT
BRANCH   1   9
ATOM      7  C   UNL     1      -0.489  -2.529   6.254  0.00  0.00    +0.227 C 
ATOM      8  O   UNL     1      -1.005  -3.115   7.182  0.00  0.00    -0.275 OA
ATOM      9  N   UNL     1       0.081  -1.324   6.451  0.00  0.00    -0.285 N 
ATOM     10  H   UNL     1       0.552  -0.886   5.725  0.00  0.00    +0.155 HD
BRANCH   7  11
ATOM     11  C   UNL     1      -0.487  -3.148   4.880  0.00  0.00    +0.170 C 
BRANCH  11  12
ATOM     12  S   UNL     1      -1.323  -4.757   4.940  0.00  0.00    -0.116 S 
BRANCH  12  19
ATOM     13  C   UNL     1      -2.464  -7.410   4.007  0.00  0.00    +0.045 C 
ATOM     14  C   UNL     1      -1.790  -6.575   2.949  0.00  0.00    -0.036 A 
ATOM     15  C   UNL     1      -1.727  -7.030   1.646  0.00  0.00    +0.019 A 
ATOM     16  C   UNL     1      -1.108  -6.264   0.674  0.00  0.00    +0.018 A 
ATOM     17  C   UNL     1      -0.552  -5.040   1.003  0.00  0.00    +0.016 A 
ATOM     18  C   UNL     1      -0.612  -4.580   2.303  0.00  0.00    +0.016 A 
ATOM     19  C   UNL     1      -1.238  -5.344   3.281  0.00  0.00    +0.011 A 
ATOM     20 BR   UNL     1      -1.023  -6.891  -1.108  0.00  0.00    -0.050 Br
ENDBRANCH  12  19
ENDBRANCH  11  12
ENDBRANCH   7  11
ENDBRANCH   1   9
BRANCH   5  21
ATOM     21  S   UNL     1      -0.015  -1.827  11.566  0.00  0.00    +0.100 S 
ATOM     22  O   UNL     1       0.650  -3.038  11.234  0.00  0.00    -0.146 OA
ATOM     23  O   UNL     1       0.438  -0.969  12.605  0.00  0.00    -0.146 OA
BRANCH  21  24
ATOM     24  N   UNL     1      -1.578  -2.230  11.932  0.00  0.00    -0.118 NA
ATOM     25  C   UNL     1      -1.833  -2.949  12.977  0.00  0.00    +0.117 C 
ATOM     26  N   UNL     1      -0.803  -3.395  13.820  0.00  0.00    -0.331 N 
ATOM     27  C   UNL     1      -0.748  -2.833  15.138  0.00  0.00    +0.102 C 
ATOM     28  C   UNL     1      -1.569  -3.565  16.213  0.00  0.00    +0.019 C 
ATOM     29  C   UNL     1      -2.946  -3.991  15.645  0.00  0.00    +0.002 C 
ATOM     30  C   UNL     1      -3.564  -2.947  14.758  0.00  0.00    +0.008 C 
ATOM     31  C   UNL     1      -3.191  -3.316  13.320  0.00  0.00    +0.073 C 
ATOM     32  H   UNL     1      -0.157  -4.054  13.523  0.00  0.00    +0.147 HD
ENDBRANCH  21  24
ENDBRANCH   5  21
TORSDOF 6
