REMARK  Name = ZINC03170500
REMARK  14 active torsions:
REMARK  status: ('A' for Active; 'I' for Inactive)
REMARK    1  A    between atoms: C_1  and  C_2
REMARK    2  A    between atoms: C_2  and  N_3
REMARK    3  A    between atoms: N_3  and  C_4
REMARK    4  A    between atoms: N_3  and  S_6
REMARK    5  A    between atoms: C_4  and  C_5
REMARK    6  A    between atoms: S_6  and  C_9
REMARK    7  A    between atoms: C_13  and  C_15
REMARK    8  A    between atoms: C_18  and  S_21
REMARK    9  A    between atoms: N_19  and  N_20
REMARK   10  A    between atoms: S_21  and  C_22
REMARK   11  A    between atoms: C_22  and  C_24
REMARK   12  A    between atoms: C_22  and  C_25
REMARK   13  A    between atoms: N_27  and  C_28
REMARK   14  A    between atoms: C_33  and  C_34
REMARK                            x       y       z     vdW  Elec       q    Type
REMARK                         _______ _______ _______ _____ _____    ______ ____
ROOT
ATOM      1  C   UNL     1       1.202   3.570   0.052  0.00  0.00    +0.182 A 
ATOM      2  N   UNL     1       2.211   4.363  -0.223  0.00  0.00    -0.127 NA
ATOM      3  N   UNL     1       1.841   5.590  -0.133  0.00  0.00    -0.121 NA
ATOM      4  C   UNL     1       0.576   5.656   0.216  0.00  0.00    +0.209 A 
ATOM      5  N   UNL     1       0.124   4.374   0.345  0.00  0.00    -0.224 N 
ENDROOT
BRANCH   1  10
ATOM      6  C   UNL     1       2.447   0.027   0.044  0.00  0.00    +0.106 A 
ATOM      7  C   UNL     1       1.256  -0.677   0.054  0.00  0.00    +0.028 A 
ATOM      8  C   UNL     1       0.048  -0.004   0.063  0.00  0.00    +0.003 A 
ATOM      9  C   UNL     1       0.023   1.375   0.062  0.00  0.00    +0.012 A 
ATOM     10  C   UNL     1       1.220   2.091   0.053  0.00  0.00    +0.023 A 
ATOM     11  C   UNL     1       2.437   1.406   0.044  0.00  0.00    +0.040 A 
BRANCH   6  12
ATOM     12  S   UNL     1       3.981  -0.841   0.033  0.00  0.00    +0.061 S 
ATOM     13  O   UNL     1       4.952   0.044   0.576  0.00  0.00    -0.153 OA
ATOM     14  O   UNL     1       3.726  -2.124   0.586  0.00  0.00    -0.153 OA
BRANCH  12  15
ATOM     15  N   UNL     1       4.395  -1.082  -1.552  0.00  0.00    -0.177 NA
BRANCH  15  17
ATOM     16  C   UNL     1       6.678  -0.484  -2.192  0.00  0.00    +0.022 C 
ATOM     17  C   UNL     1       5.203  -0.085  -2.259  0.00  0.00    +0.106 C 
ENDBRANCH  15  17
BRANCH  15  18
ATOM     18  C   UNL     1       3.954  -2.294  -2.248  0.00  0.00    +0.106 C 
ATOM     19  C   UNL     1       2.660  -2.001  -3.011  0.00  0.00    +0.022 C 
ENDBRANCH  15  18
ENDBRANCH  12  15
ENDBRANCH   6  12
ENDBRANCH   1  10
BRANCH   5  20
ATOM     20  N   UNL     1      -1.134   3.973   0.694  0.00  0.00    -0.295 N 
ATOM     21  H   UNL     1      -1.217   3.871   1.694  0.00  0.00    +0.163 HD
ATOM     22  H   UNL     1      -1.829   4.612   0.337  0.00  0.00    +0.163 HD
ENDBRANCH   5  20
BRANCH   4  23
ATOM     23  S   UNL     1      -0.364   7.126   0.468  0.00  0.00    -0.072 S 
BRANCH  23  24
ATOM     24  C   UNL     1       0.901   8.372   0.114  0.00  0.00    +0.137 C 
ATOM     25  C   UNL     1       2.009   8.286   1.166  0.00  0.00    +0.029 C 
BRANCH  24  26
ATOM     26  C   UNL     1       0.278   9.743   0.151  0.00  0.00    +0.230 C 
ATOM     27  O   UNL     1      -0.725   9.937   0.805  0.00  0.00    -0.274 OA
ATOM     28  N   UNL     1       0.836  10.756  -0.542  0.00  0.00    -0.284 N 
ATOM     29  H   UNL     1       1.674  10.618  -1.012  0.00  0.00    +0.155 HD
BRANCH  28  30
ATOM     30  C   UNL     1       0.210  12.000  -0.584  0.00  0.00    +0.051 A 
ATOM     31  C   UNL     1      -0.487  12.468   0.521  0.00  0.00    +0.024 A 
ATOM     32  C   UNL     1      -1.103  13.703   0.479  0.00  0.00    +0.002 A 
ATOM     33  C   UNL     1      -1.040  14.479  -0.667  0.00  0.00    +0.001 A 
ATOM     34  C   UNL     1      -0.357  14.029  -1.776  0.00  0.00    +0.021 A 
ATOM     35  C   UNL     1       0.275  12.783  -1.746  0.00  0.00    +0.073 A 
BRANCH  35  36
ATOM     36  C   UNL     1       0.986  12.309  -2.896  0.00  0.00    +0.101 C 
ATOM     37  N   UNL     1       1.549  11.932  -3.807  0.00  0.00    -0.191 NA
ENDBRANCH  35  36
ENDBRANCH  28  30
ENDBRANCH  24  26
ENDBRANCH  23  24
ENDBRANCH   4  23
TORSDOF 11
