REMARK  Name = ZINC08968927
REMARK  14 active torsions:
REMARK  status: ('A' for Active; 'I' for Inactive)
REMARK    1  A    between atoms: C_1  and  C_2
REMARK    2  A    between atoms: C_4  and  C_34
REMARK    3  A    between atoms: C_5  and  S_9
REMARK    4  A    between atoms: C_6  and  C_8
REMARK    5  A    between atoms: S_9  and  N_12
REMARK    6  A    between atoms: N_12  and  C_13
REMARK    7  A    between atoms: C_13  and  C_14
REMARK    8  A    between atoms: C_14  and  C_16
REMARK    9  A    between atoms: C_14  and  S_26
REMARK   10  A    between atoms: C_19  and  O_24
REMARK   11  A    between atoms: C_20  and  O_22
REMARK   12  A    between atoms: O_22  and  C_23
REMARK   13  A    between atoms: O_24  and  C_25
REMARK   14  A    between atoms: S_26  and  C_29
REMARK                            x       y       z     vdW  Elec       q    Type
REMARK                         _______ _______ _______ _____ _____    ______ ____
ROOT
ATOM      1  C   UNL     1       2.069   1.798   1.500  0.00  0.00    +0.182 C 
ENDROOT
BRANCH   1   2
ATOM      2  C   UNL     1       0.928   2.545   2.142  0.00  0.00    -0.018 A 
ATOM      3  C   UNL     1      -0.281   1.908   2.352  0.00  0.00    +0.009 A 
ATOM      4  C   UNL     1      -1.333   2.590   2.936  0.00  0.00    +0.050 A 
ATOM      5  C   UNL     1      -1.172   3.911   3.322  0.00  0.00    +0.162 A 
ATOM      6  C   UNL     1       0.045   4.552   3.111  0.00  0.00    +0.162 A 
ATOM      7  C   UNL     1       1.093   3.864   2.520  0.00  0.00    +0.055 A 
BRANCH   6   8
ATOM      8  O   UNL     1       0.206   5.849   3.485  0.00  0.00    -0.491 OA
ATOM      9  C   UNL     1       1.483   6.442   3.238  0.00  0.00    +0.277 C 
ENDBRANCH   6   8
BRANCH   5  10
ATOM     10  O   UNL     1      -2.204   4.582   3.902  0.00  0.00    -0.491 OA
ATOM     11  C   UNL     1      -3.423   3.861   4.087  0.00  0.00    +0.277 C 
ENDBRANCH   5  10
ENDBRANCH   1   2
BRANCH   1  12
ATOM     12  S   UNL     1       1.572   1.242  -0.154  0.00  0.00    +0.011 S 
ATOM     13  O   UNL     1       1.062   2.334  -0.906  0.00  0.00    -0.168 OA
ATOM     14  O   UNL     1       2.566   0.387  -0.702  0.00  0.00    -0.168 OA
BRANCH  12  15
ATOM     15  C   UNL     1       0.181   0.196   0.119  0.00  0.00    +0.126 A 
ATOM     16  C   UNL     1      -1.135   0.519   0.165  0.00  0.00    +0.035 A 
ATOM     17  C   UNL     1      -2.063  -0.478   0.395  0.00  0.00    +0.009 A 
ATOM     18  C   UNL     1      -1.631  -1.751   0.568  0.00  0.00    +0.047 A 
ATOM     19  S   UNL     1       0.137  -1.567   0.400  0.00  0.00    -0.078 S 
ENDBRANCH  12  15
ENDBRANCH   1  12
BRANCH   1  20
ATOM     20  C   UNL     1       2.432   0.585   2.358  0.00  0.00    +0.137 C 
BRANCH  20  21
ATOM     21  N   UNL     1       3.541  -0.140   1.734  0.00  0.00    -0.188 NA
ATOM     22  H   UNL     1       3.779   0.038   0.810  0.00  0.00    +0.148 HD
BRANCH  21  23
ATOM     23  S   UNL     1       4.389  -1.266   2.604  0.00  0.00    +0.059 S 
ATOM     24  O   UNL     1       5.367  -1.805   1.726  0.00  0.00    -0.153 OA
ATOM     25  O   UNL     1       4.730  -0.651   3.839  0.00  0.00    -0.153 OA
BRANCH  23  30
ATOM     26  C   UNL     1       0.575  -5.756   3.906  0.00  0.00    +0.044 C 
ATOM     27  C   UNL     1       1.528  -4.634   3.581  0.00  0.00    -0.050 A 
ATOM     28  C   UNL     1       1.545  -3.494   4.362  0.00  0.00    +0.008 A 
ATOM     29  C   UNL     1       2.419  -2.465   4.064  0.00  0.00    -0.024 A 
ATOM     30  C   UNL     1       3.276  -2.577   2.984  0.00  0.00    +0.111 A 
ATOM     31  C   UNL     1       3.254  -3.715   2.200  0.00  0.00    -0.024 A 
ATOM     32  C   UNL     1       2.384  -4.746   2.501  0.00  0.00    +0.008 A 
ATOM     33  C   UNL     1       4.184  -3.834   1.019  0.00  0.00    +0.046 C 
ATOM     34  C   UNL     1       2.438  -1.222   4.915  0.00  0.00    +0.046 C 
ENDBRANCH  23  30
ENDBRANCH  21  23
ENDBRANCH  20  21
ENDBRANCH   1  20
TORSDOF 9
