REMARK  Name = ZINC63821575
REMARK  4 active torsions:
REMARK  status: ('A' for Active; 'I' for Inactive)
REMARK    1  A    between atoms: C_6  and  C_11
REMARK    2  A    between atoms: C_19  and  C_21
REMARK    3  A    between atoms: N_23  and  C_24
REMARK    4  A    between atoms: C_24  and  C_25
REMARK                            x       y       z     vdW  Elec       q    Type
REMARK                         _______ _______ _______ _____ _____    ______ ____
ROOT
ATOM      1  C   UNL     1       3.696  -2.786  -1.260  0.00  0.00    +0.242 C 
ATOM      2  O   UNL     1       4.360  -2.181  -2.075  0.00  0.00    -0.273 OA
ATOM      3  N   UNL     1       3.382  -4.080  -1.474  0.00  0.00    -0.297 N 
ATOM      4  C   UNL     1       2.572  -4.824  -0.499  0.00  0.00    +0.127 C 
ATOM      5  C   UNL     1       1.353  -5.412  -1.222  0.00  0.00    +0.127 C 
ATOM      6  N   UNL     1       1.814  -6.103  -2.434  0.00  0.00    -0.291 N 
ATOM      7  C   UNL     1       2.624  -5.359  -3.409  0.00  0.00    +0.127 C 
ATOM      8  C   UNL     1       3.838  -4.769  -2.689  0.00  0.00    +0.127 C 
ATOM      9  C   UNL     1       1.501  -7.396  -2.648  0.00  0.00    +0.302 C 
ATOM     10  O   UNL     1       1.804  -7.929  -3.695  0.00  0.00    -0.265 OA
ENDROOT
BRANCH   1  16
ATOM     11  C   UNL     1       0.105   1.348   0.075  0.00  0.00    +0.001 A 
ATOM     12  C   UNL     1       1.297   2.086   0.069  0.00  0.00    +0.002 A 
ATOM     13  C   UNL     1       2.515   1.505   0.046  0.00  0.00    +0.026 A 
ATOM     14  C   UNL     1       2.634   0.087   0.026  0.00  0.00    +0.043 A 
ATOM     15  N   UNL     1       3.682  -0.700   0.002  0.00  0.00    -0.370 N 
ATOM     16  C   UNL     1       3.221  -2.092  -0.010  0.00  0.00    +0.190 C 
ATOM     17  C   UNL     1       1.710  -2.029   0.011  0.00  0.00    +0.016 C 
ATOM     18  C   UNL     1       1.390  -0.715   0.032  0.00  0.00    -0.004 A 
ATOM     19  C   UNL     1       0.106  -0.004   0.058  0.00  0.00    +0.010 A 
ATOM     20  H   UNL     1       4.608  -0.410  -0.006  0.00  0.00    +0.161 HD
ENDBRANCH   1  16
BRANCH   9  21
ATOM     21  C   UNL     1       0.779  -8.174  -1.595  0.00  0.00    +0.300 C 
ATOM     22  O   UNL     1       0.381  -7.615  -0.594  0.00  0.00    -0.265 OA
ATOM     23  N   UNL     1       0.572  -9.496  -1.757  0.00  0.00    -0.300 N 
ATOM     24  H   UNL     1       0.891  -9.942  -2.557  0.00  0.00    +0.150 HD
BRANCH  23  25
ATOM     25  C   UNL     1      -0.135 -10.258  -0.725  0.00  0.00    +0.179 C 
BRANCH  25  26
ATOM     26  C   UNL     1      -0.234 -11.702  -1.146  0.00  0.00    +0.122 A 
ATOM     27  C   UNL     1       0.661 -12.666  -0.866  0.00  0.00    +0.046 A 
ATOM     28  C   UNL     1       0.174 -13.858  -1.450  0.00  0.00    +0.041 A 
ATOM     29  C   UNL     1      -0.989 -13.551  -2.052  0.00  0.00    +0.195 A 
ATOM     30  O   UNL     1      -1.234 -12.245  -1.860  0.00  0.00    -0.466 OA
ENDBRANCH  25  26
ENDBRANCH  23  25
ENDBRANCH   9  21
TORSDOF 4
