REMARK  Name = ZINC02206271
REMARK  11 active torsions:
REMARK  status: ('A' for Active; 'I' for Inactive)
REMARK    1  A    between atoms: C_1  and  C_2
REMARK    2  A    between atoms: C_2  and  C_3
REMARK    3  A    between atoms: C_2  and  O_4
REMARK    4  A    between atoms: O_4  and  C_5
REMARK    5  A    between atoms: C_5  and  C_7
REMARK    6  A    between atoms: C_11  and  N_12
REMARK    7  A    between atoms: C_13  and  C_15
REMARK    8  A    between atoms: C_15  and  C_33
REMARK    9  A    between atoms: C_16  and  C_17
REMARK   10  A    between atoms: N_19  and  C_26
REMARK   11  A    between atoms: C_26  and  C_27
REMARK                            x       y       z     vdW  Elec       q    Type
REMARK                         _______ _______ _______ _____ _____    ______ ____
ROOT
ATOM      1  C   UNL     1      -4.646   3.269   2.141  0.00  0.00    +0.114 C 
ATOM      2  C   UNL     1      -3.591   3.131   3.026  0.00  0.00    +0.034 C 
ENDROOT
BRANCH   2   3
ATOM      3  C   UNL     1      -2.409   2.472   2.619  0.00  0.00    +0.002 A 
ATOM      4  C   UNL     1      -2.258   1.636   1.529  0.00  0.00    +0.095 A 
ATOM      5  N   UNL     1      -0.986   1.197   1.471  0.00  0.00    -0.342 N 
ATOM      6  C   UNL     1      -0.238   1.724   2.505  0.00  0.00    +0.050 A 
ATOM      7  C   UNL     1      -1.085   2.542   3.269  0.00  0.00    +0.007 A 
ATOM      8  C   UNL     1      -0.592   3.210   4.386  0.00  0.00    +0.010 A 
ATOM      9  C   UNL     1       0.733   3.063   4.739  0.00  0.00    +0.001 A 
ATOM     10  C   UNL     1       1.571   2.255   3.985  0.00  0.00    +0.002 A 
ATOM     11  C   UNL     1       1.095   1.589   2.877  0.00  0.00    +0.026 A 
BRANCH   5  12
ATOM     12  C   UNL     1      -0.465   0.288   0.446  0.00  0.00    +0.157 C 
BRANCH  12  13
ATOM     13  C   UNL     1      -0.513  -1.128   0.959  0.00  0.00    -0.028 A 
ATOM     14  C   UNL     1       0.569  -1.654   1.639  0.00  0.00    +0.005 A 
ATOM     15  C   UNL     1       0.523  -2.952   2.113  0.00  0.00    +0.000 A 
ATOM     16  C   UNL     1      -0.602  -3.726   1.899  0.00  0.00    +0.000 A 
ATOM     17  C   UNL     1      -1.682  -3.202   1.214  0.00  0.00    +0.000 A 
ATOM     18  C   UNL     1      -1.638  -1.902   0.744  0.00  0.00    +0.005 A 
ENDBRANCH  12  13
ENDBRANCH   5  12
ENDBRANCH   2   3
BRANCH   1  20
ATOM     19  N   UNL     1      -6.955   3.947   1.744  0.00  0.00    -0.275 N 
ATOM     20  C   UNL     1      -5.928   3.813   2.606  0.00  0.00    +0.259 C 
ATOM     21  O   UNL     1      -6.062   4.143   3.769  0.00  0.00    -0.269 OA
ATOM     22  H   UNL     1      -6.848   3.684   0.817  0.00  0.00    +0.156 HD
BRANCH  19  27
ATOM     23  C   UNL     1      -9.326   4.678   1.452  0.00  0.00    +0.091 A 
ATOM     24  C   UNL     1     -10.469   5.229   2.159  0.00  0.00    -0.021 A 
ATOM     25  C   UNL     1     -10.268   5.483   3.470  0.00  0.00    -0.004 A 
ATOM     26  S   UNL     1      -8.593   4.995   3.774  0.00  0.00    -0.077 S 
ATOM     27  C   UNL     1      -8.164   4.460   2.183  0.00  0.00    +0.087 A 
ATOM     28  C   UNL     1     -11.254   6.053   4.442  0.00  0.00    +0.043 C 
ATOM     29  C   UNL     1     -12.420   6.659   3.648  0.00  0.00    +0.005 C 
ATOM     30  C   UNL     1     -12.877   5.648   2.593  0.00  0.00    +0.005 C 
ATOM     31  C   UNL     1     -11.813   5.518   1.502  0.00  0.00    +0.037 C 
BRANCH  23  32
ATOM     32  C   UNL     1      -9.396   4.359   0.025  0.00  0.00    +0.342 C 
ATOM     33  O   UNL     1      -9.755   3.254  -0.335  0.00  0.00    -0.245 OA
BRANCH  32  34
ATOM     34  O   UNL     1      -9.064   5.292  -0.891  0.00  0.00    -0.458 OA
BRANCH  34  36
ATOM     35  C   UNL     1     -10.559   5.226  -2.812  0.00  0.00    +0.052 C 
ATOM     36  C   UNL     1      -9.157   4.906  -2.288  0.00  0.00    +0.171 C 
ATOM     37  C   UNL     1      -8.119   5.681  -3.102  0.00  0.00    +0.052 C 
ENDBRANCH  34  36
ENDBRANCH  32  34
ENDBRANCH  23  32
ENDBRANCH  19  27
ENDBRANCH   1  20
BRANCH   1  38
ATOM     38  C   UNL     1      -4.488   2.880   0.772  0.00  0.00    +0.104 C 
ATOM     39  N   UNL     1      -4.362   2.572  -0.315  0.00  0.00    -0.191 NA
ENDBRANCH   1  38
TORSDOF 9
