REMARK  Name = ZINC12201249
REMARK  7 active torsions:
REMARK  status: ('A' for Active; 'I' for Inactive)
REMARK    1  A    between atoms: C_1  and  C_2
REMARK    2  A    between atoms: C_3  and  C_11
REMARK    3  A    between atoms: N_13  and  C_14
REMARK    4  A    between atoms: N_13  and  C_25
REMARK    5  A    between atoms: C_14  and  C_15
REMARK    6  A    between atoms: C_20  and  N_66
REMARK    7  A    between atoms: C_25  and  C_26
REMARK                            x       y       z     vdW  Elec       q    Type
REMARK                         _______ _______ _______ _____ _____    ______ ____
ROOT
ATOM      1  C   UNL     1      -1.377  -3.169  -1.210  0.00  0.00    +0.265 C 
ATOM      2  O   UNL     1      -1.272  -2.818  -2.372  0.00  0.00    -0.268 OA
ATOM      3  N   UNL     1      -1.139  -2.289  -0.217  0.00  0.00    -0.294 N 
ENDROOT
BRANCH   1   6
ATOM      4  C   UNL     1      -4.299  -4.325  -1.268  0.00  0.00    +0.068 C 
ATOM      5  C   UNL     1      -3.039  -5.072  -0.912  0.00  0.00    +0.071 A 
ATOM      6  C   UNL     1      -1.761  -4.542  -0.893  0.00  0.00    +0.133 A 
ATOM      7  N   UNL     1      -0.918  -5.573  -0.520  0.00  0.00    -0.279 N 
ATOM      8  C   UNL     1       0.427  -5.639  -0.328  0.00  0.00    +0.096 A 
ATOM      9  C   UNL     1       0.983  -6.818   0.055  0.00  0.00    +0.038 A 
ATOM     10  C   UNL     1       0.156  -7.931   0.247  0.00  0.00    +0.116 A 
ATOM     11  N   UNL     1      -1.141  -7.834   0.059  0.00  0.00    -0.220 NA
ATOM     12  C   UNL     1      -1.698  -6.676  -0.318  0.00  0.00    +0.236 A 
ATOM     13  N   UNL     1      -2.965  -6.347  -0.564  0.00  0.00    -0.215 NA
ENDBRANCH   1   6
BRANCH   3  14
ATOM     14  C   UNL     1      -0.839  -0.890  -0.533  0.00  0.00    +0.111 C 
BRANCH  14  15
ATOM     15  C   UNL     1       0.672  -0.718  -0.702  0.00  0.00    +0.003 C 
ATOM     16  C   UNL     1       0.999   0.763  -0.909  0.00  0.00    -0.014 C 
ATOM     17  C   UNL     1       2.503   0.922  -1.137  0.00  0.00    -0.078 C 
ATOM     18  C   UNL     1       2.645  -1.288  -2.122  0.00  0.00    -0.078 C 
ATOM     19  C   UNL     1       1.145  -1.512  -1.923  0.00  0.00    -0.014 C 
ATOM     20  N   UNL     1       2.890   0.154  -2.340  0.00  0.00    +0.382 N 
ATOM     21  H   UNL     1       2.322   0.471  -3.135  0.00  0.00    -0.081 HD
BRANCH  20  22
ATOM     22  C   UNL     1       4.317   0.383  -2.648  0.00  0.00    -0.069 C 
ATOM     23  C   UNL     1       5.217  -0.061  -1.477  0.00  0.00    -0.015 C 
ATOM     24  C   UNL     1       6.352   0.993  -1.450  0.00  0.00    -0.002 C 
ATOM     25  C   UNL     1       5.607   2.307  -1.790  0.00  0.00    -0.002 C 
ATOM     26  C   UNL     1       4.564   1.888  -2.847  0.00  0.00    -0.015 C 
ENDBRANCH  20  22
ENDBRANCH  14  15
ENDBRANCH   3  14
BRANCH   3  27
ATOM     27  C   UNL     1      -1.180  -2.732   1.179  0.00  0.00    +0.139 C 
BRANCH  27  28
ATOM     28  C   UNL     1      -2.561  -2.435   1.767  0.00  0.00    +0.136 C 
ATOM     29  C   UNL     1      -2.590  -2.783   3.272  0.00  0.00    +0.035 C 
ATOM     30  C   UNL     1      -4.004  -3.364   3.496  0.00  0.00    +0.031 C 
ATOM     31  C   UNL     1      -4.662  -3.298   2.099  0.00  0.00    +0.160 C 
ATOM     32  O   UNL     1      -3.557  -3.293   1.169  0.00  0.00    -0.375 OA
ENDBRANCH  27  28
ENDBRANCH   3  27
TORSDOF 6
