REMARK  Name = ZINC06222443
REMARK  5 active torsions:
REMARK  status: ('A' for Active; 'I' for Inactive)
REMARK    1  A    between atoms: C_4  and  S_18
REMARK    2  A    between atoms: C_5  and  N_7
REMARK    3  A    between atoms: N_10  and  C_11
REMARK    4  A    between atoms: S_18  and  C_19
REMARK    5  A    between atoms: C_19  and  C_20
REMARK                            x       y       z     vdW  Elec       q    Type
REMARK                         _______ _______ _______ _____ _____    ______ ____
ROOT
ATOM      1  C   UNL     1      -3.522  -1.144   0.320  0.00  0.00    +0.002 A 
ATOM      2  C   UNL     1      -4.741  -0.513   0.488  0.00  0.00    +0.001 A 
ATOM      3  C   UNL     1      -4.812   0.867   0.515  0.00  0.00    +0.016 A 
ATOM      4  C   UNL     1      -3.657   1.624   0.374  0.00  0.00    +0.029 A 
ATOM      5  C   UNL     1      -2.427   0.987   0.205  0.00  0.00    +0.048 A 
ATOM      6  C   UNL     1      -2.367  -0.398   0.173  0.00  0.00    +0.024 A 
ENDROOT
BRANCH   5   7
ATOM      7  N   UNL     1      -1.257   1.745   0.061  0.00  0.00    -0.268 N 
ATOM      8  C   UNL     1      -0.094   1.292   0.569  0.00  0.00    +0.308 C 
ATOM      9  O   UNL     1      -0.041   0.189   1.078  0.00  0.00    -0.252 OA
ATOM     10  N   UNL     1       1.013   2.059   0.508  0.00  0.00    -0.269 N 
ATOM     11  H   UNL     1      -1.284   2.596  -0.404  0.00  0.00    +0.156 HD
ATOM     12  H   UNL     1       0.993   2.901   0.026  0.00  0.00    +0.156 HD
BRANCH  10  13
ATOM     13  C   UNL     1       2.190   1.641   1.139  0.00  0.00    +0.035 A 
ATOM     14  C   UNL     1       2.127   0.793   2.237  0.00  0.00    +0.025 A 
ATOM     15  C   UNL     1       3.291   0.377   2.854  0.00  0.00    +0.022 A 
ATOM     16  C   UNL     1       4.518   0.814   2.387  0.00  0.00    +0.041 A 
ATOM     17  C   UNL     1       4.583   1.664   1.297  0.00  0.00    +0.022 A 
ATOM     18  C   UNL     1       3.423   2.078   0.672  0.00  0.00    +0.025 A 
ATOM     19 CL   UNL     1       5.978   0.295   3.170  0.00  0.00    -0.084 Cl
ENDBRANCH  10  13
ENDBRANCH   5   7
BRANCH   4  20
ATOM     20  S   UNL     1      -3.744   3.383   0.408  0.00  0.00    -0.117 S 
BRANCH  20  21
ATOM     21  C   UNL     1      -5.508   3.731   0.644  0.00  0.00    +0.127 C 
BRANCH  21  22
ATOM     22  C   UNL     1      -5.725   5.222   0.692  0.00  0.00    +0.036 A 
ATOM     23  C   UNL     1      -6.260   5.864  -0.369  0.00  0.00    +0.092 A 
ATOM     24  C   UNL     1      -6.458   7.263  -0.298  0.00  0.00    +0.254 A 
ATOM     25  O   UNL     1      -6.944   7.864  -1.240  0.00  0.00    -0.268 OA
ATOM     26  N   UNL     1      -6.099   7.927   0.819  0.00  0.00    -0.275 N 
ATOM     27  H   UNL     1      -6.232   8.917   0.875  0.00  0.00    +0.173 HD
ATOM     28  C   UNL     1      -5.563   7.263   1.860  0.00  0.00    +0.327 A 
ATOM     29  O   UNL     1      -5.244   7.875   2.861  0.00  0.00    -0.247 OA
ATOM     30  N   UNL     1      -5.375   5.932   1.808  0.00  0.00    -0.311 N 
ATOM     31  H   UNL     1      -4.975   5.457   2.592  0.00  0.00    +0.170 HD
ENDBRANCH  21  22
ENDBRANCH  20  21
ENDBRANCH   4  20
TORSDOF 5
