REMARK  Name = ZINC01254500
REMARK  8 active torsions:
REMARK  status: ('A' for Active; 'I' for Inactive)
REMARK    1  A    between atoms: C_1  and  C_2
REMARK    2  A    between atoms: C_5  and  N_8
REMARK    3  A    between atoms: C_17  and  S_18
REMARK    4  A    between atoms: S_18  and  C_19
REMARK    5  A    between atoms: C_19  and  C_20
REMARK    6  A    between atoms: N_22  and  C_23
REMARK    7  A    between atoms: C_26  and  N_29
REMARK    8  A    between atoms: C_30  and  C_32
REMARK                            x       y       z     vdW  Elec       q    Type
REMARK                         _______ _______ _______ _____ _____    ______ ____
ROOT
ATOM      1  N   UNL     1       2.019  -3.726  -0.508  0.00  0.00    -0.255 N 
ATOM      2  C   UNL     1       2.204  -2.385  -0.485  0.00  0.00    +0.268 A 
ATOM      3  O   UNL     1       3.292  -1.879  -0.699  0.00  0.00    -0.267 OA
ATOM      4  C   UNL     1       1.043  -1.597  -0.194  0.00  0.00    +0.076 A 
ATOM      5  C   UNL     1       0.976  -0.147  -0.111  0.00  0.00    -0.023 A 
ATOM      6  C   UNL     1      -0.232   0.388   0.179  0.00  0.00    -0.004 A 
ATOM      7  S   UNL     1      -1.327  -0.998   0.353  0.00  0.00    -0.073 S 
ATOM      8  C   UNL     1      -0.167  -2.291   0.038  0.00  0.00    +0.117 A 
ATOM      9  N   UNL     1      -0.283  -3.612   0.000  0.00  0.00    -0.215 NA
ATOM     10  C   UNL     1       0.810  -4.311  -0.272  0.00  0.00    +0.178 A 
ATOM     11  C   UNL     1      -0.569   1.841   0.322  0.00  0.00    +0.043 C 
ATOM     12  C   UNL     1       0.739   2.633   0.455  0.00  0.00    +0.005 C 
ATOM     13  C   UNL     1       1.706   2.169  -0.639  0.00  0.00    +0.005 C 
ATOM     14  C   UNL     1       2.189   0.751  -0.335  0.00  0.00    +0.037 C 
ENDROOT
BRANCH   1  19
ATOM     15  C   UNL     1       6.471  -7.056  -1.640  0.00  0.00    +0.044 C 
ATOM     16  C   UNL     1       5.289  -6.172  -1.340  0.00  0.00    -0.050 A 
ATOM     17  C   UNL     1       4.748  -5.381  -2.337  0.00  0.00    +0.005 A 
ATOM     18  C   UNL     1       3.664  -4.570  -2.064  0.00  0.00    +0.026 A 
ATOM     19  C   UNL     1       3.118  -4.548  -0.788  0.00  0.00    +0.052 A 
ATOM     20  C   UNL     1       3.666  -5.340   0.212  0.00  0.00    +0.026 A 
ATOM     21  C   UNL     1       4.747  -6.153  -0.068  0.00  0.00    +0.005 A 
ENDBRANCH   1  19
BRANCH  10  22
ATOM     22  S   UNL     1       0.697  -6.069  -0.330  0.00  0.00    -0.078 S 
BRANCH  22  23
ATOM     23  C   UNL     1      -1.061  -6.283   0.044  0.00  0.00    +0.173 C 
BRANCH  23  24
ATOM     24  C   UNL     1      -1.399  -7.752   0.049  0.00  0.00    +0.227 C 
ATOM     25  O   UNL     1      -0.536  -8.573  -0.179  0.00  0.00    -0.275 OA
ATOM     26  N   UNL     1      -2.659  -8.153   0.305  0.00  0.00    -0.285 N 
ATOM     27  H   UNL     1      -3.363  -7.495   0.422  0.00  0.00    +0.155 HD
BRANCH  26  28
ATOM     28  C   UNL     1      -2.954  -9.519   0.404  0.00  0.00    +0.034 A 
ATOM     29  C   UNL     1      -2.301 -10.430  -0.415  0.00  0.00    +0.025 A 
ATOM     30  C   UNL     1      -2.588 -11.777  -0.316  0.00  0.00    +0.025 A 
ATOM     31  C   UNL     1      -3.536 -12.219   0.598  0.00  0.00    +0.033 A 
ATOM     32  C   UNL     1      -4.192 -11.307   1.414  0.00  0.00    +0.025 A 
ATOM     33  C   UNL     1      -3.902  -9.961   1.317  0.00  0.00    +0.025 A 
BRANCH  31  34
ATOM     34  N   UNL     1      -3.830 -13.585   0.696  0.00  0.00    -0.286 N 
ATOM     35  C   UNL     1      -2.861 -14.499   0.493  0.00  0.00    +0.214 C 
ATOM     36  O   UNL     1      -1.716 -14.140   0.318  0.00  0.00    -0.276 OA
ATOM     37  C   UNL     1      -3.200 -15.968   0.485  0.00  0.00    +0.109 C 
ATOM     38  H   UNL     1      -4.731 -13.873   0.910  0.00  0.00    +0.155 HD
ENDBRANCH  31  34
ENDBRANCH  26  28
ENDBRANCH  23  24
ENDBRANCH  22  23
ENDBRANCH  10  22
TORSDOF 6
