REMARK  Name = ZINC13123839
REMARK  10 active torsions:
REMARK  status: ('A' for Active; 'I' for Inactive)
REMARK    1  A    between atoms: C_1  and  O_2
REMARK    2  A    between atoms: O_2  and  C_3
REMARK    3  A    between atoms: C_6  and  N_9
REMARK    4  A    between atoms: C_10  and  C_30
REMARK    5  A    between atoms: C_13  and  S_14
REMARK    6  A    between atoms: S_14  and  C_15
REMARK    7  A    between atoms: C_15  and  C_16
REMARK    8  A    between atoms: N_18  and  C_19
REMARK    9  A    between atoms: C_20  and  C_28
REMARK   10  A    between atoms: C_33  and  O_36
REMARK                            x       y       z     vdW  Elec       q    Type
REMARK                         _______ _______ _______ _____ _____    ______ ____
ROOT
ATOM      1  N   UNL     1       2.449  -2.425  -4.329  0.00  0.00    -0.270 N 
ATOM      2  C   UNL     1       1.883  -3.320  -5.210  0.00  0.00    +0.169 A 
ATOM      3  N   UNL     1       2.830  -3.695  -6.039  0.00  0.00    -0.128 NA
ATOM      4  N   UNL     1       3.933  -3.106  -5.742  0.00  0.00    -0.122 NA
ATOM      5  C   UNL     1       3.759  -2.314  -4.708  0.00  0.00    +0.197 A 
ENDROOT
BRANCH   1   9
ATOM      6  C   UNL     1       0.558  -0.455  -1.175  0.00  0.00    +0.120 A 
ATOM      7  C   UNL     1       0.989   0.262  -2.282  0.00  0.00    +0.047 A 
ATOM      8  C   UNL     1       1.615  -0.390  -3.326  0.00  0.00    +0.030 A 
ATOM      9  C   UNL     1       1.813  -1.763  -3.268  0.00  0.00    +0.051 A 
ATOM     10  C   UNL     1       1.383  -2.480  -2.160  0.00  0.00    +0.030 A 
ATOM     11  C   UNL     1       0.761  -1.826  -1.114  0.00  0.00    +0.047 A 
BRANCH   6  13
ATOM     12  C   UNL     1      -0.234   1.599  -0.277  0.00  0.00    +0.277 C 
ATOM     13  O   UNL     1      -0.058   0.187  -0.147  0.00  0.00    -0.495 OA
ENDBRANCH   6  13
ENDBRANCH   1   9
BRANCH   2  14
ATOM     14  C   UNL     1       0.476  -3.773  -5.221  0.00  0.00    +0.020 A 
ATOM     15  C   UNL     1       0.121  -4.937  -5.905  0.00  0.00    +0.015 A 
ATOM     16  C   UNL     1      -1.193  -5.355  -5.913  0.00  0.00    +0.046 A 
ATOM     17  C   UNL     1      -2.162  -4.621  -5.242  0.00  0.00    +0.117 A 
ATOM     18  C   UNL     1      -1.812  -3.462  -4.561  0.00  0.00    +0.046 A 
ATOM     19  C   UNL     1      -0.500  -3.040  -4.543  0.00  0.00    +0.015 A 
BRANCH  17  20
ATOM     20  O   UNL     1      -3.455  -5.037  -5.253  0.00  0.00    -0.507 OA
ATOM     21  H   UNL     1      -3.683  -5.631  -4.525  0.00  0.00    +0.292 HD
ENDBRANCH  17  20
ENDBRANCH   2  14
BRANCH   5  22
ATOM     22  S   UNL     1       4.984  -1.300  -3.950  0.00  0.00    -0.076 S 
BRANCH  22  23
ATOM     23  C   UNL     1       6.480  -1.615  -4.925  0.00  0.00    +0.173 C 
BRANCH  23  24
ATOM     24  C   UNL     1       7.621  -0.798  -4.375  0.00  0.00    +0.228 C 
ATOM     25  O   UNL     1       7.442  -0.074  -3.418  0.00  0.00    -0.275 OA
ATOM     26  N   UNL     1       8.839  -0.872  -4.945  0.00  0.00    -0.278 N 
ATOM     27  H   UNL     1       8.983  -1.451  -5.710  0.00  0.00    +0.155 HD
BRANCH  26  28
ATOM     28  C   UNL     1       9.890  -0.120  -4.438  0.00  0.00    +0.090 A 
ATOM     29  C   UNL     1      11.196  -0.065  -4.895  0.00  0.00    +0.084 A 
ATOM     30  C   UNL     1      12.113   0.809  -4.184  0.00  0.00    -0.018 A 
ATOM     31  C   UNL     1      11.554   1.469  -3.146  0.00  0.00    -0.004 A 
ATOM     32  S   UNL     1       9.866   0.939  -3.134  0.00  0.00    -0.077 S 
ATOM     33  C   UNL     1      12.232   2.435  -2.224  0.00  0.00    +0.043 C 
ATOM     34  C   UNL     1      13.750   2.281  -2.397  0.00  0.00    +0.005 C 
ATOM     35  C   UNL     1      14.082   2.288  -3.892  0.00  0.00    +0.005 C 
ATOM     36  C   UNL     1      13.579   0.998  -4.543  0.00  0.00    +0.037 C 
BRANCH  29  37
ATOM     37  C   UNL     1      11.626  -0.839  -6.021  0.00  0.00    +0.102 C 
ATOM     38  N   UNL     1      11.966  -1.452  -6.914  0.00  0.00    -0.191 NA
ENDBRANCH  29  37
ENDBRANCH  26  28
ENDBRANCH  23  24
ENDBRANCH  22  23
ENDBRANCH   5  22
TORSDOF 9
