REMARK  Name = ZINC36480331
REMARK  11 active torsions:
REMARK  status: ('A' for Active; 'I' for Inactive)
REMARK    1  A    between atoms: C_1  and  C_2
REMARK    2  A    between atoms: C_2  and  C_3
REMARK    3  A    between atoms: C_2  and  C_4
REMARK    4  A    between atoms: C_2  and  N_5
REMARK    5  A    between atoms: C_6  and  C_8
REMARK    6  A    between atoms: C_8  and  C_10
REMARK    7  A    between atoms: C_8  and  N_15
REMARK    8  A    between atoms: N_15  and  C_16
REMARK    9  A    between atoms: C_23  and  C_25
REMARK   10  A    between atoms: C_25  and  C_33
REMARK   11  A    between atoms: C_26  and  C_27
REMARK                            x       y       z     vdW  Elec       q    Type
REMARK                         _______ _______ _______ _____ _____    ______ ____
ROOT
ATOM      1  N   UNL     1       4.534   0.062  -2.807  0.00  0.00    -0.248 N 
ATOM      2  C   UNL     1       5.060  -1.022  -2.202  0.00  0.00    +0.252 C 
ATOM      3  O   UNL     1       5.665  -0.899  -1.154  0.00  0.00    -0.270 OA
ENDROOT
BRANCH   1   4
ATOM      4  C   UNL     1       4.815   1.341  -2.318  0.00  0.00    +0.039 A 
ATOM      5  C   UNL     1       4.167   2.448  -2.851  0.00  0.00    +0.023 A 
ATOM      6  C   UNL     1       4.447   3.711  -2.367  0.00  0.00    +0.003 A 
ATOM      7  C   UNL     1       5.371   3.874  -1.351  0.00  0.00    +0.020 A 
ATOM      8  C   UNL     1       6.018   2.774  -0.817  0.00  0.00    +0.043 A 
ATOM      9  C   UNL     1       5.738   1.507  -1.294  0.00  0.00    +0.043 A 
ATOM     10 CL   UNL     1       7.177   2.984   0.459  0.00  0.00    -0.083 Cl
ENDBRANCH   1   4
BRANCH   2  11
ATOM     11  C   UNL     1       4.904  -2.353  -2.810  0.00  0.00    +0.045 C 
ATOM     12  C   UNL     1       5.949  -3.223  -2.820  0.00  0.00    +0.021 C 
BRANCH  12  13
ATOM     13  C   UNL     1       5.745  -4.610  -3.260  0.00  0.00    -0.024 A 
ATOM     14  C   UNL     1       6.728  -5.260  -4.016  0.00  0.00    +0.008 A 
ATOM     15  C   UNL     1       6.529  -6.561  -4.424  0.00  0.00    +0.001 A 
ATOM     16  C   UNL     1       5.361  -7.225  -4.089  0.00  0.00    +0.000 A 
ATOM     17  C   UNL     1       4.384  -6.590  -3.342  0.00  0.00    +0.001 A 
ATOM     18  C   UNL     1       4.570  -5.290  -2.920  0.00  0.00    +0.008 A 
ENDBRANCH  12  13
BRANCH  11  19
ATOM     19  C   UNL     1       3.608  -2.744  -3.410  0.00  0.00    -0.013 A 
ATOM     20  C   UNL     1       3.574  -3.365  -4.659  0.00  0.00    +0.008 A 
ATOM     21  C   UNL     1       2.363  -3.728  -5.213  0.00  0.00    +0.001 A 
ATOM     22  C   UNL     1       1.185  -3.477  -4.532  0.00  0.00    +0.000 A 
ATOM     23  C   UNL     1       1.212  -2.862  -3.294  0.00  0.00    +0.001 A 
ATOM     24  C   UNL     1       2.417  -2.499  -2.727  0.00  0.00    +0.008 A 
ENDBRANCH  11  19
ENDBRANCH   2  11
BRANCH   1  25
ATOM     25  C   UNL     1       3.667  -0.101  -3.976  0.00  0.00    +0.233 C 
BRANCH  25  26
ATOM     26  C   UNL     1       4.341   0.489  -5.188  0.00  0.00    +0.135 A 
ATOM     27  C   UNL     1       4.331  -0.034  -6.427  0.00  0.00    +0.047 A 
ATOM     28  C   UNL     1       5.081   0.840  -7.247  0.00  0.00    +0.041 A 
ATOM     29  C   UNL     1       5.506   1.844  -6.459  0.00  0.00    +0.195 A 
ATOM     30  O   UNL     1       5.049   1.630  -5.214  0.00  0.00    -0.465 OA
ENDBRANCH  25  26
BRANCH  25  32
ATOM     31  N   UNL     1       1.399   0.592  -4.680  0.00  0.00    -0.309 N 
ATOM     32  C   UNL     1       2.359   0.607  -3.734  0.00  0.00    +0.242 C 
ATOM     33  O   UNL     1       2.169   1.190  -2.688  0.00  0.00    -0.273 OA
ATOM     34  H   UNL     1       1.550   0.125  -5.517  0.00  0.00    +0.149 HD
BRANCH  31  36
ATOM     35  C   UNL     1       0.390   2.769  -4.208  0.00  0.00    +0.031 C 
ATOM     36  C   UNL     1       0.128   1.281  -4.445  0.00  0.00    +0.026 C 
ATOM     37  C   UNL     1      -0.557   0.681  -3.215  0.00  0.00    +0.031 C 
ATOM     38  C   UNL     1      -0.778   1.110  -5.667  0.00  0.00    +0.031 C 
ENDBRANCH  31  36
ENDBRANCH  25  32
ENDBRANCH   1  25
TORSDOF 8
