REMARK  Name = ZINC03307661
REMARK  10 active torsions:
REMARK  status: ('A' for Active; 'I' for Inactive)
REMARK    1  A    between atoms: C_1  and  C_2
REMARK    2  A    between atoms: C_4  and  C_15
REMARK    3  A    between atoms: C_5  and  C_14
REMARK    4  A    between atoms: N_6  and  C_7
REMARK    5  A    between atoms: C_7  and  C_8
REMARK    6  A    between atoms: C_15  and  C_17
REMARK    7  A    between atoms: C_17  and  S_18
REMARK    8  A    between atoms: S_18  and  C_19
REMARK    9  A    between atoms: C_22  and  C_25
REMARK   10  A    between atoms: N_23  and  N_24
REMARK                            x       y       z     vdW  Elec       q    Type
REMARK                         _______ _______ _______ _____ _____    ______ ____
ROOT
ATOM      1  C   UNL     1       0.044  -4.635  -5.416  0.00  0.00    +0.209 A 
ATOM      2  N   UNL     1       0.031  -3.461  -6.007  0.00  0.00    -0.121 NA
ATOM      3  N   UNL     1       0.027  -3.607  -7.283  0.00  0.00    -0.126 NA
ATOM      4  C   UNL     1       0.037  -4.887  -7.588  0.00  0.00    +0.190 A 
ATOM      5  N   UNL     1       0.053  -5.583  -6.399  0.00  0.00    -0.223 N 
ENDROOT
BRANCH   4   6
ATOM      6  C   UNL     1       0.035  -5.464  -8.941  0.00  0.00    +0.077 A 
ATOM      7  C   UNL     1       0.030  -4.814 -10.133  0.00  0.00    +0.066 A 
ATOM      8  C   UNL     1       0.030  -5.593 -11.359  0.00  0.00    +0.008 A 
ATOM      9  C   UNL     1       0.024  -5.133 -12.699  0.00  0.00    +0.010 A 
ATOM     10  C   UNL     1       0.024  -6.012 -13.736  0.00  0.00    +0.001 A 
ATOM     11  C   UNL     1       0.030  -7.384 -13.524  0.00  0.00    +0.001 A 
ATOM     12  C   UNL     1       0.036  -7.874 -12.232  0.00  0.00    +0.016 A 
ATOM     13  C   UNL     1       0.036  -6.994 -11.171  0.00  0.00    +0.021 A 
ATOM     14  S   UNL     1       0.048  -7.185  -9.408  0.00  0.00    -0.084 S 
ATOM     15 CL   UNL     1       0.022  -3.079 -10.191  0.00  0.00    -0.082 Cl
ENDBRANCH   4   6
BRANCH   5  16
ATOM     16  N   UNL     1       0.072  -6.940  -6.238  0.00  0.00    -0.295 N 
ATOM     17  H   UNL     1      -0.865  -7.311  -6.192  0.00  0.00    +0.163 HD
ATOM     18  H   UNL     1       0.602  -7.384  -6.973  0.00  0.00    +0.163 HD
ENDBRANCH   5  16
BRANCH   1  19
ATOM     19  S   UNL     1       0.056  -4.930  -3.679  0.00  0.00    -0.077 S 
BRANCH  19  20
ATOM     20  C   UNL     1       0.035  -3.269  -2.951  0.00  0.00    +0.157 C 
BRANCH  20  21
ATOM     21  C   UNL     1       0.043  -3.379  -1.448  0.00  0.00    +0.175 C 
ATOM     22  O   UNL     1       0.060  -4.471  -0.920  0.00  0.00    -0.291 OA
BRANCH  21  26
ATOM     23  C   UNL     1      -0.018   1.503   0.010  0.00  0.00    +0.063 C 
ATOM     24  C   UNL     1       0.002  -0.004   0.002  0.00  0.00    +0.017 A 
ATOM     25  C   UNL     1       0.008  -0.777  -1.097  0.00  0.00    +0.034 A 
ATOM     26  C   UNL     1       0.030  -2.167  -0.625  0.00  0.00    +0.039 A 
ATOM     27  C   UNL     1       0.035  -2.098   0.755  0.00  0.00    +0.026 A 
ATOM     28  N   UNL     1       0.023  -0.801   1.110  0.00  0.00    -0.345 N 
ATOM     29  C   UNL     1       0.056  -3.273   1.700  0.00  0.00    +0.064 C 
BRANCH  28  30
ATOM     30  C   UNL     1       0.029  -0.312   2.491  0.00  0.00    +0.153 C 
BRANCH  30  31
ATOM     31  C   UNL     1      -1.411  -0.163   2.985  0.00  0.00    +0.138 C 
ATOM     32  C   UNL     1      -1.427   0.267   4.474  0.00  0.00    +0.035 C 
ATOM     33  C   UNL     1      -2.813   0.961   4.565  0.00  0.00    +0.031 C 
ATOM     34  C   UNL     1      -2.952   1.602   3.167  0.00  0.00    +0.160 C 
ATOM     35  O   UNL     1      -2.073   0.899   2.279  0.00  0.00    -0.375 OA
ENDBRANCH  30  31
ENDBRANCH  28  30
ENDBRANCH  21  26
ENDBRANCH  20  21
ENDBRANCH  19  20
ENDBRANCH   1  19
TORSDOF 8
