REMARK  Name = ZINC23402979
REMARK  11 active torsions:
REMARK  status: ('A' for Active; 'I' for Inactive)
REMARK    1  A    between atoms: C_1  and  C_2
REMARK    2  A    between atoms: C_2  and  O_3
REMARK    3  A    between atoms: O_3  and  C_4
REMARK    4  A    between atoms: C_7  and  C_12
REMARK    5  A    between atoms: C_9  and  O_10
REMARK    6  A    between atoms: O_10  and  C_11
REMARK    7  A    between atoms: C_12  and  C_14
REMARK    8  A    between atoms: C_12  and  C_26
REMARK    9  A    between atoms: C_14  and  N_15
REMARK   10  A    between atoms: N_15  and  S_16
REMARK   11  A    between atoms: S_16  and  N_19
REMARK                            x       y       z     vdW  Elec       q    Type
REMARK                         _______ _______ _______ _____ _____    ______ ____
ROOT
ATOM      1  C   UNL     1       1.142  -6.064   1.761  0.00  0.00    +0.067 C 
ENDROOT
BRANCH   1   2
ATOM      2  C   UNL     1       1.891  -6.636   0.584  0.00  0.00    -0.014 A 
ATOM      3  C   UNL     1       1.533  -6.552  -0.707  0.00  0.00    +0.088 A 
ATOM      4  N   UNL     1       2.457  -7.190  -1.489  0.00  0.00    -0.360 N 
ATOM      5  H   UNL     1       2.414  -7.262  -2.456  0.00  0.00    +0.165 HD
ATOM      6  C   UNL     1       3.457  -7.713  -0.701  0.00  0.00    +0.047 A 
ATOM      7  C   UNL     1       3.149  -7.384   0.632  0.00  0.00    +0.003 A 
ATOM      8  C   UNL     1       4.001  -7.785   1.663  0.00  0.00    +0.010 A 
ATOM      9  C   UNL     1       5.133  -8.493   1.371  0.00  0.00    +0.001 A 
ATOM     10  C   UNL     1       5.443  -8.817   0.058  0.00  0.00    +0.002 A 
ATOM     11  C   UNL     1       4.611  -8.439  -0.974  0.00  0.00    +0.026 A 
ENDBRANCH   1   2
BRANCH   1  15
ATOM     12  C   UNL     1       0.802  -1.825   1.306  0.00  0.00    +0.162 A 
ATOM     13  C   UNL     1       0.261  -2.673   0.353  0.00  0.00    +0.050 A 
ATOM     14  C   UNL     1       0.372  -4.043   0.502  0.00  0.00    +0.008 A 
ATOM     15  C   UNL     1       1.024  -4.570   1.602  0.00  0.00    -0.035 A 
ATOM     16  C   UNL     1       1.566  -3.730   2.557  0.00  0.00    +0.053 A 
ATOM     17  C   UNL     1       1.462  -2.356   2.410  0.00  0.00    +0.162 A 
BRANCH  17  18
ATOM     18  O   UNL     1       2.000  -1.528   3.345  0.00  0.00    -0.491 OA
ATOM     19  C   UNL     1       2.664  -2.143   4.451  0.00  0.00    +0.277 C 
ENDBRANCH  17  18
BRANCH  12  20
ATOM     20  O   UNL     1       0.693  -0.477   1.160  0.00  0.00    -0.489 OA
BRANCH  20  22
ATOM     21  C   UNL     1      -0.019   1.526   0.010  0.00  0.00    +0.048 C 
ATOM     22  C   UNL     1       0.002  -0.004   0.002  0.00  0.00    +0.226 C 
ENDBRANCH  20  22
ENDBRANCH  12  20
ENDBRANCH   1  15
BRANCH   1  23
ATOM     23  C   UNL     1      -0.256  -6.682   1.826  0.00  0.00    +0.119 C 
BRANCH  23  24
ATOM     24  N   UNL     1      -0.142  -8.117   2.099  0.00  0.00    -0.179 NA
ATOM     25  H   UNL     1       0.712  -8.565   1.993  0.00  0.00    +0.149 HD
BRANCH  24  26
ATOM     26  S   UNL     1      -1.472  -8.974   2.589  0.00  0.00    +0.097 S 
ATOM     27  O   UNL     1      -1.051 -10.323   2.744  0.00  0.00    -0.141 OA
ATOM     28  O   UNL     1      -2.064  -8.234   3.648  0.00  0.00    -0.141 OA
BRANCH  26  29
ATOM     29  N   UNL     1      -2.555  -8.957   1.336  0.00  0.00    -0.167 NA
ATOM     30  C   UNL     1      -3.520  -7.883   1.269  0.00  0.00    +0.110 C 
ATOM     31  C   UNL     1      -4.793  -8.279   2.057  0.00  0.00    +0.017 C 
ATOM     32  C   UNL     1      -5.537  -9.323   1.335  0.00  0.00    +0.001 C 
ATOM     33  C   UNL     1      -4.774 -10.634   1.165  0.00  0.00    +0.001 C 
ATOM     34  C   UNL     1      -3.894 -10.546  -0.057  0.00  0.00    +0.017 C 
ATOM     35  C   UNL     1      -2.490 -10.036   0.331  0.00  0.00    +0.110 C 
ENDBRANCH  26  29
ENDBRANCH  24  26
ENDBRANCH  23  24
ENDBRANCH   1  23
TORSDOF 9
