REMARK  Name = ZINC58976050
REMARK  11 active torsions:
REMARK  status: ('A' for Active; 'I' for Inactive)
REMARK    1  A    between atoms: C_6  and  C_7
REMARK    2  A    between atoms: C_9  and  C_28
REMARK    3  A    between atoms: C_11  and  S_13
REMARK    4  A    between atoms: S_13  and  C_14
REMARK    5  A    between atoms: C_14  and  C_15
REMARK    6  A    between atoms: C_15  and  C_16
REMARK    7  A    between atoms: C_16  and  C_17
REMARK    8  A    between atoms: N_19  and  C_20
REMARK    9  A    between atoms: C_20  and  C_21
REMARK   10  A    between atoms: C_21  and  C_22
REMARK   11  A    between atoms: C_22  and  N_23
REMARK                            x       y       z     vdW  Elec       q    Type
REMARK                         _______ _______ _______ _____ _____    ______ ____
ROOT
ATOM      1  C   UNL     1      -1.270  -0.764   0.010  0.00  0.00    +0.076 A 
ATOM      2  C   UNL     1      -2.496  -0.097  -0.085  0.00  0.00    +0.060 A 
ATOM      3  C   UNL     1      -3.657  -0.848  -0.073  0.00  0.00    +0.148 A 
ATOM      4  N   UNL     1      -3.576  -2.166   0.027  0.00  0.00    -0.218 NA
ATOM      5  C   UNL     1      -2.400  -2.772   0.116  0.00  0.00    +0.189 A 
ATOM      6  N   UNL     1      -1.264  -2.092   0.103  0.00  0.00    -0.222 NA
ENDROOT
BRANCH   1  12
ATOM      7  C   UNL     1      -0.017   1.390   0.010  0.00  0.00    +0.014 A 
ATOM      8  C   UNL     1       1.168   2.096   0.002  0.00  0.00    +0.050 A 
ATOM      9  C   UNL     1       2.381   1.424  -0.013  0.00  0.00    +0.166 A 
ATOM     10  C   UNL     1       2.406   0.029  -0.021  0.00  0.00    +0.167 A 
ATOM     11  C   UNL     1       1.221  -0.682  -0.014  0.00  0.00    +0.059 A 
ATOM     12  C   UNL     1       0.002  -0.004   0.002  0.00  0.00    +0.004 A 
ATOM     13  O   UNL     1       3.707  -0.383  -0.035  0.00  0.00    -0.453 OA
ATOM     14  C   UNL     1       4.470   0.766  -0.449  0.00  0.00    +0.466 C 
ATOM     15  O   UNL     1       3.666   1.882  -0.022  0.00  0.00    -0.453 OA
ENDBRANCH   1  12
BRANCH   3  16
ATOM     16  C   UNL     1      -5.001  -0.174  -0.173  0.00  0.00    +0.434 C 
ATOM     17  F   UNL     1      -5.368  -0.062  -1.518  0.00  0.00    -0.164 F 
ATOM     18  F   UNL     1      -5.957  -0.934   0.509  0.00  0.00    -0.164 F 
ATOM     19  F   UNL     1      -4.926   1.101   0.398  0.00  0.00    -0.164 F 
ENDBRANCH   3  16
BRANCH   5  20
ATOM     20  S   UNL     1      -2.348  -4.528   0.248  0.00  0.00    -0.086 S 
BRANCH  20  21
ATOM     21  C   UNL     1      -4.093  -5.023   0.219  0.00  0.00    +0.078 C 
BRANCH  21  22
ATOM     22  C   UNL     1      -4.194  -6.545   0.328  0.00  0.00    +0.020 C 
BRANCH  22  23
ATOM     23  C   UNL     1      -5.665  -6.963   0.303  0.00  0.00    +0.096 C 
BRANCH  23  24
ATOM     24  C   UNL     1      -5.765  -8.463   0.410  0.00  0.00    +0.213 C 
ATOM     25  O   UNL     1      -4.757  -9.132   0.498  0.00  0.00    -0.276 OA
ATOM     26  N   UNL     1      -6.973  -9.060   0.409  0.00  0.00    -0.315 N 
ATOM     27  H   UNL     1      -7.779  -8.524   0.339  0.00  0.00    +0.149 HD
BRANCH  26  28
ATOM     28  C   UNL     1      -7.069 -10.518   0.513  0.00  0.00    +0.106 C 
BRANCH  28  29
ATOM     29  C   UNL     1      -8.541 -10.935   0.489  0.00  0.00    +0.040 C 
BRANCH  29  30
ATOM     30  C   UNL     1      -8.641 -12.458   0.598  0.00  0.00    +0.124 C 
BRANCH  30  31
ATOM     31  N   UNL     1     -10.051 -12.857   0.574  0.00  0.00    -0.338 N 
ATOM     32  C   UNL     1     -10.875 -12.992   1.659  0.00  0.00    +0.104 A 
ATOM     33  C   UNL     1     -12.078 -13.372   1.189  0.00  0.00    +0.101 A 
ATOM     34  N   UNL     1     -11.991 -13.467  -0.146  0.00  0.00    -0.352 N 
ATOM     35  C   UNL     1     -10.781 -13.155  -0.522  0.00  0.00    +0.173 A 
ATOM     36  H   UNL     1     -12.714 -13.724  -0.739  0.00  0.00    +0.166 HD
ENDBRANCH  30  31
ENDBRANCH  29  30
ENDBRANCH  28  29
ENDBRANCH  26  28
ENDBRANCH  23  24
ENDBRANCH  22  23
ENDBRANCH  21  22
ENDBRANCH  20  21
ENDBRANCH   5  20
TORSDOF 11
