REMARK  Name = ZINC65115600
REMARK  11 active torsions:
REMARK  status: ('A' for Active; 'I' for Inactive)
REMARK    1  A    between atoms: C_1  and  C_2
REMARK    2  A    between atoms: C_2  and  O_3
REMARK    3  A    between atoms: O_3  and  C_4
REMARK    4  A    between atoms: C_9  and  C_10
REMARK    5  A    between atoms: C_12  and  C_16
REMARK    6  A    between atoms: C_13  and  C_15
REMARK    7  A    between atoms: C_16  and  N_17
REMARK    8  A    between atoms: N_17  and  C_18
REMARK    9  A    between atoms: N_17  and  S_25
REMARK   10  A    between atoms: C_21  and  C_24
REMARK   11  A    between atoms: S_25  and  C_28
REMARK                            x       y       z     vdW  Elec       q    Type
REMARK                         _______ _______ _______ _____ _____    ______ ____
ROOT
ATOM      1  C   UNL     1       3.553  -0.751   7.048  0.00  0.00    +0.190 C 
ENDROOT
BRANCH   1   4
ATOM      2  C   UNL     1       1.691   0.426   4.180  0.00  0.00    +0.231 A 
ATOM      3  N   UNL     1       2.404   0.642   5.261  0.00  0.00    -0.212 NA
ATOM      4  C   UNL     1       2.736  -0.542   5.799  0.00  0.00    +0.102 A 
ATOM      5  C   UNL     1       2.211  -1.508   5.025  0.00  0.00    +0.127 A 
ATOM      6  O   UNL     1       1.553  -0.901   4.017  0.00  0.00    -0.440 OA
ATOM      7  C   UNL     1       2.331  -2.994   5.247  0.00  0.00    +0.088 C 
BRANCH   2  13
ATOM      8  C   UNL     1       0.377   1.104   2.171  0.00  0.00    +0.133 A 
ATOM      9  C   UNL     1      -0.150   2.089   1.350  0.00  0.00    +0.046 A 
ATOM     10  C   UNL     1       0.069   3.422   1.639  0.00  0.00    +0.004 A 
ATOM     11  C   UNL     1       0.816   3.785   2.747  0.00  0.00    +0.001 A 
ATOM     12  C   UNL     1       1.348   2.817   3.573  0.00  0.00    +0.017 A 
ATOM     13  C   UNL     1       1.129   1.467   3.296  0.00  0.00    +0.078 A 
BRANCH   8  14
ATOM     14  O   UNL     1       0.162  -0.206   1.889  0.00  0.00    -0.491 OA
BRANCH  14  16
ATOM     15  C   UNL     1      -0.749  -2.017   0.572  0.00  0.00    +0.048 C 
ATOM     16  C   UNL     1      -0.614  -0.500   0.725  0.00  0.00    +0.226 C 
ENDBRANCH  14  16
ENDBRANCH   8  14
ENDBRANCH   2  13
ENDBRANCH   1   4
BRANCH   1  17
ATOM     17  N   UNL     1       4.978  -0.713   6.712  0.00  0.00    -0.197 N 
BRANCH  17  18
ATOM     18  C   UNL     1       5.620  -1.867   6.257  0.00  0.00    +0.052 A 
ATOM     19  C   UNL     1       5.647  -3.006   7.051  0.00  0.00    +0.025 A 
ATOM     20  C   UNL     1       6.282  -4.147   6.599  0.00  0.00    +0.005 A 
ATOM     21  C   UNL     1       6.890  -4.155   5.357  0.00  0.00    -0.050 A 
ATOM     22  C   UNL     1       6.864  -3.022   4.564  0.00  0.00    +0.005 A 
ATOM     23  C   UNL     1       6.226  -1.881   5.008  0.00  0.00    +0.025 A 
ATOM     24  C   UNL     1       7.582  -5.400   4.867  0.00  0.00    +0.044 C 
ENDBRANCH  17  18
BRANCH  17  25
ATOM     25  S   UNL     1       5.829   0.699   6.870  0.00  0.00    +0.081 S 
ATOM     26  O   UNL     1       6.981   0.573   6.048  0.00  0.00    -0.149 OA
ATOM     27  O   UNL     1       4.893   1.757   6.712  0.00  0.00    -0.149 OA
BRANCH  25  28
ATOM     28  C   UNL     1       6.402   0.778   8.534  0.00  0.00    +0.146 A 
ATOM     29  C   UNL     1       7.566   0.321   9.059  0.00  0.00    +0.036 A 
ATOM     30  C   UNL     1       7.807   0.495  10.408  0.00  0.00    +0.010 A 
ATOM     31  C   UNL     1       6.873   1.119  11.168  0.00  0.00    +0.047 A 
ATOM     32  S   UNL     1       5.606   1.488   9.965  0.00  0.00    -0.077 S 
ENDBRANCH  25  28
ENDBRANCH  17  25
ENDBRANCH   1  17
TORSDOF 8
