REMARK  Name = ZINC11958636
REMARK  9 active torsions:
REMARK  status: ('A' for Active; 'I' for Inactive)
REMARK    1  A    between atoms: C_1  and  N_2
REMARK    2  A    between atoms: C_4  and  C_17
REMARK    3  A    between atoms: C_5  and  C_7
REMARK    4  A    between atoms: C_17  and  N_63
REMARK    5  A    between atoms: C_21  and  C_23
REMARK    6  A    between atoms: C_26  and  C_29
REMARK    7  A    between atoms: C_29  and  N_65
REMARK    8  A    between atoms: C_30  and  N_65
REMARK    9  A    between atoms: C_31  and  N_65
REMARK                            x       y       z     vdW  Elec       q    Type
REMARK                         _______ _______ _______ _____ _____    ______ ____
ROOT
ATOM      1  C   UNL     1      -5.275   0.776   1.530  0.00  0.00    -0.038 C 
ENDROOT
BRANCH   1   5
ATOM      2  C   UNL     1      -5.588  -2.516  -2.237  0.00  0.00    +0.172 C 
ATOM      3  N   UNL     1      -5.355  -1.933  -0.913  0.00  0.00    -0.274 N 
ATOM      4  C   UNL     1      -5.533  -0.638  -0.575  0.00  0.00    +0.110 A 
ATOM      5  C   UNL     1      -5.217  -0.501   0.732  0.00  0.00    -0.019 A 
ATOM      6  C   UNL     1      -4.821  -1.764   1.215  0.00  0.00    +0.094 A 
ATOM      7  N   UNL     1      -4.909  -2.623   0.222  0.00  0.00    -0.171 NA
BRANCH   6   8
ATOM      8  C   UNL     1      -4.387  -2.072   2.600  0.00  0.00    +0.006 A 
ATOM      9  C   UNL     1      -3.540  -1.197   3.277  0.00  0.00    +0.014 A 
ATOM     10  C   UNL     1      -3.134  -1.487   4.564  0.00  0.00    +0.050 A 
ATOM     11  C   UNL     1      -3.573  -2.645   5.190  0.00  0.00    +0.162 A 
ATOM     12  C   UNL     1      -4.420  -3.521   4.519  0.00  0.00    +0.163 A 
ATOM     13  C   UNL     1      -4.826  -3.236   3.226  0.00  0.00    +0.059 A 
ATOM     14  O   UNL     1      -4.860  -4.661   5.119  0.00  0.00    -0.485 OA
ATOM     15  C   UNL     1      -4.136  -5.102   6.273  0.00  0.00    +0.270 C 
ATOM     16  C   UNL     1      -3.909  -3.891   7.188  0.00  0.00    +0.270 C 
ATOM     17  O   UNL     1      -3.159  -2.913   6.460  0.00  0.00    -0.485 OA
ENDBRANCH   6   8
ENDBRANCH   1   5
BRANCH   1  22
ATOM     18  C   UNL     1      -4.578   2.391  -0.154  0.00  0.00    -0.078 C 
ATOM     19  C   UNL     1      -5.014   3.811  -0.573  0.00  0.00    -0.020 C 
ATOM     20  C   UNL     1      -6.044   4.245   0.490  0.00  0.00    -0.013 C 
ATOM     21  C   UNL     1      -6.144   3.050   1.462  0.00  0.00    -0.037 C 
ATOM     22  N   UNL     1      -5.705   1.913   0.656  0.00  0.00    +0.387 N 
ATOM     23  H   UNL     1      -6.469   1.600   0.046  0.00  0.00    -0.080 HD
BRANCH  21  24
ATOM     24  C   UNL     1      -7.565   2.869   1.930  0.00  0.00    -0.061 A 
ATOM     25  C   UNL     1      -8.508   2.323   1.080  0.00  0.00    +0.002 A 
ATOM     26  C   UNL     1      -9.811   2.154   1.510  0.00  0.00    +0.002 A 
ATOM     27  C   UNL     1     -10.173   2.540   2.787  0.00  0.00    -0.064 A 
ATOM     28  C   UNL     1      -9.231   3.091   3.635  0.00  0.00    +0.002 A 
ATOM     29  C   UNL     1      -7.927   3.256   3.207  0.00  0.00    +0.002 A 
BRANCH  27  30
ATOM     30  C   UNL     1     -11.594   2.360   3.254  0.00  0.00    -0.044 C 
BRANCH  30  33
ATOM     31  C   UNL     1     -13.806   3.341   3.158  0.00  0.00    -0.096 C 
ATOM     32  C   UNL     1     -11.893   4.719   3.708  0.00  0.00    -0.096 C 
ATOM     33  N   UNL     1     -12.367   3.571   2.907  0.00  0.00    +0.379 N 
ATOM     34  H   UNL     1     -12.231   3.780   1.911  0.00  0.00    -0.082 HD
ENDBRANCH  30  33
ENDBRANCH  27  30
ENDBRANCH  21  24
ENDBRANCH   1  22
TORSDOF 6
