REMARK  Name = ZINC16992839
REMARK  8 active torsions:
REMARK  status: ('A' for Active; 'I' for Inactive)
REMARK    1  A    between atoms: C_1  and  C_2
REMARK    2  A    between atoms: C_4  and  C_27
REMARK    3  A    between atoms: C_6  and  C_19
REMARK    4  A    between atoms: N_9  and  C_11
REMARK    5  A    between atoms: C_22  and  O_25
REMARK    6  A    between atoms: O_25  and  C_26
REMARK    7  A    between atoms: N_29  and  C_30
REMARK    8  A    between atoms: C_36  and  C_38
REMARK                            x       y       z     vdW  Elec       q    Type
REMARK                         _______ _______ _______ _____ _____    ______ ____
ROOT
ATOM      1  C   UNL     1       3.022   4.144  -0.290  0.00  0.00    +0.068 C 
ATOM      2  C   UNL     1       3.999   2.996  -0.257  0.00  0.00    +0.070 A 
ATOM      3  C   UNL     1       3.663   1.627  -0.323  0.00  0.00    +0.054 A 
ATOM      4  C   UNL     1       2.441   0.924  -0.430  0.00  0.00    +0.051 A 
ATOM      5  C   UNL     1       2.489  -0.464  -0.475  0.00  0.00    +0.042 A 
ATOM      6  C   UNL     1       3.729  -1.107  -0.408  0.00  0.00    +0.074 A 
ATOM      7  N   UNL     1       4.856  -0.423  -0.303  0.00  0.00    -0.228 NA
ATOM      8  C   UNL     1       4.869   0.901  -0.255  0.00  0.00    +0.160 A 
ATOM      9  N   UNL     1       5.873   1.829  -0.150  0.00  0.00    -0.241 N 
ATOM     10  N   UNL     1       5.294   3.103  -0.164  0.00  0.00    -0.174 NA
ENDROOT
BRANCH   9  11
ATOM     11  C   UNL     1       7.306   1.537  -0.057  0.00  0.00    +0.132 C 
ATOM     12  C   UNL     1       7.872   2.128   1.246  0.00  0.00    +0.051 C 
ATOM     13  C   UNL     1       9.419   2.110   1.204  0.00  0.00    +0.168 C 
ATOM     14  S   UNL     1       9.777   2.221  -0.596  0.00  0.00    -0.029 S 
ATOM     15  O   UNL     1      10.448   1.039  -1.008  0.00  0.00    -0.174 OA
ATOM     16  O   UNL     1      10.357   3.488  -0.875  0.00  0.00    -0.174 OA
ATOM     17  C   UNL     1       8.055   2.193  -1.252  0.00  0.00    +0.192 C 
ENDBRANCH   9  11
BRANCH   6  18
ATOM     18  C   UNL     1       3.782  -2.588  -0.457  0.00  0.00    +0.001 A 
ATOM     19  C   UNL     1       2.603  -3.326  -0.562  0.00  0.00    +0.013 A 
ATOM     20  C   UNL     1       2.656  -4.702  -0.612  0.00  0.00    +0.046 A 
ATOM     21  C   UNL     1       3.880  -5.355  -0.546  0.00  0.00    +0.120 A 
ATOM     22  C   UNL     1       5.055  -4.623  -0.436  0.00  0.00    +0.046 A 
ATOM     23  C   UNL     1       5.010  -3.246  -0.391  0.00  0.00    +0.013 A 
BRANCH  21  24
ATOM     24  O   UNL     1       3.928  -6.712  -0.590  0.00  0.00    -0.495 OA
ATOM     25  C   UNL     1       2.682  -7.402  -0.703  0.00  0.00    +0.277 C 
ENDBRANCH  21  24
ENDBRANCH   6  18
BRANCH   4  26
ATOM     26  C   UNL     1       1.151   1.644  -0.498  0.00  0.00    +0.245 C 
ATOM     27  O   UNL     1       1.116   2.847  -0.326  0.00  0.00    -0.270 OA
ATOM     28  N   UNL     1       0.013   0.967  -0.751  0.00  0.00    -0.308 N 
ATOM     29  H   UNL     1       0.041   0.007  -0.889  0.00  0.00    +0.149 HD
BRANCH  28  30
ATOM     30  C   UNL     1      -1.264   1.681  -0.825  0.00  0.00    +0.076 C 
ATOM     31  C   UNL     1      -1.846   1.831   0.582  0.00  0.00    +0.022 C 
ATOM     32  C   UNL     1      -2.071   0.445   1.191  0.00  0.00    +0.002 C 
ATOM     33  C   UNL     1      -3.047  -0.344   0.316  0.00  0.00    +0.000 C 
ATOM     34  C   UNL     1      -2.465  -0.493  -1.091  0.00  0.00    +0.005 C 
ATOM     35  C   UNL     1      -2.240   0.892  -1.700  0.00  0.00    +0.006 C 
ATOM     36  C   UNL     1      -1.657   0.743  -3.106  0.00  0.00    +0.009 C 
ENDBRANCH  28  30
ENDBRANCH   4  26
TORSDOF 5
