REMARK  Name = ZINC09590611
REMARK  7 active torsions:
REMARK  status: ('A' for Active; 'I' for Inactive)
REMARK    1  A    between atoms: C_4  and  C_7
REMARK    2  A    between atoms: C_7  and  C_9
REMARK    3  A    between atoms: C_7  and  N_20
REMARK    4  A    between atoms: C_18  and  O_19
REMARK    5  A    between atoms: C_21  and  C_23
REMARK    6  A    between atoms: C_26  and  S_29
REMARK    7  A    between atoms: S_29  and  N_32
REMARK                            x       y       z     vdW  Elec       q    Type
REMARK                         _______ _______ _______ _____ _____    ______ ____
ROOT
ATOM      1  C   UNL     1      -1.088   5.992  -0.032  0.00  0.00    +0.138 C 
ENDROOT
BRANCH   1   2
ATOM      2  C   UNL     1       0.234   5.273   0.044  0.00  0.00    +0.026 A 
ATOM      3  C   UNL     1       0.272   3.870   0.116  0.00  0.00    -0.009 A 
ATOM      4  C   UNL     1      -0.910   3.109   0.118  0.00  0.00    +0.009 A 
ATOM      5  C   UNL     1      -0.836   1.751   0.183  0.00  0.00    +0.001 A 
ATOM      6  C   UNL     1       0.396   1.103   0.257  0.00  0.00    +0.001 A 
ATOM      7  C   UNL     1       1.560   1.808   0.257  0.00  0.00    +0.008 A 
ATOM      8  C   UNL     1       1.524   3.211   0.185  0.00  0.00    -0.017 A 
ATOM      9  C   UNL     1       2.707   3.971   0.182  0.00  0.00    +0.012 A 
ATOM     10  C   UNL     1       2.637   5.327   0.112  0.00  0.00    +0.046 A 
ATOM     11  C   UNL     1       1.402   5.980   0.043  0.00  0.00    +0.123 A 
BRANCH  11  12
ATOM     12  O   UNL     1       1.364   7.337  -0.026  0.00  0.00    -0.506 OA
ATOM     13  H   UNL     1       1.427   7.776   0.833  0.00  0.00    +0.292 HD
ENDBRANCH  11  12
ENDBRANCH   1   2
BRANCH   1  17
ATOM     14  C   UNL     1      -1.690   7.451  -4.001  0.00  0.00    +0.000 A 
ATOM     15  C   UNL     1      -2.309   6.284  -3.592  0.00  0.00    +0.000 A 
ATOM     16  C   UNL     1      -2.114   5.812  -2.307  0.00  0.00    +0.006 A 
ATOM     17  C   UNL     1      -1.300   6.507  -1.432  0.00  0.00    -0.023 A 
ATOM     18  C   UNL     1      -0.686   7.676  -1.839  0.00  0.00    +0.006 A 
ATOM     19  C   UNL     1      -0.877   8.146  -3.126  0.00  0.00    +0.000 A 
ENDBRANCH   1  17
BRANCH   1  20
ATOM     20  N   UNL     1      -1.086   7.117   0.907  0.00  0.00    -0.300 N 
ATOM     21  C   UNL     1      -2.244   7.546   1.447  0.00  0.00    +0.245 C 
ATOM     22  O   UNL     1      -3.290   7.000   1.155  0.00  0.00    -0.270 OA
ATOM     23  H   UNL     1      -0.251   7.553   1.139  0.00  0.00    +0.150 HD
BRANCH  21  24
ATOM     24  C   UNL     1      -2.242   8.682   2.394  0.00  0.00    +0.037 A 
ATOM     25  C   UNL     1      -1.042   9.307   2.735  0.00  0.00    +0.015 A 
ATOM     26  C   UNL     1      -1.047  10.370   3.616  0.00  0.00    +0.029 A 
ATOM     27  C   UNL     1      -2.238  10.808   4.168  0.00  0.00    +0.106 A 
ATOM     28  C   UNL     1      -3.430  10.188   3.838  0.00  0.00    +0.029 A 
ATOM     29  C   UNL     1      -3.439   9.129   2.955  0.00  0.00    +0.015 A 
BRANCH  27  30
ATOM     30  S   UNL     1      -2.235  12.160   5.298  0.00  0.00    +0.061 S 
ATOM     31  O   UNL     1      -1.064  12.917   5.022  0.00  0.00    -0.153 OA
ATOM     32  O   UNL     1      -3.537  12.728   5.254  0.00  0.00    -0.153 OA
BRANCH  30  33
ATOM     33  N   UNL     1      -2.045  11.530   6.817  0.00  0.00    -0.177 NA
ATOM     34  C   UNL     1      -3.132  11.118   7.716  0.00  0.00    +0.109 C 
ATOM     35  C   UNL     1      -2.482  10.618   9.023  0.00  0.00    +0.018 C 
ATOM     36  C   UNL     1      -1.094  11.311   9.005  0.00  0.00    +0.018 C 
ATOM     37  C   UNL     1      -0.756  11.293   7.494  0.00  0.00    +0.109 C 
ENDBRANCH  30  33
ENDBRANCH  27  30
ENDBRANCH  21  24
ENDBRANCH   1  20
TORSDOF 7
