REMARK  Name = ZINC12376778
REMARK  6 active torsions:
REMARK  status: ('A' for Active; 'I' for Inactive)
REMARK    1  A    between atoms: C_4  and  O_7
REMARK    2  A    between atoms: O_7  and  C_8
REMARK    3  A    between atoms: C_8  and  C_9
REMARK    4  A    between atoms: N_12  and  S_16
REMARK    5  A    between atoms: S_16  and  C_19
REMARK    6  A    between atoms: C_22  and  N_25
REMARK                            x       y       z     vdW  Elec       q    Type
REMARK                         _______ _______ _______ _____ _____    ______ ____
ROOT
ATOM      1  S   UNL     1      -0.538   0.457   3.745  0.00  0.00    +0.061 S 
ATOM      2  O   UNL     1      -1.686  -0.238   3.277  0.00  0.00    -0.153 OA
ATOM      3  O   UNL     1       0.539  -0.203   4.396  0.00  0.00    -0.153 OA
ENDROOT
BRANCH   1   6
ATOM      4  C   UNL     1      -0.013   1.086   0.008  0.00  0.00    +0.171 C 
ATOM      5  C   UNL     1      -0.725   1.581   1.272  0.00  0.00    +0.144 C 
ATOM      6  N   UNL     1       0.107   1.240   2.437  0.00  0.00    -0.172 NA
ATOM      7  C   UNL     1       1.530   1.616   2.405  0.00  0.00    +0.137 C 
ATOM      8  C   UNL     1       2.132   1.119   1.086  0.00  0.00    +0.177 C 
ATOM      9  O   UNL     1       1.328   1.582  -0.002  0.00  0.00    -0.371 OA
BRANCH   4  10
ATOM     10  C   UNL     1      -0.755   1.594  -1.230  0.00  0.00    +0.262 C 
BRANCH  10  11
ATOM     11  O   UNL     1      -0.158   1.039  -2.404  0.00  0.00    -0.489 OA
BRANCH  11  15
ATOM     12  C   UNL     1      -1.809   2.110  -6.029  0.00  0.00    +0.000 A 
ATOM     13  C   UNL     1      -0.727   1.250  -5.991  0.00  0.00    +0.004 A 
ATOM     14  C   UNL     1      -0.173   0.890  -4.778  0.00  0.00    +0.045 A 
ATOM     15  C   UNL     1      -0.702   1.392  -3.598  0.00  0.00    +0.121 A 
ATOM     16  C   UNL     1      -1.791   2.250  -3.639  0.00  0.00    +0.045 A 
ATOM     17  C   UNL     1      -2.339   2.612  -4.855  0.00  0.00    +0.004 A 
ENDBRANCH  11  15
ENDBRANCH  10  11
ENDBRANCH   4  10
ENDBRANCH   1   6
BRANCH   1  18
ATOM     18  C   UNL     1      -1.118   1.693   4.859  0.00  0.00    +0.106 A 
ATOM     19  C   UNL     1      -0.276   2.190   5.837  0.00  0.00    +0.030 A 
ATOM     20  C   UNL     1      -0.725   3.163   6.708  0.00  0.00    +0.028 A 
ATOM     21  C   UNL     1      -2.027   3.635   6.608  0.00  0.00    +0.056 A 
ATOM     22  C   UNL     1      -2.872   3.130   5.629  0.00  0.00    +0.028 A 
ATOM     23  C   UNL     1      -2.415   2.161   4.757  0.00  0.00    +0.030 A 
BRANCH  21  24
ATOM     24  N   UNL     1      -2.488   4.619   7.494  0.00  0.00    -0.212 N 
ATOM     25  C   UNL     1      -3.722   5.156   7.490  0.00  0.00    +0.352 A 
ATOM     26  O   UNL     1      -4.620   4.870   6.722  0.00  0.00    -0.244 OA
ATOM     27  N   UNL     1      -3.794   6.061   8.485  0.00  0.00    -0.230 N 
ATOM     28  N   UNL     1      -2.540   6.080   9.116  0.00  0.00    -0.230 N 
ATOM     29  C   UNL     1      -1.764   5.182   8.480  0.00  0.00    +0.352 A 
ATOM     30  O   UNL     1      -0.607   4.923   8.749  0.00  0.00    -0.244 OA
ATOM     31  C   UNL     1      -2.558   7.063  10.214  0.00  0.00    +0.149 C 
ATOM     32  C   UNL     1      -3.711   8.024   9.822  0.00  0.00    +0.047 C 
ATOM     33  C   UNL     1      -4.689   7.030   9.142  0.00  0.00    +0.149 C 
ENDBRANCH  21  24
ENDBRANCH   1  18
TORSDOF 6
