REMARK  Name = ZINC24071563
REMARK  5 active torsions:
REMARK  status: ('A' for Active; 'I' for Inactive)
REMARK    1  A    between atoms: C_4  and  C_7
REMARK    2  A    between atoms: C_18  and  C_20
REMARK    3  A    between atoms: C_20  and  N_21
REMARK    4  A    between atoms: N_24  and  S_27
REMARK    5  A    between atoms: S_27  and  C_30
REMARK                            x       y       z     vdW  Elec       q    Type
REMARK                         _______ _______ _______ _____ _____    ______ ____
ROOT
ATOM      1  C   UNL     1       1.118   0.056  -2.187  0.00  0.00    +0.149 C 
ATOM      2  C   UNL     1       2.371  -0.729  -2.603  0.00  0.00    +0.256 C 
ATOM      3  O   UNL     1       1.984  -2.057  -2.962  0.00  0.00    -0.488 OA
ATOM      4  C   UNL     1       1.187  -2.740  -2.099  0.00  0.00    +0.142 A 
ATOM      5  C   UNL     1       1.125  -4.124  -2.170  0.00  0.00    +0.047 A 
ATOM      6  C   UNL     1       0.315  -4.826  -1.298  0.00  0.00    +0.004 A 
ATOM      7  C   UNL     1      -0.438  -4.155  -0.352  0.00  0.00    +0.002 A 
ATOM      8  C   UNL     1      -0.381  -2.776  -0.272  0.00  0.00    +0.027 A 
ATOM      9  C   UNL     1       0.436  -2.068  -1.141  0.00  0.00    +0.079 A 
ATOM     10  N   UNL     1       0.494  -0.665  -1.064  0.00  0.00    -0.259 N 
ATOM     11  C   UNL     1       0.002  -0.004   0.002  0.00  0.00    +0.204 C 
ATOM     12  O   UNL     1      -0.411  -0.621   0.961  0.00  0.00    -0.277 OA
ENDROOT
BRANCH   1  16
ATOM     13  C   UNL     1      -1.614   0.276  -5.464  0.00  0.00    +0.000 A 
ATOM     14  C   UNL     1      -0.822   1.365  -5.149  0.00  0.00    +0.000 A 
ATOM     15  C   UNL     1       0.061   1.294  -4.089  0.00  0.00    +0.005 A 
ATOM     16  C   UNL     1       0.154   0.133  -3.343  0.00  0.00    -0.023 A 
ATOM     17  C   UNL     1      -0.633  -0.958  -3.661  0.00  0.00    +0.005 A 
ATOM     18  C   UNL     1      -1.520  -0.885  -4.719  0.00  0.00    +0.000 A 
ENDBRANCH   1  16
BRANCH  11  19
ATOM     19  C   UNL     1      -0.035   1.502   0.003  0.00  0.00    +0.019 C 
BRANCH  19  20
ATOM     20  N   UNL     1      -0.743   1.974   1.201  0.00  0.00    +0.387 N 
ATOM     21  C   UNL     1      -2.158   1.582   1.165  0.00  0.00    -0.061 C 
ATOM     22  C   UNL     1      -2.815   1.931   2.505  0.00  0.00    +0.091 C 
ATOM     23  N   UNL     1      -2.571   3.353   2.788  0.00  0.00    -0.180 NA
ATOM     24  C   UNL     1      -1.189   3.852   2.708  0.00  0.00    +0.091 C 
ATOM     25  C   UNL     1      -0.596   3.427   1.361  0.00  0.00    -0.061 C 
ATOM     26  H   UNL     1      -0.284   1.493   2.077  0.00  0.00    -0.081 HD
BRANCH  23  27
ATOM     27  S   UNL     1      -3.818   4.367   3.187  0.00  0.00    +0.061 S 
ATOM     28  O   UNL     1      -4.852   3.549   3.718  0.00  0.00    -0.153 OA
ATOM     29  O   UNL     1      -3.248   5.444   3.918  0.00  0.00    -0.153 OA
BRANCH  27  30
ATOM     30  C   UNL     1      -4.436   5.049   1.685  0.00  0.00    +0.106 A 
ATOM     31  C   UNL     1      -3.911   6.230   1.195  0.00  0.00    +0.031 A 
ATOM     32  C   UNL     1      -4.391   6.764   0.014  0.00  0.00    +0.040 A 
ATOM     33  C   UNL     1      -5.406   6.120  -0.673  0.00  0.00    +0.124 A 
ATOM     34  C   UNL     1      -5.935   4.939  -0.179  0.00  0.00    +0.040 A 
ATOM     35  C   UNL     1      -5.449   4.405   0.999  0.00  0.00    +0.031 A 
ATOM     36  F   UNL     1      -5.880   6.643  -1.825  0.00  0.00    -0.205 F 
ENDBRANCH  27  30
ENDBRANCH  23  27
ENDBRANCH  19  20
ENDBRANCH  11  19
TORSDOF 5
