REMARK  Name = ZINC34899482
REMARK  10 active torsions:
REMARK  status: ('A' for Active; 'I' for Inactive)
REMARK    1  A    between atoms: C_1  and  C_2
REMARK    2  A    between atoms: C_2  and  C_3
REMARK    3  A    between atoms: C_3  and  C_4
REMARK    4  A    between atoms: C_4  and  O_5
REMARK    5  A    between atoms: O_5  and  C_6
REMARK    6  A    between atoms: C_9  and  C_12
REMARK    7  A    between atoms: C_18  and  C_21
REMARK    8  A    between atoms: N_23  and  C_24
REMARK    9  A    between atoms: C_30  and  N_32
REMARK   10  A    between atoms: C_33  and  C_35
REMARK                            x       y       z     vdW  Elec       q    Type
REMARK                         _______ _______ _______ _____ _____    ______ ____
ROOT
ATOM      1  C   UNL     1       1.877 -11.735  -6.167  0.00  0.00    +0.218 C 
ATOM      2  O   UNL     1       2.476 -12.086  -7.160  0.00  0.00    -0.275 OA
ATOM      3  N   UNL     1       1.325 -12.655  -5.351  0.00  0.00    -0.310 N 
ATOM      4  H   UNL     1       0.845 -12.373  -4.556  0.00  0.00    +0.149 HD
ENDROOT
BRANCH   1  11
ATOM      5  C   UNL     1       1.844  -8.035  -3.111  0.00  0.00    +0.247 C 
ATOM      6  O   UNL     1       1.438  -8.785  -2.245  0.00  0.00    -0.270 OA
ATOM      7  N   UNL     1       2.377  -8.537  -4.242  0.00  0.00    -0.297 N 
ATOM      8  C   UNL     1       2.953  -7.646  -5.258  0.00  0.00    +0.108 C 
ATOM      9  C   UNL     1       2.302  -7.954  -6.610  0.00  0.00    +0.020 C 
ATOM     10  C   UNL     1       2.459  -9.444  -6.920  0.00  0.00    +0.016 C 
ATOM     11  C   UNL     1       1.750 -10.268  -5.843  0.00  0.00    +0.092 C 
ATOM     12  C   UNL     1       2.400  -9.987  -4.480  0.00  0.00    +0.120 C 
BRANCH   5  16
ATOM     13  C   UNL     1       1.582  -3.830  -2.572  0.00  0.00    +0.121 A 
ATOM     14  C   UNL     1       2.792  -4.408  -2.939  0.00  0.00    +0.046 A 
ATOM     15  C   UNL     1       2.881  -5.771  -3.115  0.00  0.00    +0.016 A 
ATOM     16  C   UNL     1       1.753  -6.573  -2.923  0.00  0.00    +0.037 A 
ATOM     17  C   UNL     1       0.539  -5.989  -2.554  0.00  0.00    +0.016 A 
ATOM     18  C   UNL     1       0.459  -4.626  -2.376  0.00  0.00    +0.046 A 
BRANCH  13  19
ATOM     19  O   UNL     1       1.498  -2.487  -2.401  0.00  0.00    -0.492 OA
BRANCH  19  20
ATOM     20  C   UNL     1       2.690  -1.729  -2.619  0.00  0.00    +0.229 C 
BRANCH  20  21
ATOM     21  C   UNL     1       2.403  -0.246  -2.379  0.00  0.00    +0.041 C 
BRANCH  21  23
ATOM     22  C   UNL     1       3.391   2.049  -2.374  0.00  0.00    +0.004 C 
ATOM     23  C   UNL     1       3.679   0.565  -2.614  0.00  0.00    -0.000 C 
ENDBRANCH  21  23
ENDBRANCH  20  21
ENDBRANCH  19  20
ENDBRANCH  13  19
ENDBRANCH   5  16
ENDBRANCH   1  11
BRANCH   3  24
ATOM     24  C   UNL     1       1.448 -14.080  -5.666  0.00  0.00    +0.093 C 
ATOM     25  C   UNL     1       0.337 -14.487  -6.636  0.00  0.00    +0.024 C 
ATOM     26  C   UNL     1       0.466 -15.976  -6.964  0.00  0.00    +0.002 C 
ATOM     27  C   UNL     1       0.344 -16.794  -5.677  0.00  0.00    +0.002 C 
ATOM     28  C   UNL     1       1.455 -16.388  -4.707  0.00  0.00    +0.024 C 
ATOM     29  C   UNL     1       1.326 -14.899  -4.379  0.00  0.00    +0.093 C 
BRANCH  29  30
ATOM     30  N   UNL     1       2.390 -14.510  -3.450  0.00  0.00    -0.307 N 
ATOM     31  C   UNL     1       2.225 -14.684  -2.124  0.00  0.00    +0.244 C 
ATOM     32  O   UNL     1       1.192 -15.165  -1.699  0.00  0.00    -0.270 OA
ATOM     33  H   UNL     1       3.214 -14.126  -3.789  0.00  0.00    +0.149 HD
BRANCH  31  34
ATOM     34  C   UNL     1       3.299 -14.292  -1.187  0.00  0.00    +0.037 A 
ATOM     35  C   UNL     1       4.483 -13.734  -1.671  0.00  0.00    +0.013 A 
ATOM     36  C   UNL     1       5.481 -13.370  -0.791  0.00  0.00    +0.001 A 
ATOM     37  C   UNL     1       5.310 -13.556   0.569  0.00  0.00    +0.000 A 
ATOM     38  C   UNL     1       4.138 -14.108   1.056  0.00  0.00    +0.001 A 
ATOM     39  C   UNL     1       3.130 -14.471   0.187  0.00  0.00    +0.013 A 
ENDBRANCH  31  34
ENDBRANCH  29  30
ENDBRANCH   3  24
TORSDOF 9
