REMARK  Name = ZINC24764045
REMARK  4 active torsions:
REMARK  status: ('A' for Active; 'I' for Inactive)
REMARK    1  A    between atoms: C_4  and  N_29
REMARK    2  A    between atoms: C_5  and  N_7
REMARK    3  A    between atoms: C_13  and  C_15
REMARK    4  A    between atoms: C_15  and  N_16
REMARK                            x       y       z     vdW  Elec       q    Type
REMARK                         _______ _______ _______ _____ _____    ______ ____
ROOT
ATOM      1  N   UNL     1      -0.895   3.043   1.186  0.00  0.00    -0.325 N 
ATOM      2  C   UNL     1      -0.738   1.584   1.263  0.00  0.00    +0.124 C 
ATOM      3  C   UNL     1      -0.013   1.086   0.008  0.00  0.00    +0.126 C 
ATOM      4  N   UNL     1      -0.732   1.577  -1.178  0.00  0.00    -0.297 N 
ATOM      5  C   UNL     1      -1.043   3.012  -1.258  0.00  0.00    +0.126 C 
ATOM      6  C   UNL     1      -1.732   3.434   0.044  0.00  0.00    +0.124 C 
ATOM      7  C   UNL     1      -1.095   0.734  -2.164  0.00  0.00    +0.236 C 
ATOM      8  O   UNL     1      -0.829  -0.447  -2.082  0.00  0.00    -0.274 OA
ENDROOT
BRANCH   1  13
ATOM      9  C   UNL     1      -3.190   3.709   3.978  0.00  0.00    +0.002 A 
ATOM     10  C   UNL     1      -2.424   4.566   4.747  0.00  0.00    +0.002 A 
ATOM     11  C   UNL     1      -1.151   4.917   4.337  0.00  0.00    +0.034 A 
ATOM     12  C   UNL     1      -0.641   4.414   3.156  0.00  0.00    +0.147 A 
ATOM     13  C   UNL     1      -1.407   3.554   2.381  0.00  0.00    +0.060 A 
ATOM     14  C   UNL     1      -2.688   3.207   2.794  0.00  0.00    +0.025 A 
BRANCH  12  15
ATOM     15  N   UNL     1       0.721   4.792   2.717  0.00  0.00    +0.058 N 
ATOM     16  O   UNL     1       1.393   5.546   3.397  0.00  0.00    -0.126 OA
ATOM     17  O   UNL     1       1.170   4.348   1.675  0.00  0.00    -0.126 OA
ENDBRANCH  12  15
ENDBRANCH   1  13
BRANCH   7  18
ATOM     18  C   UNL     1      -1.831   1.258  -3.371  0.00  0.00    +0.222 C 
BRANCH  18  19
ATOM     19  N   UNL     1      -2.110   0.153  -4.291  0.00  0.00    -0.290 N 
ATOM     20  C   UNL     1      -1.206  -0.151  -5.258  0.00  0.00    +0.203 A 
ATOM     21  N   UNL     1      -1.415  -1.131  -6.096  0.00  0.00    -0.230 NA
ATOM     22  C   UNL     1      -2.529  -1.857  -6.032  0.00  0.00    +0.116 A 
ATOM     23  C   UNL     1      -3.519  -1.614  -5.072  0.00  0.00    +0.076 A 
ATOM     24  C   UNL     1      -3.259  -0.537  -4.165  0.00  0.00    +0.263 A 
ATOM     25  O   UNL     1      -4.063  -0.250  -3.294  0.00  0.00    -0.267 OA
ATOM     26  C   UNL     1      -4.696  -2.496  -5.119  0.00  0.00    -0.023 A 
ATOM     27  C   UNL     1      -4.709  -3.441  -6.074  0.00  0.00    -0.004 A 
ATOM     28  S   UNL     1      -3.179  -3.225  -6.955  0.00  0.00    -0.073 S 
ATOM     29  C   UNL     1      -5.959  -4.277  -6.029  0.00  0.00    +0.043 C 
ATOM     30  C   UNL     1      -6.946  -3.453  -5.174  0.00  0.00    +0.010 C 
ATOM     31  C   UNL     1      -5.986  -2.619  -4.303  0.00  0.00    +0.037 C 
ENDBRANCH  18  19
ENDBRANCH   7  18
TORSDOF 4
