REMARK  Name = ZINC02851746
REMARK  11 active torsions:
REMARK  status: ('A' for Active; 'I' for Inactive)
REMARK    1  A    between atoms: C_1  and  C_2
REMARK    2  A    between atoms: C_2  and  C_3
REMARK    3  A    between atoms: C_3  and  C_4
REMARK    4  A    between atoms: C_4  and  N_5
REMARK    5  A    between atoms: C_6  and  C_8
REMARK    6  A    between atoms: C_13  and  N_14
REMARK    7  A    between atoms: C_15  and  C_17
REMARK    8  A    between atoms: C_17  and  N_18
REMARK    9  A    between atoms: N_18  and  C_19
REMARK   10  A    between atoms: N_18  and  S_26
REMARK   11  A    between atoms: S_26  and  C_29
REMARK                            x       y       z     vdW  Elec       q    Type
REMARK                         _______ _______ _______ _____ _____    ______ ____
ROOT
ATOM      1  N   UNL     1      -1.577  -0.658   3.499  0.00  0.00    -0.283 N 
ATOM      2  C   UNL     1      -1.036  -0.204   2.352  0.00  0.00    +0.236 C 
ATOM      3  O   UNL     1       0.102  -0.505   2.057  0.00  0.00    -0.274 OA
ATOM      4  H   UNL     1      -2.509  -0.477   3.701  0.00  0.00    +0.155 HD
ENDROOT
BRANCH   1  10
ATOM      5  C   UNL     1      -1.402  -2.316   5.258  0.00  0.00    +0.058 A 
ATOM      6  C   UNL     1      -0.611  -3.042   6.151  0.00  0.00    +0.015 A 
ATOM      7  C   UNL     1       0.752  -2.843   6.180  0.00  0.00    +0.001 A 
ATOM      8  C   UNL     1       1.344  -1.926   5.327  0.00  0.00    +0.002 A 
ATOM      9  C   UNL     1       0.576  -1.205   4.435  0.00  0.00    +0.024 A 
ATOM     10  C   UNL     1      -0.800  -1.388   4.395  0.00  0.00    +0.046 A 
BRANCH   5  12
ATOM     11  N   UNL     1      -3.450  -3.332   6.125  0.00  0.00    -0.311 N 
ATOM     12  C   UNL     1      -2.862  -2.524   5.221  0.00  0.00    +0.246 C 
ATOM     13  O   UNL     1      -3.535  -1.966   4.375  0.00  0.00    -0.270 OA
ATOM     14  H   UNL     1      -2.914  -3.777   6.799  0.00  0.00    +0.149 HD
BRANCH  11  15
ATOM     15  C   UNL     1      -4.900  -3.539   6.088  0.00  0.00    +0.104 C 
BRANCH  15  16
ATOM     16  C   UNL     1      -5.308  -4.493   7.213  0.00  0.00    +0.018 C 
BRANCH  16  18
ATOM     17  C   UNL     1      -7.230  -5.662   8.300  0.00  0.00    +0.004 C 
ATOM     18  C   UNL     1      -6.822  -4.708   7.175  0.00  0.00    -0.002 C 
ENDBRANCH  16  18
ENDBRANCH  15  16
ENDBRANCH  11  15
ENDBRANCH   5  12
ENDBRANCH   1  10
BRANCH   2  19
ATOM     19  C   UNL     1      -1.843   0.678   1.435  0.00  0.00    +0.227 C 
BRANCH  19  20
ATOM     20  N   UNL     1      -1.037   1.034   0.265  0.00  0.00    -0.199 N 
BRANCH  20  21
ATOM     21  C   UNL     1      -0.164   2.123   0.324  0.00  0.00    +0.052 A 
ATOM     22  C   UNL     1       1.192   1.942   0.080  0.00  0.00    +0.025 A 
ATOM     23  C   UNL     1       2.052   3.022   0.135  0.00  0.00    +0.003 A 
ATOM     24  C   UNL     1       1.567   4.280   0.442  0.00  0.00    +0.015 A 
ATOM     25  C   UNL     1       0.218   4.463   0.690  0.00  0.00    +0.020 A 
ATOM     26  C   UNL     1      -0.649   3.388   0.632  0.00  0.00    +0.040 A 
ATOM     27 BR   UNL     1      -0.440   6.185   1.110  0.00  0.00    -0.050 Br
ENDBRANCH  20  21
BRANCH  20  28
ATOM     28  S   UNL     1      -1.160   0.146  -1.128  0.00  0.00    +0.043 S 
ATOM     29  O   UNL     1      -1.494  -1.165  -0.693  0.00  0.00    -0.155 OA
ATOM     30  O   UNL     1       0.055   0.392  -1.823  0.00  0.00    -0.155 OA
ATOM     31  C   UNL     1      -2.554   0.880  -2.027  0.00  0.00    +0.218 C 
ENDBRANCH  20  28
ENDBRANCH  19  20
ENDBRANCH   2  19
TORSDOF 9
