REMARK  Name = ZINC36525527
REMARK  13 active torsions:
REMARK  status: ('A' for Active; 'I' for Inactive)
REMARK    1  A    between atoms: C_1  and  C_2
REMARK    2  A    between atoms: C_5  and  S_8
REMARK    3  A    between atoms: S_8  and  C_11
REMARK    4  A    between atoms: C_11  and  N_12
REMARK    5  A    between atoms: C_13  and  C_15
REMARK    6  A    between atoms: C_15  and  C_17
REMARK    7  A    between atoms: C_15  and  N_24
REMARK    8  A    between atoms: C_20  and  O_23
REMARK    9  A    between atoms: N_24  and  C_25
REMARK   10  A    between atoms: C_26  and  C_28
REMARK   11  A    between atoms: C_36  and  C_38
REMARK   12  A    between atoms: C_39  and  C_40
REMARK   13  A    between atoms: C_39  and  C_41
REMARK                            x       y       z     vdW  Elec       q    Type
REMARK                         _______ _______ _______ _____ _____    ______ ____
ROOT
ATOM      1  C   UNL     1       3.269  -5.803   3.229  0.00  0.00    +0.192 C 
ENDROOT
BRANCH   1   2
ATOM      2  C   UNL     1       2.006  -5.184   2.688  0.00  0.00    -0.018 A 
ATOM      3  C   UNL     1       2.011  -3.869   2.260  0.00  0.00    +0.009 A 
ATOM      4  C   UNL     1       0.855  -3.299   1.764  0.00  0.00    +0.046 A 
ATOM      5  C   UNL     1      -0.312  -4.047   1.695  0.00  0.00    +0.117 A 
ATOM      6  C   UNL     1      -0.314  -5.366   2.126  0.00  0.00    +0.046 A 
ATOM      7  C   UNL     1       0.847  -5.933   2.616  0.00  0.00    +0.009 A 
BRANCH   5   8
ATOM      8  O   UNL     1      -1.451  -3.488   1.208  0.00  0.00    -0.507 OA
ATOM      9  H   UNL     1      -1.562  -3.592   0.253  0.00  0.00    +0.292 HD
ENDBRANCH   5   8
ENDBRANCH   1   2
BRANCH   1  11
ATOM     10  N   UNL     1       3.960  -6.734   1.044  0.00  0.00    -0.294 N 
ATOM     11  C   UNL     1       3.685  -6.951   2.345  0.00  0.00    +0.239 C 
ATOM     12  O   UNL     1       3.771  -8.070   2.805  0.00  0.00    -0.273 OA
ATOM     13  H   UNL     1       3.891  -5.839   0.677  0.00  0.00    +0.150 HD
BRANCH  10  14
ATOM     14  C   UNL     1       4.364  -7.849   0.185  0.00  0.00    +0.278 C 
BRANCH  14  15
ATOM     15  S   UNL     1       2.910  -8.504  -0.679  0.00  0.00    +0.013 S 
ATOM     16  O   UNL     1       1.839  -8.690   0.236  0.00  0.00    -0.168 OA
ATOM     17  O   UNL     1       3.295  -9.546  -1.565  0.00  0.00    -0.168 OA
BRANCH  15  22
ATOM     18  C   UNL     1       1.092  -4.018  -4.281  0.00  0.00    +0.044 C 
ATOM     19  C   UNL     1       1.546  -5.138  -3.381  0.00  0.00    -0.050 A 
ATOM     20  C   UNL     1       2.461  -6.066  -3.842  0.00  0.00    +0.005 A 
ATOM     21  C   UNL     1       2.878  -7.094  -3.017  0.00  0.00    +0.027 A 
ATOM     22  C   UNL     1       2.380  -7.193  -1.731  0.00  0.00    +0.090 A 
ATOM     23  C   UNL     1       1.466  -6.264  -1.270  0.00  0.00    +0.027 A 
ATOM     24  C   UNL     1       1.052  -5.234  -2.094  0.00  0.00    +0.005 A 
ENDBRANCH  15  22
ENDBRANCH  14  15
ENDBRANCH  10  14
ENDBRANCH   1  11
BRANCH   1  25
ATOM     25  N   UNL     1       3.028  -6.296   4.588  0.00  0.00    -0.289 N 
ATOM     26  C   UNL     1       2.094  -7.402   4.811  0.00  0.00    +0.133 C 
ATOM     27  C   UNL     1       3.666  -5.731   5.633  0.00  0.00    +0.220 C 
ATOM     28  O   UNL     1       4.499  -4.871   5.441  0.00  0.00    -0.275 OA
BRANCH  27  29
ATOM     29  C   UNL     1       3.342  -6.173   7.049  0.00  0.00    +0.079 C 
ATOM     30  C   UNL     1       2.042  -5.504   7.483  0.00  0.00    +0.017 C 
ATOM     31  C   UNL     1       2.047  -5.107   8.959  0.00  0.00    -0.004 C 
ATOM     32  C   UNL     1       3.200  -4.126   9.268  0.00  0.00    +0.008 C 
ATOM     33  C   UNL     1       4.061  -5.411   9.356  0.00  0.00    -0.001 C 
ATOM     34  C   UNL     1       4.514  -5.815   7.954  0.00  0.00    +0.001 C 
ATOM     35  C   UNL     1       5.519  -6.970   8.019  0.00  0.00    +0.008 C 
ATOM     36  C   UNL     1       2.791  -6.092   9.870  0.00  0.00    -0.029 C 
ATOM     37  C   UNL     1       2.609  -7.568   9.533  0.00  0.00    +0.011 C 
ATOM     38  C   UNL     1       2.531  -5.837  11.368  0.00  0.00    +0.011 C 
ENDBRANCH  27  29
ENDBRANCH   1  25
TORSDOF 8
