REMARK  Name = ZINC14944160
REMARK  8 active torsions:
REMARK  status: ('A' for Active; 'I' for Inactive)
REMARK    1  A    between atoms: C_1  and  C_2
REMARK    2  A    between atoms: C_2  and  O_3
REMARK    3  A    between atoms: O_3  and  C_4
REMARK    4  A    between atoms: C_4  and  C_6
REMARK    5  A    between atoms: C_6  and  N_7
REMARK    6  A    between atoms: C_21  and  C_24
REMARK    7  A    between atoms: C_24  and  C_25
REMARK    8  A    between atoms: N_33  and  C_36
REMARK                            x       y       z     vdW  Elec       q    Type
REMARK                         _______ _______ _______ _____ _____    ______ ____
ROOT
ATOM      1  N   UNL     1       1.450  -3.817  -2.491  0.00  0.00    -0.259 N 
ATOM      2  C   UNL     1       2.447  -4.585  -1.885  0.00  0.00    +0.042 A 
ATOM      3  C   UNL     1       3.618  -4.207  -1.233  0.00  0.00    +0.024 A 
ATOM      4  C   UNL     1       4.460  -5.163  -0.706  0.00  0.00    +0.002 A 
ATOM      5  C   UNL     1       4.149  -6.506  -0.820  0.00  0.00    +0.000 A 
ATOM      6  C   UNL     1       2.987  -6.891  -1.466  0.00  0.00    +0.008 A 
ATOM      7  C   UNL     1       2.144  -5.940  -1.994  0.00  0.00    +0.004 A 
ATOM      8  C   UNL     1       0.842  -6.009  -2.738  0.00  0.00    +0.136 C 
ATOM      9  C   UNL     1       0.467  -4.579  -3.011  0.00  0.00    +0.246 C 
ATOM     10  O   UNL     1      -0.525  -4.187  -3.588  0.00  0.00    -0.273 OA
ATOM     11  C   UNL     1      -0.232  -6.758  -1.977  0.00  0.00    +0.123 C 
ATOM     12  C   UNL     1      -1.198  -7.003  -3.201  0.00  0.00    +0.108 C 
ATOM     13  C   UNL     1      -0.304  -7.499  -4.255  0.00  0.00    +0.072 C 
ATOM     14  N   UNL     1       0.997  -6.771  -4.008  0.00  0.00    -0.295 NA
ATOM     15  C   UNL     1      -2.433  -7.353  -2.542  0.00  0.00    +0.232 C 
ATOM     16  O   UNL     1      -3.279  -8.132  -2.924  0.00  0.00    -0.274 OA
ATOM     17  N   UNL     1      -2.440  -6.610  -1.387  0.00  0.00    -0.210 N 
ATOM     18  C   UNL     1      -1.215  -6.045  -1.101  0.00  0.00    +0.233 C 
ATOM     19  O   UNL     1      -0.977  -5.156  -0.311  0.00  0.00    -0.274 OA
ATOM     20  H   UNL     1       1.226  -6.155  -4.774  0.00  0.00    +0.124 HD
ENDROOT
BRANCH  17  21
ATOM     21  C   UNL     1      -3.572  -6.449  -0.575  0.00  0.00    +0.044 A 
ATOM     22  C   UNL     1      -3.498  -5.675   0.575  0.00  0.00    +0.024 A 
ATOM     23  C   UNL     1      -4.614  -5.518   1.373  0.00  0.00    +0.002 A 
ATOM     24  C   UNL     1      -5.804  -6.132   1.028  0.00  0.00    +0.000 A 
ATOM     25  C   UNL     1      -5.881  -6.903  -0.117  0.00  0.00    +0.002 A 
ATOM     26  C   UNL     1      -4.770  -7.059  -0.922  0.00  0.00    +0.024 A 
ENDBRANCH  17  21
BRANCH   1  27
ATOM     27  C   UNL     1       1.468  -2.353  -2.550  0.00  0.00    +0.234 C 
BRANCH  27  28
ATOM     28  C   UNL     1       0.775  -1.794  -1.334  0.00  0.00    +0.325 C 
ATOM     29  O   UNL     1       0.314  -2.540  -0.504  0.00  0.00    -0.249 OA
BRANCH  28  30
ATOM     30  O   UNL     1       0.671  -0.465  -1.174  0.00  0.00    -0.464 OA
BRANCH  30  32
ATOM     31  C   UNL     1      -0.019   1.526   0.010  0.00  0.00    +0.048 C 
ATOM     32  C   UNL     1       0.002  -0.004   0.002  0.00  0.00    +0.229 C 
ENDBRANCH  30  32
ENDBRANCH  28  30
ENDBRANCH  27  28
ENDBRANCH   1  27
BRANCH  13  33
ATOM     33  C   UNL     1      -0.128  -9.014  -4.137  0.00  0.00    +0.054 C 
BRANCH  33  34
ATOM     34  C   UNL     1       0.691  -9.517  -5.298  0.00  0.00    -0.046 A 
ATOM     35  C   UNL     1       0.066  -9.908  -6.467  0.00  0.00    +0.004 A 
ATOM     36  C   UNL     1       0.817 -10.369  -7.531  0.00  0.00    +0.000 A 
ATOM     37  C   UNL     1       2.194 -10.439  -7.427  0.00  0.00    +0.000 A 
ATOM     38  C   UNL     1       2.819 -10.046  -6.259  0.00  0.00    +0.000 A 
ATOM     39  C   UNL     1       2.068  -9.581  -5.195  0.00  0.00    +0.004 A 
ENDBRANCH  33  34
ENDBRANCH  13  33
TORSDOF 7
