REMARK  Name = ZINC43548247
REMARK  9 active torsions:
REMARK  status: ('A' for Active; 'I' for Inactive)
REMARK    1  A    between atoms: C_1  and  C_2
REMARK    2  A    between atoms: N_9  and  C_10
REMARK    3  A    between atoms: C_10  and  C_11
REMARK    4  A    between atoms: C_14  and  C_36
REMARK    5  A    between atoms: C_17  and  O_35
REMARK    6  A    between atoms: C_19  and  C_23
REMARK    7  A    between atoms: C_23  and  C_25
REMARK    8  A    between atoms: C_23  and  C_26
REMARK    9  A    between atoms: N_31  and  C_34
REMARK                            x       y       z     vdW  Elec       q    Type
REMARK                         _______ _______ _______ _____ _____    ______ ____
ROOT
ATOM      1  C   UNL     1       0.961   2.517   0.843  0.00  0.00    +0.014 C 
ATOM      2  C   UNL     1       0.521   1.052   0.892  0.00  0.00    +0.039 C 
ATOM      3  C   UNL     1      -0.907   0.967   1.404  0.00  0.00    +0.031 A 
ATOM      4  C   UNL     1      -1.272  -0.005   2.277  0.00  0.00    +0.013 A 
ATOM      5  S   UNL     1      -2.989   0.336   2.543  0.00  0.00    -0.059 S 
ATOM      6  C   UNL     1      -3.106   1.679   1.531  0.00  0.00    +0.137 A 
ATOM      7  N   UNL     1      -1.885   1.802   1.056  0.00  0.00    -0.340 N 
ATOM      8  N   UNL     1      -4.217   2.463   1.264  0.00  0.00    -0.321 N 
ATOM      9  C   UNL     1      -0.412  -1.077   2.852  0.00  0.00    +0.051 C 
ATOM     10  C   UNL     1       0.896  -1.141   2.059  0.00  0.00    -0.022 C 
ATOM     11  C   UNL     1       1.445   0.272   1.834  0.00  0.00    +0.033 C 
ATOM     12  C   UNL     1       2.816   0.139   1.151  0.00  0.00    +0.123 C 
ATOM     13  C   UNL     1       2.623  -0.535  -0.209  0.00  0.00    +0.029 C 
ATOM     14  C   UNL     1       2.017  -1.926  -0.022  0.00  0.00    +0.007 C 
ATOM     15  C   UNL     1       0.674  -1.813   0.706  0.00  0.00    +0.008 C 
ATOM     16  C   UNL     1       1.929  -1.941   2.856  0.00  0.00    +0.012 C 
ATOM     17  H   UNL     1      -4.146   3.214   0.655  0.00  0.00    +0.148 HD
ATOM     18  H   UNL     1      -1.692   2.521   0.435  0.00  0.00    +0.167 HD
ENDROOT
BRANCH  13  19
ATOM     19  C   UNL     1       3.978  -0.665  -0.908  0.00  0.00    +0.078 C 
ATOM     20  C   UNL     1       3.810  -1.464  -2.202  0.00  0.00    +0.017 C 
BRANCH  19  21
ATOM     21  C   UNL     1       4.947  -1.377   0.000  0.00  0.00    +0.219 C 
ATOM     22  O   UNL     1       4.532  -2.097   0.883  0.00  0.00    -0.275 OA
ATOM     23  N   UNL     1       6.274  -1.213  -0.168  0.00  0.00    -0.299 N 
ATOM     24  C   UNL     1       6.797  -0.257  -1.156  0.00  0.00    +0.123 C 
ATOM     25  C   UNL     1       7.821   0.648  -0.463  0.00  0.00    +0.103 C 
ATOM     26  N   UNL     1       8.837  -0.183   0.197  0.00  0.00    -0.302 NA
ATOM     27  C   UNL     1       8.244  -1.012   1.254  0.00  0.00    +0.103 C 
ATOM     28  C   UNL     1       7.237  -1.981   0.635  0.00  0.00    +0.123 C 
ATOM     29  C   UNL     1       9.930   0.644   0.726  0.00  0.00    +0.105 C 
ENDBRANCH  19  21
ENDBRANCH  13  19
BRANCH  12  30
ATOM     30  O   UNL     1       3.389   1.435   0.970  0.00  0.00    -0.391 OA
ATOM     31  H   UNL     1       4.251   1.427   0.531  0.00  0.00    +0.210 HD
ENDBRANCH  12  30
BRANCH   8  32
ATOM     32  C   UNL     1      -5.500   2.157   1.902  0.00  0.00    +0.130 C 
BRANCH  32  33
ATOM     33  C   UNL     1      -6.537   3.151   1.448  0.00  0.00    -0.016 C 
ATOM     34  C   UNL     1      -7.655   2.732   0.909  0.00  0.00    +0.005 C 
ENDBRANCH  32  33
ENDBRANCH   8  32
TORSDOF 5
