REMARK  Name = ZINC64502519
REMARK  7 active torsions:
REMARK  status: ('A' for Active; 'I' for Inactive)
REMARK    1  A    between atoms: C_3  and  C_20
REMARK    2  A    between atoms: C_5  and  N_7
REMARK    3  A    between atoms: C_8  and  C_10
REMARK    4  A    between atoms: C_14  and  C_17
REMARK    5  A    between atoms: N_22  and  C_23
REMARK    6  A    between atoms: C_23  and  C_24
REMARK    7  A    between atoms: C_24  and  C_25
REMARK                            x       y       z     vdW  Elec       q    Type
REMARK                         _______ _______ _______ _____ _____    ______ ____
ROOT
ATOM      1  C   UNL     1       0.004   1.380   0.175  0.00  0.00    +0.003 A 
ATOM      2  C   UNL     1       1.174   2.089  -0.011  0.00  0.00    +0.013 A 
ATOM      3  C   UNL     1       2.378   1.410  -0.203  0.00  0.00    +0.038 A 
ATOM      4  C   UNL     1       2.395   0.015  -0.206  0.00  0.00    +0.036 A 
ATOM      5  C   UNL     1       1.215  -0.687  -0.018  0.00  0.00    +0.034 A 
ATOM      6  C   UNL     1       0.021  -0.002   0.172  0.00  0.00    +0.023 A 
ENDROOT
BRANCH   5   7
ATOM      7  N   UNL     1       1.226  -2.087  -0.021  0.00  0.00    -0.283 N 
ATOM      8  C   UNL     1       2.295  -2.753   0.459  0.00  0.00    +0.254 C 
ATOM      9  O   UNL     1       3.205  -2.144   0.980  0.00  0.00    -0.272 OA
ATOM     10  H   UNL     1       0.464  -2.577  -0.367  0.00  0.00    +0.155 HD
BRANCH   8  11
ATOM     11  C   UNL     1       2.359  -4.255   0.348  0.00  0.00    +0.272 C 
ATOM     12  N   UNL     1       1.472  -4.907   1.339  0.00  0.00    -0.167 NA
ATOM     13  N   UNL     1       1.882  -5.813   2.037  0.00  0.00    -0.176 NA
ATOM     14  C   UNL     1       3.279  -6.288   1.915  0.00  0.00    +0.190 C 
ATOM     15  S   UNL     1       3.993  -4.903   0.919  0.00  0.00    -0.095 S 
BRANCH  14  16
ATOM     16  C   UNL     1       3.952  -6.397   3.284  0.00  0.00    +0.026 C 
ATOM     17  C   UNL     1       4.671  -7.707   3.616  0.00  0.00    +0.007 C 
ATOM     18  C   UNL     1       3.342  -7.370   4.296  0.00  0.00    +0.007 C 
ENDBRANCH  14  16
ENDBRANCH   8  11
ENDBRANCH   5   7
BRANCH   3  19
ATOM     19  C   UNL     1       3.633   2.167  -0.402  0.00  0.00    +0.244 C 
ATOM     20  O   UNL     1       4.680   1.574  -0.569  0.00  0.00    -0.270 OA
ATOM     21  N   UNL     1       3.614   3.515  -0.399  0.00  0.00    -0.311 N 
ATOM     22  H   UNL     1       2.778   3.988  -0.266  0.00  0.00    +0.149 HD
BRANCH  21  23
ATOM     23  C   UNL     1       4.857   4.265  -0.597  0.00  0.00    +0.109 C 
BRANCH  23  24
ATOM     24  C   UNL     1       4.560   5.765  -0.550  0.00  0.00    +0.052 C 
BRANCH  24  25
ATOM     25  C   UNL     1       5.839   6.537  -0.753  0.00  0.00    -0.040 C 
ATOM     26  C   UNL     1       6.309   7.039  -1.918  0.00  0.00    +0.000 A 
ATOM     27  C   UNL     1       5.791   7.017  -3.291  0.00  0.00    +0.030 A 
ATOM     28  C   UNL     1       6.504   7.619  -4.271  0.00  0.00    +0.042 A 
ATOM     29  C   UNL     1       7.722   8.262  -4.007  0.00  0.00    +0.022 A 
ATOM     30  C   UNL     1       8.261   8.324  -2.771  0.00  0.00    +0.027 A 
ATOM     31  C   UNL     1       7.597   7.724  -1.666  0.00  0.00    +0.043 A 
ATOM     32  N   UNL     1       7.910   7.649  -0.395  0.00  0.00    -0.380 N 
ATOM     33  C   UNL     1       6.852   6.912   0.305  0.00  0.00    +0.144 C 
ATOM     34 CL   UNL     1       5.895   7.595  -5.896  0.00  0.00    -0.084 Cl
ATOM     35  H   UNL     1       8.707   8.022   0.014  0.00  0.00    +0.160 HD
ENDBRANCH  24  25
ENDBRANCH  23  24
ENDBRANCH  21  23
ENDBRANCH   3  19
TORSDOF 7
