REMARK  Name = ZINC36608760
REMARK  14 active torsions:
REMARK  status: ('A' for Active; 'I' for Inactive)
REMARK    1  A    between atoms: C_1  and  C_2
REMARK    2  A    between atoms: C_2  and  C_3
REMARK    3  A    between atoms: C_2  and  C_4
REMARK    4  A    between atoms: C_2  and  C_5
REMARK    5  A    between atoms: C_5  and  C_6
REMARK    6  A    between atoms: C_6  and  C_7
REMARK    7  A    between atoms: C_6  and  C_8
REMARK    8  A    between atoms: C_6  and  N_9
REMARK    9  A    between atoms: C_10  and  C_12
REMARK   10  A    between atoms: C_12  and  C_14
REMARK   11  A    between atoms: C_12  and  N_21
REMARK   12  A    between atoms: C_18  and  O_20
REMARK   13  A    between atoms: N_21  and  C_22
REMARK   14  A    between atoms: C_28  and  C_30
REMARK                            x       y       z     vdW  Elec       q    Type
REMARK                         _______ _______ _______ _____ _____    ______ ____
ROOT
ATOM      1  C   UNL     1       5.176   0.292  -4.008  0.00  0.00    +0.198 C 
ENDROOT
BRANCH   1   2
ATOM      2  C   UNL     1       4.388   1.227  -4.888  0.00  0.00    -0.014 A 
ATOM      3  C   UNL     1       4.795   2.539  -5.042  0.00  0.00    +0.006 A 
ATOM      4  C   UNL     1       4.074   3.399  -5.849  0.00  0.00    +0.004 A 
ATOM      5  C   UNL     1       2.943   2.949  -6.504  0.00  0.00    +0.045 A 
ATOM      6  C   UNL     1       2.533   1.633  -6.351  0.00  0.00    +0.117 A 
ATOM      7  C   UNL     1       3.262   0.770  -5.546  0.00  0.00    +0.051 A 
BRANCH   6   8
ATOM      8  O   UNL     1       1.421   1.188  -6.995  0.00  0.00    -0.507 OA
ATOM      9  H   UNL     1       1.595   0.825  -7.874  0.00  0.00    +0.292 HD
ENDBRANCH   6   8
ENDBRANCH   1   2
BRANCH   1  11
ATOM     10  N   UNL     1       3.842   0.786  -1.985  0.00  0.00    -0.308 N 
ATOM     11  C   UNL     1       5.054   0.731  -2.572  0.00  0.00    +0.239 C 
ATOM     12  O   UNL     1       6.046   1.035  -1.944  0.00  0.00    -0.273 OA
ATOM     13  H   UNL     1       3.048   0.542  -2.487  0.00  0.00    +0.149 HD
BRANCH  10  14
ATOM     14  C   UNL     1       3.722   1.213  -0.589  0.00  0.00    +0.030 C 
ATOM     15  C   UNL     1       4.570   2.466  -0.365  0.00  0.00    +0.031 C 
ATOM     16  C   UNL     1       4.214   0.093   0.331  0.00  0.00    +0.031 C 
BRANCH  14  17
ATOM     17  C   UNL     1       2.258   1.524  -0.274  0.00  0.00    +0.031 C 
BRANCH  17  19
ATOM     18  C   UNL     1       1.276   1.404  -2.568  0.00  0.00    +0.010 C 
ATOM     19  C   UNL     1       1.653   2.340  -1.419  0.00  0.00    -0.036 C 
ATOM     20  C   UNL     1       2.676   3.366  -1.910  0.00  0.00    +0.010 C 
ATOM     21  C   UNL     1       0.401   3.066  -0.921  0.00  0.00    +0.010 C 
ENDBRANCH  17  19
ENDBRANCH  14  17
ENDBRANCH  10  14
ENDBRANCH   1  11
BRANCH   1  22
ATOM     22  N   UNL     1       6.586   0.317  -4.408  0.00  0.00    -0.251 N 
ATOM     23  C   UNL     1       7.481  -0.464  -3.771  0.00  0.00    +0.252 C 
ATOM     24  O   UNL     1       8.671  -0.288  -3.943  0.00  0.00    -0.270 OA
BRANCH  23  25
ATOM     25  C   UNL     1       7.015  -1.533  -2.862  0.00  0.00    +0.039 A 
ATOM     26  C   UNL     1       5.670  -1.605  -2.497  0.00  0.00    +0.013 A 
ATOM     27  C   UNL     1       5.241  -2.606  -1.650  0.00  0.00    +0.002 A 
ATOM     28  C   UNL     1       6.141  -3.536  -1.161  0.00  0.00    +0.020 A 
ATOM     29  C   UNL     1       7.476  -3.470  -1.519  0.00  0.00    +0.042 A 
ATOM     30  C   UNL     1       7.918  -2.477  -2.371  0.00  0.00    +0.033 A 
ATOM     31 CL   UNL     1       8.598  -4.642  -0.900  0.00  0.00    -0.084 Cl
ENDBRANCH  23  25
BRANCH  22  32
ATOM     32  C   UNL     1       7.002   1.151  -5.450  0.00  0.00    +0.038 A 
ATOM     33  C   UNL     1       7.896   2.184  -5.200  0.00  0.00    +0.023 A 
ATOM     34  C   UNL     1       8.306   3.006  -6.232  0.00  0.00    +0.002 A 
ATOM     35  C   UNL     1       7.826   2.801  -7.513  0.00  0.00    +0.000 A 
ATOM     36  C   UNL     1       6.935   1.774  -7.765  0.00  0.00    +0.002 A 
ATOM     37  C   UNL     1       6.527   0.945  -6.739  0.00  0.00    +0.023 A 
ENDBRANCH  22  32
ENDBRANCH   1  22
TORSDOF 9
