REMARK  Name = ZINC39450946
REMARK  3 active torsions:
REMARK  status: ('A' for Active; 'I' for Inactive)
REMARK    1  A    between atoms: C_1  and  O_2
REMARK    2  A    between atoms: O_2  and  N_3
REMARK    3  A    between atoms: C_11  and  O_14
REMARK                            x       y       z     vdW  Elec       q    Type
REMARK                         _______ _______ _______ _____ _____    ______ ____
ROOT
ATOM      1  N   UNL     1       0.667  -0.577   1.113  0.00  0.00    -0.139 N 
ATOM      2  C   UNL     1       2.032  -0.826   1.024  0.00  0.00    +0.150 A 
ATOM      3  C   UNL     1       2.724  -1.379   2.086  0.00  0.00    +0.085 A 
ATOM      4  C   UNL     1       2.010  -1.719   3.324  0.00  0.00    +0.100 A 
ATOM      5  C   UNL     1       0.624  -1.457   3.388  0.00  0.00    +0.073 A 
ATOM      6  C   UNL     1      -0.041  -0.858   2.222  0.00  0.00    +0.293 A 
ATOM      7  O   UNL     1      -1.234  -0.618   2.258  0.00  0.00    -0.264 OA
ATOM      8  C   UNL     1      -0.077  -1.770   4.552  0.00  0.00    +0.062 A 
ATOM      9  C   UNL     1       0.632  -2.331   5.607  0.00  0.00    +0.136 A 
ATOM     10  C   UNL     1       2.000  -2.560   5.470  0.00  0.00    +0.156 A 
ATOM     11  N   UNL     1       2.639  -2.256   4.362  0.00  0.00    -0.249 NA
ATOM     12  N   UNL     1       4.083  -1.604   1.980  0.00  0.00    -0.324 N 
ATOM     13  C   UNL     1       4.858  -0.764   1.054  0.00  0.00    +0.171 C 
ATOM     14  C   UNL     1       4.183  -0.817  -0.320  0.00  0.00    +0.120 C 
ATOM     15  C   UNL     1       2.717  -0.505  -0.169  0.00  0.00    +0.188 C 
ATOM     16  O   UNL     1       2.118   0.028  -1.081  0.00  0.00    -0.290 OA
ATOM     17 CL   UNL     1       4.888   0.935   1.655  0.00  0.00    -0.101 Cl
ATOM     18  H   UNL     1       4.514  -2.298   2.503  0.00  0.00    +0.148 HD
ENDROOT
BRANCH   1  20
ATOM     19  C   UNL     1      -0.017   1.425   0.010  0.00  0.00    +0.311 C 
ATOM     20  O   UNL     1       0.002  -0.004   0.002  0.00  0.00    -0.411 OA
ENDBRANCH   1  20
BRANCH   9  21
ATOM     21  O   UNL     1      -0.004  -2.654   6.763  0.00  0.00    -0.505 OA
ATOM     22  H   UNL     1      -0.355  -3.554   6.781  0.00  0.00    +0.292 HD
ENDBRANCH   9  21
TORSDOF 2
