REMARK  Name = ZINC22242404
REMARK  11 active torsions:
REMARK  status: ('A' for Active; 'I' for Inactive)
REMARK    1  A    between atoms: C_1  and  C_2
REMARK    2  A    between atoms: C_4  and  C_34
REMARK    3  A    between atoms: C_5  and  C_9
REMARK    4  A    between atoms: C_6  and  C_8
REMARK    5  A    between atoms: N_14  and  C_15
REMARK    6  A    between atoms: C_15  and  C_17
REMARK    7  A    between atoms: C_17  and  N_18
REMARK    8  A    between atoms: C_26  and  C_33
REMARK    9  A    between atoms: C_28  and  C_30
REMARK   10  A    between atoms: C_30  and  C_31
REMARK   11  A    between atoms: C_30  and  C_32
REMARK                            x       y       z     vdW  Elec       q    Type
REMARK                         _______ _______ _______ _____ _____    ______ ____
ROOT
ATOM      1  C   UNL     1       2.147  -8.494   0.782  0.00  0.00    +0.252 C 
ATOM      2  O   UNL     1       1.115  -8.792   0.211  0.00  0.00    -0.272 OA
ENDROOT
BRANCH   1   8
ATOM      3  C   UNL     1       0.793  -4.103   0.150  0.00  0.00    +0.055 A 
ATOM      4  C   UNL     1      -0.260  -4.713  -0.440  0.00  0.00    +0.074 A 
ATOM      5  S   UNL     1       0.158  -6.436  -0.253  0.00  0.00    -0.060 S 
ATOM      6  C   UNL     1       1.624  -6.261   0.551  0.00  0.00    +0.163 A 
ATOM      7  N   UNL     1       1.769  -4.913   0.657  0.00  0.00    -0.335 N 
ATOM      8  N   UNL     1       2.450  -7.217   0.979  0.00  0.00    -0.155 NA
ATOM      9  H   UNL     1       2.551  -4.534   1.087  0.00  0.00    +0.168 HD
BRANCH   3  14
ATOM     10  C   UNL     1       1.153   1.631   0.486  0.00  0.00    +0.044 C 
ATOM     11  C   UNL     1       1.059   0.130   0.398  0.00  0.00    -0.050 A 
ATOM     12  C   UNL     1       1.192  -0.498  -0.828  0.00  0.00    +0.007 A 
ATOM     13  C   UNL     1       1.106  -1.872  -0.915  0.00  0.00    -0.041 A 
ATOM     14  C   UNL     1       0.886  -2.629   0.236  0.00  0.00    +0.005 A 
ATOM     15  C   UNL     1       0.754  -1.990   1.470  0.00  0.00    -0.041 A 
ATOM     16  C   UNL     1       0.846  -0.615   1.544  0.00  0.00    +0.007 A 
ATOM     17  C   UNL     1       0.516  -2.800   2.718  0.00  0.00    +0.044 C 
ATOM     18  C   UNL     1       1.250  -2.554  -2.251  0.00  0.00    +0.044 C 
ENDBRANCH   3  14
ENDBRANCH   1   8
BRANCH   1  19
ATOM     19  C   UNL     1       3.080  -9.573   1.265  0.00  0.00    +0.182 C 
BRANCH  19  20
ATOM     20  N   UNL     1       2.522 -10.890   0.928  0.00  0.00    -0.291 NA
ATOM     21  C   UNL     1       2.475 -11.085  -0.527  0.00  0.00    +0.104 C 
ATOM     22  C   UNL     1       1.725 -12.384  -0.841  0.00  0.00    +0.122 C 
ATOM     23  N   UNL     1       2.353 -13.479  -0.087  0.00  0.00    -0.313 N 
ATOM     24  C   UNL     1       2.560 -13.300   1.358  0.00  0.00    +0.122 C 
ATOM     25  C   UNL     1       3.277 -11.965   1.586  0.00  0.00    +0.104 C 
ATOM     26  C   UNL     1       2.739 -14.649  -0.721  0.00  0.00    +0.125 A 
ATOM     27  C   UNL     1       2.353 -14.902  -2.039  0.00  0.00    +0.064 A 
ATOM     28  C   UNL     1       2.763 -16.082  -2.627  0.00  0.00    +0.017 A 
ATOM     29  N   UNL     1       3.503 -16.931  -1.927  0.00  0.00    -0.347 N 
ATOM     30  C   UNL     1       3.850 -16.663  -0.684  0.00  0.00    +0.112 A 
ATOM     31  N   UNL     1       3.486 -15.547  -0.086  0.00  0.00    -0.219 NA
ATOM     32  C   UNL     1       2.374 -16.402  -4.047  0.00  0.00    +0.063 C 
ATOM     33  H   UNL     1       3.793 -17.761  -2.336  0.00  0.00    +0.167 HD
BRANCH  30  34
ATOM     34  C   UNL     1       4.691 -17.659   0.072  0.00  0.00    +0.049 C 
ATOM     35  C   UNL     1       3.784 -18.720   0.699  0.00  0.00    +0.015 C 
ATOM     36  C   UNL     1       5.673 -18.332  -0.889  0.00  0.00    +0.015 C 
ENDBRANCH  30  34
ENDBRANCH  19  20
ENDBRANCH   1  19
TORSDOF 5
