REMARK  Name = ZINC13064434
REMARK  13 active torsions:
REMARK  status: ('A' for Active; 'I' for Inactive)
REMARK    1  A    between atoms: C_1  and  C_2
REMARK    2  A    between atoms: C_2  and  C_3
REMARK    3  A    between atoms: C_3  and  C_5
REMARK    4  A    between atoms: C_3  and  N_68
REMARK    5  A    between atoms: N_9  and  C_10
REMARK    6  A    between atoms: C_10  and  C_11
REMARK    7  A    between atoms: C_11  and  O_13
REMARK    8  A    between atoms: O_13  and  C_14
REMARK    9  A    between atoms: C_14  and  C_15
REMARK   10  A    between atoms: C_16  and  C_17
REMARK   11  A    between atoms: C_16  and  N_68
REMARK   12  A    between atoms: C_23  and  C_24
REMARK   13  A    between atoms: C_23  and  N_68
REMARK                            x       y       z     vdW  Elec       q    Type
REMARK                         _______ _______ _______ _____ _____    ______ ____
ROOT
ATOM      1  N   UNL     1       4.064  -0.347  -1.518  0.00  0.00    +0.392 N 
ATOM      2  H   UNL     1       4.193   0.671  -1.473  0.00  0.00    -0.080 HD
ENDROOT
BRANCH   1   3
ATOM      3  C   UNL     1       5.341  -0.975  -1.919  0.00  0.00    +0.003 C 
BRANCH   3   4
ATOM      4  C   UNL     1       5.128  -2.425  -2.272  0.00  0.00    +0.139 A 
ATOM      5  N   UNL     1       4.139  -2.922  -2.975  0.00  0.00    -0.115 NA
ATOM      6  N   UNL     1       4.312  -4.196  -3.059  0.00  0.00    -0.023 NA
ATOM      7  N   UNL     1       5.381  -4.525  -2.421  0.00  0.00    -0.043 NA
ATOM      8  N   UNL     1       5.912  -3.461  -1.922  0.00  0.00    -0.220 N 
BRANCH   8   9
ATOM      9  C   UNL     1       7.138  -3.393  -1.123  0.00  0.00    +0.267 C 
BRANCH   9  10
ATOM     10  C   UNL     1       6.796  -3.546   0.336  0.00  0.00    +0.329 C 
ATOM     11  O   UNL     1       5.646  -3.696   0.675  0.00  0.00    -0.249 OA
BRANCH  10  12
ATOM     12  O   UNL     1       7.769  -3.515   1.260  0.00  0.00    -0.464 OA
BRANCH  12  13
ATOM     13  C   UNL     1       7.367  -3.669   2.647  0.00  0.00    +0.229 C 
ATOM     14  C   UNL     1       8.602  -3.608   3.547  0.00  0.00    +0.048 C 
ENDBRANCH  12  13
ENDBRANCH  10  12
ENDBRANCH   9  10
ENDBRANCH   8   9
ENDBRANCH   3   4
BRANCH   3  16
ATOM     15  C   UNL     1       6.151   1.232  -2.765  0.00  0.00    +0.002 C 
ATOM     16  C   UNL     1       5.895  -0.230  -3.135  0.00  0.00    -0.011 C 
ENDBRANCH   3  16
ENDBRANCH   1   3
BRANCH   1  17
ATOM     17  C   UNL     1       3.657  -0.839  -0.185  0.00  0.00    -0.042 C 
BRANCH  17  18
ATOM     18  C   UNL     1       4.457  -0.110   0.864  0.00  0.00    -0.064 A 
ATOM     19  C   UNL     1       4.008   1.101   1.359  0.00  0.00    +0.002 A 
ATOM     20  C   UNL     1       4.743   1.769   2.320  0.00  0.00    +0.000 A 
ATOM     21  C   UNL     1       5.926   1.228   2.786  0.00  0.00    +0.000 A 
ATOM     22  C   UNL     1       6.375   0.018   2.292  0.00  0.00    +0.000 A 
ATOM     23  C   UNL     1       5.641  -0.651   1.330  0.00  0.00    +0.002 A 
ENDBRANCH  17  18
ENDBRANCH   1  17
BRANCH   1  24
ATOM     24  C   UNL     1       3.015  -0.655  -2.512  0.00  0.00    -0.036 C 
BRANCH  24  25
ATOM     25  C   UNL     1       1.915   0.368  -2.385  0.00  0.00    +0.001 A 
ATOM     26  C   UNL     1       1.956   1.501  -3.131  0.00  0.00    +0.017 A 
ATOM     27  C   UNL     1       0.872   2.471  -2.990  0.00  0.00    +0.002 A 
ATOM     28  C   UNL     1       0.859   3.655  -3.736  0.00  0.00    +0.059 A 
ATOM     29  C   UNL     1      -0.175   4.554  -3.578  0.00  0.00    +0.163 A 
ATOM     30  C   UNL     1      -1.208   4.287  -2.675  0.00  0.00    +0.164 A 
ATOM     31  C   UNL     1      -1.203   3.119  -1.931  0.00  0.00    +0.075 A 
ATOM     32  C   UNL     1      -0.169   2.204  -2.079  0.00  0.00    +0.053 A 
ATOM     33  N   UNL     1      -0.148   1.035  -1.345  0.00  0.00    -0.322 N 
ATOM     34  H   UNL     1      -0.865   0.851  -0.718  0.00  0.00    +0.169 HD
ATOM     35  C   UNL     1       0.852   0.147  -1.487  0.00  0.00    +0.251 A 
ATOM     36  O   UNL     1       0.838  -0.875  -0.823  0.00  0.00    -0.268 OA
ATOM     37  O   UNL     1      -2.233   5.167  -2.515  0.00  0.00    -0.485 OA
ATOM     38  C   UNL     1      -2.021   6.498  -2.995  0.00  0.00    +0.270 C 
ATOM     39  C   UNL     1      -1.412   6.411  -4.402  0.00  0.00    +0.270 C 
ATOM     40  O   UNL     1      -0.171   5.703  -4.310  0.00  0.00    -0.485 OA
ENDBRANCH  24  25
ENDBRANCH   1  24
TORSDOF 11
