REMARK  Name = ZINC59488545
REMARK  8 active torsions:
REMARK  status: ('A' for Active; 'I' for Inactive)
REMARK    1  A    between atoms: C_1  and  N_2
REMARK    2  A    between atoms: C_3  and  C_29
REMARK    3  A    between atoms: C_6  and  S_7
REMARK    4  A    between atoms: S_7  and  C_8
REMARK    5  A    between atoms: C_11  and  C_17
REMARK    6  A    between atoms: C_13  and  N_14
REMARK    7  A    between atoms: N_21  and  C_28
REMARK    8  A    between atoms: N_24  and  C_27
REMARK                            x       y       z     vdW  Elec       q    Type
REMARK                         _______ _______ _______ _____ _____    ______ ____
ROOT
ATOM      1  C   UNL     1      -0.279  -2.110   3.022  0.00  0.00    +0.046 A 
ATOM      2  C   UNL     1      -0.729  -3.251   2.357  0.00  0.00    +0.018 A 
ATOM      3  C   UNL     1      -0.699  -4.463   2.981  0.00  0.00    +0.009 A 
ATOM      4  C   UNL     1      -0.214  -4.562   4.296  0.00  0.00    -0.022 A 
ATOM      5  C   UNL     1       0.238  -3.410   4.960  0.00  0.00    +0.041 A 
ATOM      6  C   UNL     1       0.208  -2.203   4.325  0.00  0.00    +0.140 A 
ENDROOT
BRANCH   4   7
ATOM      7  C   UNL     1      -0.181  -5.820   4.950  0.00  0.00    +0.026 C 
ATOM      8  C   UNL     1       0.341  -6.924   4.300  0.00  0.00    +0.100 C 
ATOM      9  C   UNL     1       1.058  -6.795   3.017  0.00  0.00    +0.259 C 
ATOM     10  O   UNL     1       1.212  -5.708   2.493  0.00  0.00    -0.269 OA
ATOM     11  N   UNL     1       1.540  -7.916   2.441  0.00  0.00    -0.225 N 
ATOM     12  C   UNL     1       1.378  -9.120   3.007  0.00  0.00    +0.317 C 
ATOM     13  O   UNL     1       1.836 -10.090   2.436  0.00  0.00    -0.252 OA
ATOM     14  N   UNL     1       0.738  -9.312   4.169  0.00  0.00    -0.225 N 
ATOM     15  C   UNL     1       0.208  -8.282   4.861  0.00  0.00    +0.259 C 
ATOM     16  O   UNL     1      -0.366  -8.469   5.917  0.00  0.00    -0.269 OA
ATOM     17  C   UNL     1       0.616 -10.671   4.702  0.00  0.00    +0.143 C 
ATOM     18  C   UNL     1       2.256  -7.814   1.167  0.00  0.00    +0.143 C 
ENDBRANCH   4   7
BRANCH   6  19
ATOM     19  N   UNL     1       0.691  -0.987   5.023  0.00  0.00    +0.058 N 
ATOM     20  O   UNL     1       1.114  -1.066   6.153  0.00  0.00    -0.126 OA
ATOM     21  O   UNL     1       0.661   0.084   4.462  0.00  0.00    -0.126 OA
ENDBRANCH   6  19
BRANCH   1  22
ATOM     22  S   UNL     1      -0.320  -0.547   2.209  0.00  0.00    -0.048 S 
BRANCH  22  28
ATOM     23  C   UNL     1      -1.702   2.374   1.515  0.00  0.00    +0.153 C 
ATOM     24  N   UNL     1      -2.193   1.497   2.581  0.00  0.00    -0.305 N 
ATOM     25  C   UNL     1      -3.256   1.727   3.423  0.00  0.00    +0.165 A 
ATOM     26  N   UNL     1      -3.346   0.689   4.222  0.00  0.00    -0.128 NA
ATOM     27  N   UNL     1      -2.424  -0.162   3.942  0.00  0.00    -0.122 NA
ATOM     28  C   UNL     1      -1.693   0.279   2.943  0.00  0.00    +0.196 A 
BRANCH  25  29
ATOM     29  C   UNL     1      -4.132   2.918   3.426  0.00  0.00    +0.019 A 
ATOM     30  C   UNL     1      -4.188   3.750   2.307  0.00  0.00    +0.011 A 
ATOM     31  C   UNL     1      -5.008   4.860   2.317  0.00  0.00    +0.001 A 
ATOM     32  C   UNL     1      -5.773   5.148   3.433  0.00  0.00    +0.000 A 
ATOM     33  C   UNL     1      -5.721   4.328   4.546  0.00  0.00    +0.001 A 
ATOM     34  C   UNL     1      -4.911   3.211   4.546  0.00  0.00    +0.011 A 
ENDBRANCH  25  29
ENDBRANCH  22  28
ENDBRANCH   1  22
TORSDOF 5
