REMARK  Name = ZINC36584769
REMARK  15 active torsions:
REMARK  status: ('A' for Active; 'I' for Inactive)
REMARK    1  A    between atoms: C_1  and  C_2
REMARK    2  A    between atoms: C_5  and  S_8
REMARK    3  A    between atoms: S_8  and  C_11
REMARK    4  A    between atoms: C_11  and  N_12
REMARK    5  A    between atoms: C_13  and  C_15
REMARK    6  A    between atoms: C_15  and  C_17
REMARK    7  A    between atoms: C_15  and  N_26
REMARK    8  A    between atoms: C_18  and  O_25
REMARK    9  A    between atoms: C_20  and  O_24
REMARK   10  A    between atoms: C_22  and  O_23
REMARK   11  A    between atoms: N_26  and  C_34
REMARK   12  A    between atoms: C_27  and  C_29
REMARK   13  A    between atoms: C_34  and  C_35
REMARK   14  A    between atoms: C_34  and  C_36
REMARK   15  A    between atoms: C_34  and  C_37
REMARK                            x       y       z     vdW  Elec       q    Type
REMARK                         _______ _______ _______ _____ _____    ______ ____
ROOT
ATOM      1  C   UNL     1       2.121  -4.473   3.831  0.00  0.00    +0.200 C 
ENDROOT
BRANCH   1   2
ATOM      2  C   UNL     1       3.390  -4.054   3.136  0.00  0.00    +0.065 A 
ATOM      3  C   UNL     1       4.229  -5.013   2.587  0.00  0.00    +0.129 A 
ATOM      4  C   UNL     1       5.397  -4.627   1.947  0.00  0.00    +0.091 A 
ATOM      5  C   UNL     1       5.727  -3.283   1.855  0.00  0.00    +0.124 A 
ATOM      6  C   UNL     1       4.887  -2.325   2.403  0.00  0.00    +0.091 A 
ATOM      7  C   UNL     1       3.717  -2.710   3.039  0.00  0.00    +0.129 A 
BRANCH   7   8
ATOM      8  O   UNL     1       2.892  -1.770   3.571  0.00  0.00    -0.506 OA
ATOM      9  H   UNL     1       3.139  -1.491   4.464  0.00  0.00    +0.292 HD
ENDBRANCH   7   8
BRANCH   5  10
ATOM     10  O   UNL     1       6.872  -2.906   1.229  0.00  0.00    -0.507 OA
ATOM     11  H   UNL     1       6.766  -2.742   0.281  0.00  0.00    +0.292 HD
ENDBRANCH   5  10
BRANCH   3  12
ATOM     12  O   UNL     1       3.907  -6.330   2.678  0.00  0.00    -0.506 OA
ATOM     13  H   UNL     1       3.332  -6.644   1.966  0.00  0.00    +0.292 HD
ENDBRANCH   3  12
ENDBRANCH   1   2
BRANCH   1  15
ATOM     14  N   UNL     1      -0.187  -4.894   3.047  0.00  0.00    -0.294 N 
ATOM     15  C   UNL     1       1.137  -4.989   2.813  0.00  0.00    +0.240 C 
ATOM     16  O   UNL     1       1.536  -5.491   1.784  0.00  0.00    -0.273 OA
ATOM     17  H   UNL     1      -0.506  -4.493   3.870  0.00  0.00    +0.150 HD
BRANCH  14  18
ATOM     18  C   UNL     1      -1.143  -5.395   2.057  0.00  0.00    +0.278 C 
BRANCH  18  19
ATOM     19  S   UNL     1      -1.629  -7.089   2.489  0.00  0.00    +0.013 S 
ATOM     20  O   UNL     1      -0.478  -7.865   2.792  0.00  0.00    -0.168 OA
ATOM     21  O   UNL     1      -2.605  -7.567   1.574  0.00  0.00    -0.168 OA
BRANCH  19  26
ATOM     22  C   UNL     1      -4.564  -6.573   7.736  0.00  0.00    +0.044 C 
ATOM     23  C   UNL     1      -3.831  -6.702   6.425  0.00  0.00    -0.050 A 
ATOM     24  C   UNL     1      -4.525  -6.615   5.233  0.00  0.00    +0.005 A 
ATOM     25  C   UNL     1      -3.853  -6.733   4.031  0.00  0.00    +0.027 A 
ATOM     26  C   UNL     1      -2.486  -6.937   4.021  0.00  0.00    +0.090 A 
ATOM     27  C   UNL     1      -1.791  -7.023   5.213  0.00  0.00    +0.027 A 
ATOM     28  C   UNL     1      -2.463  -6.901   6.415  0.00  0.00    +0.005 A 
ENDBRANCH  19  26
ENDBRANCH  18  19
ENDBRANCH  14  18
ENDBRANCH   1  15
BRANCH   1  29
ATOM     29  N   UNL     1       2.421  -5.531   4.800  0.00  0.00    -0.274 N 
ATOM     30  C   UNL     1       3.216  -5.271   5.857  0.00  0.00    +0.283 C 
ATOM     31  O   UNL     1       3.547  -6.171   6.605  0.00  0.00    -0.267 OA
BRANCH  30  32
ATOM     32  C   UNL     1       3.682  -3.902   6.105  0.00  0.00    +0.189 A 
ATOM     33  C   UNL     1       4.570  -3.519   7.069  0.00  0.00    +0.054 A 
ATOM     34  C   UNL     1       4.726  -2.130   6.945  0.00  0.00    +0.042 A 
ATOM     35  C   UNL     1       3.935  -1.730   5.924  0.00  0.00    +0.196 A 
ATOM     36  O   UNL     1       3.312  -2.802   5.417  0.00  0.00    -0.458 OA
ENDBRANCH  30  32
BRANCH  29  37
ATOM     37  C   UNL     1       1.857  -6.871   4.620  0.00  0.00    +0.030 C 
ATOM     38  C   UNL     1       1.701  -7.162   3.126  0.00  0.00    +0.031 C 
ATOM     39  C   UNL     1       2.792  -7.906   5.247  0.00  0.00    +0.031 C 
ATOM     40  C   UNL     1       0.488  -6.943   5.299  0.00  0.00    +0.031 C 
ENDBRANCH  29  37
ENDBRANCH   1  29
TORSDOF 11
