REMARK  Name = ZINC39652563
REMARK  7 active torsions:
REMARK  status: ('A' for Active; 'I' for Inactive)
REMARK    1  A    between atoms: C_1  and  C_2
REMARK    2  A    between atoms: C_2  and  O_3
REMARK    3  A    between atoms: O_3  and  C_4
REMARK    4  A    between atoms: C_8  and  C_10
REMARK    5  A    between atoms: C_14  and  C_23
REMARK    6  A    between atoms: N_25  and  C_26
REMARK    7  A    between atoms: C_26  and  C_27
REMARK                            x       y       z     vdW  Elec       q    Type
REMARK                         _______ _______ _______ _____ _____    ______ ____
ROOT
ATOM      1  C   UNL     1       2.211  -4.263  -3.807  0.00  0.00    +0.247 C 
ATOM      2  O   UNL     1       2.585  -3.525  -4.698  0.00  0.00    -0.270 OA
ATOM      3  N   UNL     1       2.401  -5.593  -3.910  0.00  0.00    -0.296 N 
ATOM      4  C   UNL     1       1.907  -6.654  -3.001  0.00  0.00    +0.121 C 
ATOM      5  C   UNL     1       1.492  -7.809  -3.940  0.00  0.00    +0.100 C 
ATOM      6  C   UNL     1       2.314  -7.589  -5.220  0.00  0.00    -0.004 C 
ATOM      7  C   UNL     1       3.148  -6.326  -4.961  0.00  0.00    +0.115 C 
ATOM      8  C   UNL     1       3.229  -8.784  -5.473  0.00  0.00    -0.010 C 
ATOM      9  C   UNL     1       3.994  -8.568  -6.782  0.00  0.00    -0.082 C 
ATOM     10  N   UNL     1       3.041  -8.413  -7.888  0.00  0.00    +0.379 N 
ATOM     11  C   UNL     1       2.227  -7.209  -7.683  0.00  0.00    -0.082 C 
ATOM     12  C   UNL     1       1.387  -7.368  -6.412  0.00  0.00    -0.010 C 
ATOM     13  H   UNL     1       3.546  -8.332  -8.757  0.00  0.00    -0.086 HD
ATOM     14  H   UNL     1       2.438  -9.222  -7.926  0.00  0.00    -0.086 HD
ENDROOT
BRANCH   1  19
ATOM     15  C   UNL     1       0.944  -3.868  -0.290  0.00  0.00    +0.121 A 
ATOM     16  C   UNL     1       0.296  -2.643  -0.375  0.00  0.00    +0.046 A 
ATOM     17  C   UNL     1       0.272  -1.949  -1.570  0.00  0.00    +0.004 A 
ATOM     18  C   UNL     1       0.892  -2.470  -2.688  0.00  0.00    +0.013 A 
ATOM     19  C   UNL     1       1.546  -3.701  -2.612  0.00  0.00    +0.040 A 
ATOM     20  C   UNL     1       1.574  -4.397  -1.403  0.00  0.00    +0.058 A 
BRANCH  15  21
ATOM     21  O   UNL     1       0.964  -4.545   0.888  0.00  0.00    -0.492 OA
BRANCH  21  23
ATOM     22  C   UNL     1       0.423  -4.843   3.225  0.00  0.00    +0.048 C 
ATOM     23  C   UNL     1       0.294  -3.941   1.996  0.00  0.00    +0.225 C 
ENDBRANCH  21  23
ENDBRANCH  15  21
ENDBRANCH   1  19
BRANCH   5  24
ATOM     24  C   UNL     1       0.017  -7.737  -4.241  0.00  0.00    +0.218 C 
ATOM     25  O   UNL     1      -0.528  -6.659  -4.346  0.00  0.00    -0.275 OA
ATOM     26  N   UNL     1      -0.696  -8.870  -4.395  0.00  0.00    -0.311 N 
ATOM     27  H   UNL     1      -0.260  -9.732  -4.312  0.00  0.00    +0.149 HD
BRANCH  26  28
ATOM     28  C   UNL     1      -2.129  -8.800  -4.688  0.00  0.00    +0.142 C 
BRANCH  28  29
ATOM     29  C   UNL     1      -2.686 -10.194  -4.812  0.00  0.00    +0.005 A 
ATOM     30  C   UNL     1      -2.888 -10.750  -6.061  0.00  0.00    +0.009 A 
ATOM     31  C   UNL     1      -3.398 -12.029  -6.176  0.00  0.00    +0.016 A 
ATOM     32  C   UNL     1      -3.708 -12.755  -5.040  0.00  0.00    +0.021 A 
ATOM     33  C   UNL     1      -3.507 -12.201  -3.789  0.00  0.00    +0.054 A 
ATOM     34  C   UNL     1      -2.990 -10.922  -3.674  0.00  0.00    +0.129 A 
ATOM     35  F   UNL     1      -2.788 -10.382  -2.452  0.00  0.00    -0.205 F 
ATOM     36 BR   UNL     1      -4.406 -14.506  -5.197  0.00  0.00    -0.050 Br
ENDBRANCH  28  29
ENDBRANCH  26  28
ENDBRANCH   5  24
TORSDOF 6
