REMARK  Name = ZINC35688681
REMARK  9 active torsions:
REMARK  status: ('A' for Active; 'I' for Inactive)
REMARK    1  A    between atoms: C_1  and  C_2
REMARK    2  A    between atoms: C_2  and  C_3
REMARK    3  A    between atoms: C_3  and  C_5
REMARK    4  A    between atoms: C_3  and  N_17
REMARK    5  A    between atoms: N_15  and  C_16
REMARK    6  A    between atoms: C_21  and  C_24
REMARK    7  A    between atoms: C_25  and  C_27
REMARK    8  A    between atoms: C_28  and  C_29
REMARK    9  A    between atoms: C_32  and  N_35
REMARK                            x       y       z     vdW  Elec       q    Type
REMARK                         _______ _______ _______ _____ _____    ______ ____
ROOT
ATOM      1  N   UNL     1      -2.045  -0.419  -1.436  0.00  0.00    +0.388 N 
ATOM      2  C   UNL     1      -2.159   1.016  -1.724  0.00  0.00    -0.059 C 
ATOM      3  C   UNL     1      -2.527   1.212  -3.199  0.00  0.00    +0.090 C 
ATOM      4  N   UNL     1      -3.744   0.437  -3.483  0.00  0.00    -0.299 N 
ATOM      5  C   UNL     1      -3.776  -0.977  -3.076  0.00  0.00    +0.057 C 
ATOM      6  C   UNL     1      -3.350  -1.069  -1.608  0.00  0.00    -0.055 C 
ATOM      7  C   UNL     1      -5.194  -1.526  -3.240  0.00  0.00    +0.026 C 
ATOM      8  C   UNL     1      -4.800   1.005  -4.098  0.00  0.00    +0.240 C 
ATOM      9  O   UNL     1      -5.831   0.376  -4.243  0.00  0.00    -0.271 OA
ATOM     10  H   UNL     1      -1.377  -0.834  -2.069  0.00  0.00    -0.081 HD
ENDROOT
BRANCH   8  11
ATOM     11  C   UNL     1      -4.706   2.380  -4.593  0.00  0.00    +0.068 C 
ATOM     12  C   UNL     1      -5.794   2.987  -5.107  0.00  0.00    +0.013 C 
BRANCH  12  13
ATOM     13  C   UNL     1      -5.700   4.370  -5.604  0.00  0.00    -0.025 A 
ATOM     14  C   UNL     1      -4.482   5.054  -5.550  0.00  0.00    +0.010 A 
ATOM     15  C   UNL     1      -4.402   6.349  -6.018  0.00  0.00    +0.033 A 
ATOM     16  C   UNL     1      -5.523   6.971  -6.539  0.00  0.00    +0.126 A 
ATOM     17  C   UNL     1      -6.732   6.300  -6.596  0.00  0.00    +0.033 A 
ATOM     18  C   UNL     1      -6.827   5.003  -6.137  0.00  0.00    +0.010 A 
BRANCH  16  19
ATOM     19  N   UNL     1      -5.428   8.361  -7.039  0.00  0.00    +0.056 N 
ATOM     20  O   UNL     1      -4.373   8.950  -6.991  0.00  0.00    -0.126 OA
ATOM     21  O   UNL     1      -6.405   8.907  -7.495  0.00  0.00    -0.126 OA
ENDBRANCH  16  19
ENDBRANCH  12  13
ENDBRANCH   8  11
BRANCH   1  22
ATOM     22  C   UNL     1      -1.586  -0.604  -0.053  0.00  0.00    -0.001 C 
BRANCH  22  23
ATOM     23  C   UNL     1      -1.535  -2.075   0.268  0.00  0.00    +0.099 A 
ATOM     24  N   UNL     1      -1.201  -2.900  -0.678  0.00  0.00    -0.235 NA
ATOM     25  C   UNL     1      -1.134  -4.238  -0.464  0.00  0.00    +0.078 A 
ATOM     26  C   UNL     1      -0.774  -5.126  -1.480  0.00  0.00    +0.028 A 
ATOM     27  C   UNL     1      -0.719  -6.476  -1.218  0.00  0.00    +0.002 A 
ATOM     28  C   UNL     1      -1.016  -6.968   0.046  0.00  0.00    +0.001 A 
ATOM     29  C   UNL     1      -1.373  -6.112   1.065  0.00  0.00    +0.015 A 
ATOM     30  C   UNL     1      -1.436  -4.742   0.821  0.00  0.00    +0.065 A 
ATOM     31  C   UNL     1      -1.810  -3.781   1.869  0.00  0.00    +0.262 A 
ATOM     32  O   UNL     1      -2.082  -4.149   2.997  0.00  0.00    -0.267 OA
ATOM     33  N   UNL     1      -1.836  -2.470   1.532  0.00  0.00    -0.301 N 
ATOM     34  C   UNL     1      -2.196  -1.469   2.539  0.00  0.00    +0.153 C 
ENDBRANCH  22  23
BRANCH  22  36
ATOM     35  C   UNL     1       0.768  -0.657  -0.889  0.00  0.00    +0.002 C 
ATOM     36  C   UNL     1      -0.189   0.001   0.106  0.00  0.00    -0.011 C 
ENDBRANCH  22  36
ENDBRANCH   1  22
TORSDOF 6
