REMARK  Name = ZINC10066149
REMARK  9 active torsions:
REMARK  status: ('A' for Active; 'I' for Inactive)
REMARK    1  A    between atoms: C_1  and  C_2
REMARK    2  A    between atoms: C_7  and  C_8
REMARK    3  A    between atoms: N_12  and  C_13
REMARK    4  A    between atoms: C_13  and  C_14
REMARK    5  A    between atoms: C_14  and  N_50
REMARK    6  A    between atoms: C_15  and  N_50
REMARK    7  A    between atoms: C_16  and  N_50
REMARK    8  A    between atoms: C_17  and  C_19
REMARK    9  A    between atoms: C_21  and  N_26
REMARK                            x       y       z     vdW  Elec       q    Type
REMARK                         _______ _______ _______ _____ _____    ______ ____
ROOT
ATOM      1  C   UNL     1     -12.019  -0.366   0.609  0.00  0.00    +0.044 C 
ATOM      2  C   UNL     1     -10.617  -0.914   0.678  0.00  0.00    -0.045 A 
ATOM      3  C   UNL     1     -10.422  -2.230   1.073  0.00  0.00    +0.005 A 
ATOM      4  C   UNL     1      -9.137  -2.735   1.136  0.00  0.00    +0.017 A 
ATOM      5  C   UNL     1      -8.075  -1.929   0.810  0.00  0.00    +0.041 A 
ATOM      6  C   UNL     1      -8.235  -0.584   0.404  0.00  0.00    +0.083 A 
ATOM      7  C   UNL     1      -9.563  -0.102   0.350  0.00  0.00    -0.021 A 
ATOM      8  C   UNL     1      -9.823   1.321  -0.073  0.00  0.00    +0.046 C 
ATOM      9  N   UNL     1      -7.094   0.081   0.121  0.00  0.00    -0.224 NA
ATOM     10  C   UNL     1      -5.910  -0.481   0.206  0.00  0.00    +0.168 A 
ATOM     11  S   UNL     1      -6.312  -2.136   0.748  0.00  0.00    -0.052 S 
ATOM     12  N   UNL     1      -4.667   0.070  -0.054  0.00  0.00    -0.248 N 
ATOM     13  C   UNL     1      -4.570   1.352  -0.458  0.00  0.00    +0.254 C 
ATOM     14  O   UNL     1      -5.559   2.058  -0.486  0.00  0.00    -0.270 OA
ENDROOT
BRANCH  13  15
ATOM     15  C   UNL     1      -3.260   1.900  -0.868  0.00  0.00    +0.058 A 
ATOM     16  C   UNL     1      -2.501   1.248  -1.842  0.00  0.00    +0.047 A 
ATOM     17  C   UNL     1      -1.280   1.765  -2.221  0.00  0.00    +0.127 A 
ATOM     18  C   UNL     1      -0.803   2.924  -1.634  0.00  0.00    +0.034 A 
ATOM     19  C   UNL     1      -1.550   3.578  -0.672  0.00  0.00    +0.023 A 
ATOM     20  C   UNL     1      -2.776   3.072  -0.283  0.00  0.00    +0.053 A 
ATOM     21 CL   UNL     1      -3.711   3.892   0.928  0.00  0.00    -0.083 Cl
BRANCH  17  22
ATOM     22  N   UNL     1      -0.474   1.074  -3.253  0.00  0.00    +0.056 N 
ATOM     23  O   UNL     1      -0.846   0.004  -3.700  0.00  0.00    -0.126 OA
ATOM     24  O   UNL     1       0.557   1.579  -3.659  0.00  0.00    -0.126 OA
ENDBRANCH  17  22
ENDBRANCH  13  15
BRANCH  12  25
ATOM     25  C   UNL     1      -3.458  -0.740   0.111  0.00  0.00    +0.097 C 
BRANCH  25  26
ATOM     26  C   UNL     1      -3.020  -0.710   1.577  0.00  0.00    -0.060 C 
BRANCH  26  29
ATOM     27  C   UNL     1      -0.622  -0.686   1.245  0.00  0.00    -0.097 C 
ATOM     28  C   UNL     1      -1.572  -1.879   3.126  0.00  0.00    -0.097 C 
ATOM     29  N   UNL     1      -1.771  -1.488   1.714  0.00  0.00    +0.377 N 
ATOM     30  H   UNL     1      -1.843  -2.337   1.140  0.00  0.00    -0.083 HD
ENDBRANCH  26  29
ENDBRANCH  25  26
ENDBRANCH  12  25
TORSDOF 5
