REMARK  Name = ZINC04515863
REMARK  4 active torsions:
REMARK  status: ('A' for Active; 'I' for Inactive)
REMARK    1  A    between atoms: C_1  and  C_2
REMARK    2  A    between atoms: C_5  and  N_8
REMARK    3  A    between atoms: C_14  and  C_21
REMARK    4  A    between atoms: N_19  and  C_20
REMARK                            x       y       z     vdW  Elec       q    Type
REMARK                         _______ _______ _______ _____ _____    ______ ____
ROOT
ATOM      1  N   UNL     1      -1.658   5.443   0.046  0.00  0.00    -0.262 N 
ATOM      2  C   UNL     1      -0.197   5.274   0.031  0.00  0.00    +0.165 C 
ATOM      3  C   UNL     1       0.021   3.777   0.022  0.00  0.00    +0.043 C 
ATOM      4  C   UNL     1      -1.205   3.215   0.030  0.00  0.00    +0.061 C 
ATOM      5  C   UNL     1      -2.201   4.212   0.045  0.00  0.00    +0.251 C 
ATOM      6  O   UNL     1      -3.398   3.989   0.056  0.00  0.00    -0.270 OA
ATOM      7  C   UNL     1      -1.286   1.702   0.017  0.00  0.00    +0.177 C 
ATOM      8  N   UNL     1      -0.011   0.966   0.007  0.00  0.00    -0.285 N 
ATOM      9  C   UNL     1       1.137   1.671   0.000  0.00  0.00    +0.307 C 
ATOM     10  O   UNL     1       2.195   1.072  -0.014  0.00  0.00    -0.252 OA
ATOM     11  N   UNL     1       1.151   3.010   0.007  0.00  0.00    -0.260 N 
ATOM     12  C   UNL     1       2.449   3.690  -0.002  0.00  0.00    +0.139 C 
ATOM     13  H   UNL     1       0.002  -0.004   0.002  0.00  0.00    +0.151 HD
ENDROOT
BRANCH   1  18
ATOM     14  C   UNL     1      -4.475  10.366   0.096  0.00  0.00    +0.044 C 
ATOM     15  C   UNL     1      -3.727   9.058   0.083  0.00  0.00    -0.050 A 
ATOM     16  C   UNL     1      -4.424   7.864   0.084  0.00  0.00    +0.005 A 
ATOM     17  C   UNL     1      -3.741   6.663   0.071  0.00  0.00    +0.024 A 
ATOM     18  C   UNL     1      -2.352   6.656   0.058  0.00  0.00    +0.037 A 
ATOM     19  C   UNL     1      -1.655   7.857   0.063  0.00  0.00    +0.024 A 
ATOM     20  C   UNL     1      -2.344   9.054   0.069  0.00  0.00    +0.005 A 
ENDBRANCH   1  18
BRANCH   7  21
ATOM     21  C   UNL     1      -2.062   1.272   1.236  0.00  0.00    +0.130 A 
ATOM     22  C   UNL     1      -3.388   1.050   1.287  0.00  0.00    +0.047 A 
ATOM     23  C   UNL     1      -3.688   0.667   2.615  0.00  0.00    +0.041 A 
ATOM     24  C   UNL     1      -2.528   0.678   3.295  0.00  0.00    +0.195 A 
ATOM     25  O   UNL     1      -1.545   1.039   2.454  0.00  0.00    -0.466 OA
ENDBRANCH   7  21
TORSDOF 2
