REMARK  Name = ZINC06511219
REMARK  14 active torsions:
REMARK  status: ('A' for Active; 'I' for Inactive)
REMARK    1  A    between atoms: C_1  and  C_2
REMARK    2  A    between atoms: C_2  and  N_77
REMARK    3  A    between atoms: C_3  and  C_4
REMARK    4  A    between atoms: C_3  and  N_77
REMARK    5  A    between atoms: C_5  and  C_6
REMARK    6  A    between atoms: C_5  and  N_77
REMARK    7  A    between atoms: C_6  and  C_7
REMARK    8  A    between atoms: C_7  and  N_8
REMARK    9  A    between atoms: N_8  and  C_9
REMARK   10  A    between atoms: C_9  and  C_11
REMARK   11  A    between atoms: C_9  and  C_16
REMARK   12  A    between atoms: N_18  and  C_19
REMARK   13  A    between atoms: C_25  and  C_27
REMARK   14  A    between atoms: C_30  and  C_33
REMARK                            x       y       z     vdW  Elec       q    Type
REMARK                         _______ _______ _______ _____ _____    ______ ____
ROOT
ATOM      1  N   UNL     1       5.271   6.072  -0.040  0.00  0.00    -0.280 N 
ATOM      2  C   UNL     1       6.425   5.418  -0.277  0.00  0.00    +0.264 C 
ATOM      3  O   UNL     1       7.421   6.038  -0.598  0.00  0.00    -0.268 OA
ENDROOT
BRANCH   2   4
ATOM      4  C   UNL     1       6.480   3.958  -0.150  0.00  0.00    +0.102 A 
ATOM      5  C   UNL     1       7.569   3.159  -0.433  0.00  0.00    +0.033 A 
ATOM      6  C   UNL     1       7.198   1.841  -0.178  0.00  0.00    +0.028 A 
ATOM      7  C   UNL     1       5.890   1.851   0.257  0.00  0.00    +0.047 A 
ATOM      8  N   UNL     1       5.452   3.143   0.268  0.00  0.00    -0.351 N 
ATOM      9  H   UNL     1       4.565   3.438   0.528  0.00  0.00    +0.166 HD
BRANCH   7  10
ATOM     10  C   UNL     1       5.096   0.665   0.640  0.00  0.00    -0.002 A 
ATOM     11  C   UNL     1       3.732   0.792   0.912  0.00  0.00    +0.010 A 
ATOM     12  C   UNL     1       2.997  -0.319   1.269  0.00  0.00    +0.001 A 
ATOM     13  C   UNL     1       3.608  -1.557   1.358  0.00  0.00    +0.000 A 
ATOM     14  C   UNL     1       4.958  -1.690   1.089  0.00  0.00    +0.001 A 
ATOM     15  C   UNL     1       5.705  -0.587   0.731  0.00  0.00    +0.010 A 
ENDBRANCH   7  10
ENDBRANCH   2   4
BRANCH   1  16
ATOM     16  C   UNL     1       4.084   5.330   0.395  0.00  0.00    +0.107 C 
BRANCH  16  17
ATOM     17  C   UNL     1       4.277   4.860   1.838  0.00  0.00    +0.000 C 
BRANCH  17  18
ATOM     18  C   UNL     1       3.008   4.152   2.317  0.00  0.00    -0.077 C 
BRANCH  18  19
ATOM     19  N   UNL     1       3.211   3.701   3.710  0.00  0.00    +0.379 N 
ATOM     20  H   UNL     1       4.086   3.168   3.764  0.00  0.00    -0.082 HD
BRANCH  19  22
ATOM     21  C   UNL     1       1.987   5.648   4.618  0.00  0.00    -0.017 C 
ATOM     22  C   UNL     1       3.305   4.870   4.610  0.00  0.00    -0.082 C 
ENDBRANCH  19  22
BRANCH  19  23
ATOM     23  C   UNL     1       2.091   2.831   4.127  0.00  0.00    -0.082 C 
ATOM     24  C   UNL     1       2.427   2.211   5.485  0.00  0.00    -0.017 C 
ENDBRANCH  19  23
ENDBRANCH  18  19
ENDBRANCH  17  18
ENDBRANCH  16  17
ENDBRANCH   1  16
BRANCH   1  25
ATOM     25  C   UNL     1       5.203   7.525  -0.215  0.00  0.00    +0.199 C 
BRANCH  25  26
ATOM     26  C   UNL     1       4.243   7.852  -1.330  0.00  0.00    +0.019 A 
ATOM     27  C   UNL     1       4.338   8.809  -2.285  0.00  0.00    +0.013 A 
ATOM     28  C   UNL     1       3.325   8.927  -3.218  0.00  0.00    +0.008 A 
ATOM     29  C   UNL     1       2.267   8.083  -3.150  0.00  0.00    +0.045 A 
ATOM     30  S   UNL     1       2.689   7.074  -1.739  0.00  0.00    -0.099 S 
ENDBRANCH  25  26
BRANCH  25  31
ATOM     31  C   UNL     1       4.725   8.164   1.063  0.00  0.00    +0.239 C 
ATOM     32  O   UNL     1       4.294   7.473   1.962  0.00  0.00    -0.273 OA
ATOM     33  N   UNL     1       4.776   9.503   1.208  0.00  0.00    -0.311 N 
ATOM     34  H   UNL     1       5.120  10.055   0.489  0.00  0.00    +0.149 HD
BRANCH  33  35
ATOM     35  C   UNL     1       4.311  10.123   2.450  0.00  0.00    +0.073 C 
ATOM     36  C   UNL     1       2.797  10.336   2.380  0.00  0.00    +0.022 C 
ATOM     37  C   UNL     1       2.312  10.984   3.678  0.00  0.00    +0.002 C 
ATOM     38  C   UNL     1       3.008  12.334   3.865  0.00  0.00    +0.000 C 
ATOM     39  C   UNL     1       4.521  12.122   3.936  0.00  0.00    +0.002 C 
ATOM     40  C   UNL     1       5.007  11.473   2.638  0.00  0.00    +0.022 C 
ENDBRANCH  33  35
ENDBRANCH  25  31
ENDBRANCH   1  25
TORSDOF 12
