REMARK  Name = ZINC46024063
REMARK  5 active torsions:
REMARK  status: ('A' for Active; 'I' for Inactive)
REMARK    1  A    between atoms: C_4  and  C_7
REMARK    2  A    between atoms: C_10  and  N_13
REMARK    3  A    between atoms: N_16  and  N_17
REMARK    4  A    between atoms: C_18  and  C_20
REMARK    5  A    between atoms: N_22  and  C_23
REMARK                            x       y       z     vdW  Elec       q    Type
REMARK                         _______ _______ _______ _____ _____    ______ ____
ROOT
ATOM      1  N   UNL     1       6.511  -3.926  -0.083  0.00  0.00    -0.295 N 
ATOM      2  C   UNL     1       6.625  -5.086  -0.759  0.00  0.00    +0.316 C 
ATOM      3  O   UNL     1       5.667  -5.539  -1.356  0.00  0.00    -0.251 OA
ATOM      4  N   UNL     1       7.801  -5.744  -0.775  0.00  0.00    -0.218 N 
ATOM      5  H   UNL     1       7.275  -3.565   0.393  0.00  0.00    +0.151 HD
ATOM      6  H   UNL     1       7.883  -6.579  -1.262  0.00  0.00    +0.174 HD
ENDROOT
BRANCH   1  10
ATOM      7  C   UNL     1       3.711  -0.707  -0.038  0.00  0.00    +0.019 C 
ATOM      8  C   UNL     1       3.817  -1.592   1.206  0.00  0.00    +0.010 C 
ATOM      9  C   UNL     1       5.152  -2.339   1.188  0.00  0.00    +0.023 C 
ATOM     10  C   UNL     1       5.232  -3.211  -0.066  0.00  0.00    +0.075 C 
ATOM     11  C   UNL     1       5.126  -2.326  -1.310  0.00  0.00    +0.023 C 
ATOM     12  C   UNL     1       3.791  -1.579  -1.292  0.00  0.00    +0.010 C 
BRANCH   7  16
ATOM     13  C   UNL     1      -0.017   1.378   0.010  0.00  0.00    +0.000 A 
ATOM     14  C   UNL     1       1.171   2.086   0.002  0.00  0.00    +0.000 A 
ATOM     15  C   UNL     1       2.377   1.411  -0.013  0.00  0.00    +0.004 A 
ATOM     16  C   UNL     1       2.396   0.029  -0.020  0.00  0.00    -0.044 A 
ATOM     17  C   UNL     1       1.208  -0.679  -0.012  0.00  0.00    +0.004 A 
ATOM     18  C   UNL     1       0.002  -0.004   0.002  0.00  0.00    +0.000 A 
ENDBRANCH   7  16
ENDBRANCH   1  10
BRANCH   4  19
ATOM     19  N   UNL     1       8.905  -5.222  -0.088  0.00  0.00    -0.225 N 
ATOM     20  C   UNL     1      10.081  -5.880  -0.104  0.00  0.00    +0.315 C 
ATOM     21  O   UNL     1      10.184  -6.924  -0.713  0.00  0.00    -0.264 OA
ATOM     22  H   UNL     1       8.823  -4.387   0.399  0.00  0.00    +0.173 HD
BRANCH  20  23
ATOM     23  C   UNL     1      11.259  -5.323   0.629  0.00  0.00    +0.301 C 
ATOM     24  O   UNL     1      11.156  -4.279   1.238  0.00  0.00    -0.265 OA
ATOM     25  N   UNL     1      12.435  -5.981   0.614  0.00  0.00    -0.305 N 
ATOM     26  H   UNL     1      12.517  -6.816   0.127  0.00  0.00    +0.149 HD
BRANCH  25  27
ATOM     27  C   UNL     1      13.589  -5.435   1.332  0.00  0.00    +0.073 C 
ATOM     28  C   UNL     1      14.943  -5.465   0.620  0.00  0.00    +0.024 C 
ATOM     29  C   UNL     1      14.670  -6.419   1.784  0.00  0.00    +0.024 C 
ENDBRANCH  25  27
ENDBRANCH  20  23
ENDBRANCH   4  19
TORSDOF 5
