REMARK  Name = ZINC00291145
REMARK  3 active torsions:
REMARK  status: ('A' for Active; 'I' for Inactive)
REMARK    1  A    between atoms: C_6  and  C_11
REMARK    2  A    between atoms: N_12  and  N_13
REMARK    3  A    between atoms: C_14  and  C_16
REMARK                            x       y       z     vdW  Elec       q    Type
REMARK                         _______ _______ _______ _____ _____    ______ ____
ROOT
ATOM      1  N   UNL     1      -2.228   8.135  -0.228  0.00  0.00    -0.204 N 
ATOM      2  C   UNL     1      -1.209   7.309   0.082  0.00  0.00    +0.276 C 
ATOM      3  O   UNL     1      -0.244   7.734   0.681  0.00  0.00    -0.270 OA
ATOM      4  H   UNL     1      -3.000   7.795  -0.707  0.00  0.00    +0.177 HD
ENDROOT
BRANCH   2   5
ATOM      5  C   UNL     1      -1.270   5.856  -0.315  0.00  0.00    +0.297 C 
ATOM      6  C   UNL     1      -2.417   5.163   0.432  0.00  0.00    +0.283 C 
ATOM      7  O   UNL     1      -2.437   3.785   0.043  0.00  0.00    -0.484 OA
ATOM      8  C   UNL     1      -1.241   3.136   0.031  0.00  0.00    +0.162 A 
ATOM      9  C   UNL     1      -1.219   1.749   0.017  0.00  0.00    +0.049 A 
ATOM     10  C   UNL     1      -0.013   1.076   0.008  0.00  0.00    +0.004 A 
ATOM     11  C   UNL     1       1.176   1.782   0.000  0.00  0.00    +0.004 A 
ATOM     12  C   UNL     1       1.161   3.164   0.009  0.00  0.00    +0.049 A 
ATOM     13  C   UNL     1      -0.046   3.846   0.026  0.00  0.00    +0.163 A 
ATOM     14  O   UNL     1      -0.045   5.207   0.043  0.00  0.00    -0.472 OA
ENDBRANCH   2   5
BRANCH   1  16
ATOM     15  C   UNL     1      -3.153  10.281  -0.158  0.00  0.00    +0.138 C 
ATOM     16  N   UNL     1      -2.172   9.486   0.141  0.00  0.00    -0.188 NA
BRANCH  15  22
ATOM     17  C   UNL     1      -3.916  16.563   1.034  0.00  0.00    +0.001 A 
ATOM     18  C   UNL     1      -5.033  16.093   0.346  0.00  0.00    +0.001 A 
ATOM     19  C   UNL     1      -5.125  14.788  -0.029  0.00  0.00    +0.008 A 
ATOM     20  C   UNL     1      -4.080  13.899   0.281  0.00  0.00    -0.017 A 
ATOM     21  C   UNL     1      -4.141  12.549  -0.096  0.00  0.00    +0.018 A 
ATOM     22  C   UNL     1      -3.094  11.702   0.231  0.00  0.00    -0.005 A 
ATOM     23  C   UNL     1      -1.971  12.191   0.926  0.00  0.00    +0.010 A 
ATOM     24  C   UNL     1      -1.894  13.494   1.294  0.00  0.00    +0.009 A 
ATOM     25  C   UNL     1      -2.944  14.378   0.981  0.00  0.00    -0.018 A 
ATOM     26  C   UNL     1      -2.885  15.732   1.351  0.00  0.00    +0.008 A 
ENDBRANCH  15  22
ENDBRANCH   1  16
TORSDOF 3
