REMARK  Name = ZINC13963482
REMARK  9 active torsions:
REMARK  status: ('A' for Active; 'I' for Inactive)
REMARK    1  A    between atoms: C_1  and  O_2
REMARK    2  A    between atoms: O_2  and  C_3
REMARK    3  A    between atoms: C_3  and  C_4
REMARK    4  A    between atoms: C_4  and  N_5
REMARK    5  A    between atoms: C_9  and  N_32
REMARK    6  A    between atoms: N_14  and  C_15
REMARK    7  A    between atoms: C_15  and  C_17
REMARK    8  A    between atoms: N_23  and  S_24
REMARK    9  A    between atoms: S_24  and  C_27
REMARK                            x       y       z     vdW  Elec       q    Type
REMARK                         _______ _______ _______ _____ _____    ______ ____
ROOT
ATOM      1  N   UNL     1      -4.601  -2.029  -1.201  0.00  0.00    -0.319 N 
ATOM      2  C   UNL     1      -4.753  -2.999  -0.227  0.00  0.00    +0.058 A 
ATOM      3  C   UNL     1      -5.432  -4.224  -0.317  0.00  0.00    +0.029 A 
ATOM      4  C   UNL     1      -5.490  -5.076   0.760  0.00  0.00    +0.035 A 
ATOM      5  C   UNL     1      -4.884  -4.755   1.963  0.00  0.00    +0.127 A 
ATOM      6  C   UNL     1      -4.207  -3.553   2.079  0.00  0.00    +0.050 A 
ATOM      7  C   UNL     1      -4.149  -2.701   1.002  0.00  0.00    +0.041 A 
ATOM      8  S   UNL     1      -3.413  -1.110   0.719  0.00  0.00    -0.052 S 
ATOM      9  C   UNL     1      -3.900  -0.897  -0.931  0.00  0.00    +0.167 A 
ATOM     10  N   UNL     1      -3.652   0.132  -1.739  0.00  0.00    -0.155 NA
ENDROOT
BRANCH   5  11
ATOM     11  N   UNL     1      -4.958  -5.686   3.111  0.00  0.00    +0.056 N 
ATOM     12  O   UNL     1      -4.423  -5.396   4.166  0.00  0.00    -0.126 OA
ATOM     13  O   UNL     1      -5.556  -6.742   3.002  0.00  0.00    -0.126 OA
ENDBRANCH   5  11
BRANCH  10  14
ATOM     14  C   UNL     1      -2.945   1.168  -1.298  0.00  0.00    +0.257 C 
ATOM     15  O   UNL     1      -2.526   1.175  -0.156  0.00  0.00    -0.272 OA
BRANCH  14  16
ATOM     16  C   UNL     1      -2.664   2.333  -2.212  0.00  0.00    +0.167 C 
ATOM     17  C   UNL     1      -1.154   2.459  -2.437  0.00  0.00    +0.030 C 
ATOM     18  C   UNL     1      -0.869   3.723  -3.252  0.00  0.00    +0.003 C 
ATOM     19  C   UNL     1      -1.346   4.952  -2.475  0.00  0.00    +0.017 C 
ATOM     20  C   UNL     1      -2.863   4.853  -2.253  0.00  0.00    +0.110 C 
ATOM     21  N   UNL     1      -3.156   3.572  -1.595  0.00  0.00    -0.164 NA
BRANCH  21  22
ATOM     22  S   UNL     1      -4.030   3.526  -0.190  0.00  0.00    +0.068 S 
ATOM     23  O   UNL     1      -4.597   2.226  -0.106  0.00  0.00    -0.152 OA
ATOM     24  O   UNL     1      -4.823   4.705  -0.166  0.00  0.00    -0.152 OA
BRANCH  22  25
ATOM     25  C   UNL     1      -2.884   3.663   1.142  0.00  0.00    +0.143 A 
ATOM     26  C   UNL     1      -2.421   4.778   1.757  0.00  0.00    +0.036 A 
ATOM     27  C   UNL     1      -1.510   4.645   2.789  0.00  0.00    +0.010 A 
ATOM     28  C   UNL     1      -1.108   3.403   3.154  0.00  0.00    +0.047 A 
ATOM     29  S   UNL     1      -2.026   2.370   2.024  0.00  0.00    -0.077 S 
ENDBRANCH  22  25
ENDBRANCH  21  22
ENDBRANCH  14  16
ENDBRANCH  10  14
BRANCH   1  30
ATOM     30  C   UNL     1      -5.194  -2.224  -2.526  0.00  0.00    +0.152 C 
BRANCH  30  31
ATOM     31  C   UNL     1      -4.190  -2.936  -3.434  0.00  0.00    +0.181 C 
BRANCH  31  33
ATOM     32  C   UNL     1      -3.908  -3.787  -5.657  0.00  0.00    +0.194 C 
ATOM     33  O   UNL     1      -4.769  -3.127  -4.727  0.00  0.00    -0.381 OA
ENDBRANCH  31  33
ENDBRANCH  30  31
ENDBRANCH   1  30
TORSDOF 8
