REMARK  Name = ZINC65258700
REMARK  10 active torsions:
REMARK  status: ('A' for Active; 'I' for Inactive)
REMARK    1  A    between atoms: C_1  and  C_2
REMARK    2  A    between atoms: C_2  and  C_3
REMARK    3  A    between atoms: C_2  and  N_4
REMARK    4  A    between atoms: C_7  and  O_10
REMARK    5  A    between atoms: O_10  and  C_11
REMARK    6  A    between atoms: C_11  and  C_12
REMARK    7  A    between atoms: C_12  and  C_13
REMARK    8  A    between atoms: C_13  and  N_14
REMARK    9  A    between atoms: N_14  and  S_15
REMARK   10  A    between atoms: S_15  and  C_18
REMARK                            x       y       z     vdW  Elec       q    Type
REMARK                         _______ _______ _______ _____ _____    ______ ____
ROOT
ATOM      1  N   UNL     1       2.695  -5.675   8.224  0.00  0.00    -0.190 NA
ATOM      2  H   UNL     1       3.517  -5.178   8.361  0.00  0.00    +0.148 HD
ENDROOT
BRANCH   1   3
ATOM      3  S   UNL     1       2.276  -6.888   9.271  0.00  0.00    +0.060 S 
ATOM      4  O   UNL     1       3.319  -6.974  10.232  0.00  0.00    -0.153 OA
ATOM      5  O   UNL     1       0.921  -6.660   9.636  0.00  0.00    -0.153 OA
BRANCH   3   6
ATOM      6  C   UNL     1       2.305  -8.396   8.360  0.00  0.00    +0.123 A 
ATOM      7  C   UNL     1       1.228  -8.956   7.656  0.00  0.00    +0.061 A 
ATOM      8  C   UNL     1       1.685 -10.116   7.100  0.00  0.00    +0.106 A 
ATOM      9  N   UNL     1       3.010 -10.275   7.451  0.00  0.00    -0.341 N 
ATOM     10  C   UNL     1       3.374  -9.218   8.209  0.00  0.00    +0.115 A 
ATOM     11  C   UNL     1       3.824 -11.419   7.038  0.00  0.00    +0.123 C 
ATOM     12  C   UNL     1       3.370 -12.679   7.786  0.00  0.00    +0.040 C 
ATOM     13  C   UNL     1       1.844 -12.728   7.834  0.00  0.00    +0.106 C 
ATOM     14  N   UNL     1       1.212 -12.400   6.566  0.00  0.00    -0.310 N 
ATOM     15  C   UNL     1       0.982 -11.100   6.257  0.00  0.00    +0.261 C 
ATOM     16  O   UNL     1       0.246 -10.769   5.346  0.00  0.00    -0.269 OA
ATOM     17  H   UNL     1       0.958 -13.104   5.948  0.00  0.00    +0.149 HD
ENDBRANCH   3   6
ENDBRANCH   1   3
BRANCH   1  18
ATOM     18  C   UNL     1       1.824  -5.352   7.091  0.00  0.00    +0.108 C 
BRANCH  18  19
ATOM     19  C   UNL     1       2.222  -3.993   6.513  0.00  0.00    +0.045 C 
BRANCH  19  20
ATOM     20  C   UNL     1       1.313  -3.655   5.330  0.00  0.00    +0.161 C 
BRANCH  20  21
ATOM     21  O   UNL     1       1.685  -2.385   4.790  0.00  0.00    -0.377 OA
BRANCH  21  25
ATOM     22  N   UNL     1       0.713  -0.491   1.192  0.00  0.00    +0.381 N 
ATOM     23  C   UNL     1       0.030  -0.009   2.399  0.00  0.00    -0.076 C 
ATOM     24  C   UNL     1       0.811  -0.445   3.640  0.00  0.00    +0.013 C 
ATOM     25  C   UNL     1       0.893  -1.974   3.674  0.00  0.00    +0.115 C 
ATOM     26  C   UNL     1       1.540  -2.469   2.377  0.00  0.00    +0.013 C 
ATOM     27  C   UNL     1       0.732  -1.958   1.183  0.00  0.00    -0.076 C 
ATOM     28  H   UNL     1       1.660  -0.143   1.183  0.00  0.00    -0.081 HD
BRANCH  22  30
ATOM     29  C   UNL     1      -0.019   1.526   0.010  0.00  0.00    -0.014 C 
ATOM     30  C   UNL     1       0.002  -0.004   0.002  0.00  0.00    -0.075 C 
ATOM     31  C   UNL     1       0.718  -0.497  -1.257  0.00  0.00    -0.014 C 
ENDBRANCH  22  30
ENDBRANCH  21  25
ENDBRANCH  20  21
ENDBRANCH  19  20
ENDBRANCH  18  19
ENDBRANCH   1  18
TORSDOF 8
