REMARK  Name = ZINC63137686
REMARK  7 active torsions:
REMARK  status: ('A' for Active; 'I' for Inactive)
REMARK    1  A    between atoms: C_1  and  C_2
REMARK    2  A    between atoms: C_5  and  N_8
REMARK    3  A    between atoms: C_28  and  C_30
REMARK    4  A    between atoms: C_32  and  O_38
REMARK    5  A    between atoms: C_35  and  O_36
REMARK    6  A    between atoms: O_36  and  C_37
REMARK    7  A    between atoms: O_38  and  C_39
REMARK                            x       y       z     vdW  Elec       q    Type
REMARK                         _______ _______ _______ _____ _____    ______ ____
ROOT
ATOM      1  N   UNL     1       1.479  -3.921  -0.170  0.00  0.00    -0.288 N 
ATOM      2  C   UNL     1       0.229  -4.704  -0.166  0.00  0.00    +0.204 C 
ATOM      3  C   UNL     1       0.369  -5.838  -1.158  0.00  0.00    +0.234 C 
ATOM      4  O   UNL     1      -0.525  -6.124  -1.925  0.00  0.00    -0.274 OA
ATOM      5  N   UNL     1       1.557  -6.529  -1.149  0.00  0.00    -0.279 N 
ATOM      6  C   UNL     1       2.501  -6.129  -0.127  0.00  0.00    +0.167 C 
ATOM      7  C   UNL     1       2.647  -4.629  -0.136  0.00  0.00    +0.237 C 
ATOM      8  O   UNL     1       3.731  -4.086  -0.110  0.00  0.00    -0.274 OA
ATOM      9  C   UNL     1       3.831  -6.834  -0.067  0.00  0.00    +0.065 C 
ATOM     10  C   UNL     1       4.003  -7.705  -1.280  0.00  0.00    -0.034 C 
ATOM     11  C   UNL     1       5.046  -7.944  -2.063  0.00  0.00    -0.001 A 
ATOM     12  C   UNL     1       6.441  -7.477  -2.008  0.00  0.00    +0.010 A 
ATOM     13  C   UNL     1       7.262  -7.919  -2.997  0.00  0.00    +0.001 A 
ATOM     14  C   UNL     1       6.841  -8.769  -4.024  0.00  0.00    +0.002 A 
ATOM     15  C   UNL     1       5.579  -9.251  -4.150  0.00  0.00    +0.026 A 
ATOM     16  C   UNL     1       4.624  -8.860  -3.167  0.00  0.00    +0.043 A 
ATOM     17  N   UNL     1       3.371  -9.175  -3.041  0.00  0.00    -0.375 N 
ATOM     18  C   UNL     1       2.841  -8.527  -1.834  0.00  0.00    +0.131 C 
ATOM     19  C   UNL     1       1.745  -7.534  -2.186  0.00  0.00    +0.137 C 
ATOM     20  H   UNL     1       2.868  -9.743  -3.644  0.00  0.00    +0.160 HD
ENDROOT
BRANCH   1  25
ATOM     21  C   UNL     1      -0.002   1.611  -0.360  0.00  0.00    +0.007 C 
ATOM     22  C   UNL     1       0.009   0.082  -0.312  0.00  0.00    -0.014 C 
ATOM     23  C   UNL     1       0.747  -0.462  -1.537  0.00  0.00    +0.005 C 
ATOM     24  C   UNL     1       0.757  -1.991  -1.489  0.00  0.00    +0.023 C 
ATOM     25  C   UNL     1       1.469  -2.457  -0.216  0.00  0.00    +0.077 C 
ATOM     26  C   UNL     1       0.730  -1.913   1.008  0.00  0.00    +0.023 C 
ATOM     27  C   UNL     1       0.720  -0.384   0.960  0.00  0.00    +0.005 C 
ENDBRANCH   1  25
BRANCH  19  28
ATOM     28  C   UNL     1       0.442  -8.257  -2.409  0.00  0.00    +0.020 A 
ATOM     29  C   UNL     1      -0.027  -8.454  -3.694  0.00  0.00    +0.054 A 
ATOM     30  C   UNL     1      -1.226  -9.120  -3.900  0.00  0.00    +0.121 A 
ATOM     31  C   UNL     1      -1.954  -9.589  -2.817  0.00  0.00    +0.049 A 
ATOM     32  C   UNL     1      -1.486  -9.392  -1.532  0.00  0.00    +0.049 A 
ATOM     33  C   UNL     1      -0.284  -8.730  -1.327  0.00  0.00    +0.125 A 
BRANCH  33  34
ATOM     34  O   UNL     1       0.180  -8.541  -0.062  0.00  0.00    -0.495 OA
ATOM     35  C   UNL     1      -0.618  -9.055   1.006  0.00  0.00    +0.277 C 
ENDBRANCH  33  34
BRANCH  30  36
ATOM     36  O   UNL     1      -1.687  -9.314  -5.165  0.00  0.00    -0.495 OA
ATOM     37  C   UNL     1      -2.929 -10.008  -5.303  0.00  0.00    +0.277 C 
ENDBRANCH  30  36
ENDBRANCH  19  28
TORSDOF 4
