REMARK  Name = ZINC35694928
REMARK  11 active torsions:
REMARK  status: ('A' for Active; 'I' for Inactive)
REMARK    1  A    between atoms: C_1  and  C_2
REMARK    2  A    between atoms: C_5  and  N_8
REMARK    3  A    between atoms: C_10  and  C_30
REMARK    4  A    between atoms: C_14  and  C_16
REMARK    5  A    between atoms: C_16  and  N_17
REMARK    6  A    between atoms: N_17  and  C_18
REMARK    7  A    between atoms: C_18  and  C_19
REMARK    8  A    between atoms: C_19  and  N_20
REMARK    9  A    between atoms: N_20  and  C_21
REMARK   10  A    between atoms: N_20  and  C_22
REMARK   11  A    between atoms: C_23  and  C_25
REMARK                            x       y       z     vdW  Elec       q    Type
REMARK                         _______ _______ _______ _____ _____    ______ ____
ROOT
ATOM      1  N   UNL     1       0.577  -2.734   0.673  0.00  0.00    -0.287 N 
ATOM      2  C   UNL     1      -0.416  -3.265  -0.114  0.00  0.00    +0.122 A 
ATOM      3  C   UNL     1      -0.296  -4.615  -0.040  0.00  0.00    +0.091 A 
ATOM      4  N   UNL     1       0.744  -4.898   0.773  0.00  0.00    -0.214 NA
ATOM      5  C   UNL     1       1.276  -3.780   1.200  0.00  0.00    +0.207 A 
ATOM      6  N   UNL     1       2.368  -3.676   2.052  0.00  0.00    -0.254 N 
ATOM      7  C   UNL     1       2.975  -4.790   2.507  0.00  0.00    +0.237 C 
ATOM      8  O   UNL     1       2.568  -5.882   2.173  0.00  0.00    -0.274 OA
ATOM      9  H   UNL     1       2.693  -2.802   2.319  0.00  0.00    +0.158 HD
ENDROOT
BRANCH   1  14
ATOM     10  C   UNL     1       1.591   2.780   1.551  0.00  0.00    +0.044 C 
ATOM     11  C   UNL     1       1.322   1.316   1.318  0.00  0.00    -0.050 A 
ATOM     12  C   UNL     1       1.171   0.839   0.029  0.00  0.00    +0.005 A 
ATOM     13  C   UNL     1       0.923  -0.503  -0.188  0.00  0.00    +0.026 A 
ATOM     14  C   UNL     1       0.828  -1.372   0.890  0.00  0.00    +0.049 A 
ATOM     15  C   UNL     1       0.981  -0.890   2.183  0.00  0.00    +0.026 A 
ATOM     16  C   UNL     1       1.232   0.452   2.393  0.00  0.00    +0.005 A 
ENDBRANCH   1  14
BRANCH   3  17
ATOM     17  C   UNL     1      -1.157  -5.606  -0.731  0.00  0.00    +0.002 A 
ATOM     18  C   UNL     1      -2.199  -5.175  -1.551  0.00  0.00    +0.011 A 
ATOM     19  C   UNL     1      -2.996  -6.101  -2.192  0.00  0.00    +0.020 A 
ATOM     20  C   UNL     1      -2.764  -7.455  -2.022  0.00  0.00    +0.041 A 
ATOM     21  C   UNL     1      -1.730  -7.888  -1.208  0.00  0.00    +0.020 A 
ATOM     22  C   UNL     1      -0.923  -6.970  -0.567  0.00  0.00    +0.011 A 
ATOM     23 CL   UNL     1      -3.772  -8.614  -2.830  0.00  0.00    -0.084 Cl
ENDBRANCH   3  17
BRANCH   7  24
ATOM     24  C   UNL     1       4.160  -4.677   3.431  0.00  0.00    +0.204 C 
BRANCH  24  25
ATOM     25  N   UNL     1       4.637  -6.018   3.780  0.00  0.00    -0.288 N 
ATOM     26  C   UNL     1       4.075  -6.686   4.807  0.00  0.00    +0.282 C 
ATOM     27  O   UNL     1       4.534  -7.757   5.159  0.00  0.00    -0.267 OA
BRANCH  26  28
ATOM     28  C   UNL     1       2.912  -6.123   5.500  0.00  0.00    +0.189 A 
ATOM     29  C   UNL     1       2.317  -6.637   6.616  0.00  0.00    +0.054 A 
ATOM     30  C   UNL     1       1.249  -5.783   6.933  0.00  0.00    +0.042 A 
ATOM     31  C   UNL     1       1.239  -4.798   6.008  0.00  0.00    +0.196 A 
ATOM     32  O   UNL     1       2.246  -5.004   5.149  0.00  0.00    -0.458 OA
ENDBRANCH  26  28
BRANCH  25  33
ATOM     33  C   UNL     1       5.723  -6.632   3.013  0.00  0.00    +0.090 C 
BRANCH  33  34
ATOM     34  C   UNL     1       7.067  -6.257   3.641  0.00  0.00    -0.060 C 
BRANCH  34  35
ATOM     35  N   UNL     1       8.156  -6.872   2.872  0.00  0.00    +0.377 N 
ATOM     36  C   UNL     1       9.448  -6.416   3.401  0.00  0.00    -0.097 C 
ATOM     37  C   UNL     1       8.070  -8.335   2.985  0.00  0.00    -0.097 C 
ATOM     38  H   UNL     1       8.076  -6.605   1.902  0.00  0.00    -0.083 HD
ENDBRANCH  34  35
ENDBRANCH  33  34
ENDBRANCH  25  33
ENDBRANCH  24  25
ENDBRANCH   7  24
TORSDOF 8
