REMARK  Name = ZINC41510772
REMARK  10 active torsions:
REMARK  status: ('A' for Active; 'I' for Inactive)
REMARK    1  A    between atoms: C_1  and  C_2
REMARK    2  A    between atoms: C_2  and  N_3
REMARK    3  A    between atoms: N_3  and  C_4
REMARK    4  A    between atoms: N_3  and  C_6
REMARK    5  A    between atoms: C_4  and  C_5
REMARK    6  A    between atoms: C_6  and  C_7
REMARK    7  A    between atoms: C_8  and  O_31
REMARK    8  A    between atoms: C_17  and  C_18
REMARK    9  A    between atoms: C_24  and  O_29
REMARK   10  A    between atoms: O_29  and  C_30
REMARK                            x       y       z     vdW  Elec       q    Type
REMARK                         _______ _______ _______ _____ _____    ______ ____
ROOT
ATOM      1  C   UNL     1       1.772  -2.453   2.471  0.00  0.00    +0.020 A 
ATOM      2  C   UNL     1       3.155  -2.423   2.546  0.00  0.00    +0.122 A 
ATOM      3  C   UNL     1       3.807  -2.786   3.722  0.00  0.00    +0.046 A 
ATOM      4  C   UNL     1       3.089  -3.178   4.817  0.00  0.00    +0.016 A 
ATOM      5  C   UNL     1       1.695  -3.213   4.756  0.00  0.00    +0.026 A 
ATOM      6  C   UNL     1       1.030  -2.843   3.575  0.00  0.00    +0.144 A 
ATOM      7  O   UNL     1      -0.319  -2.874   3.522  0.00  0.00    -0.422 OA
ATOM      8  C   UNL     1      -1.064  -3.248   4.574  0.00  0.00    +0.338 A 
ATOM      9  O   UNL     1      -2.278  -3.257   4.468  0.00  0.00    -0.245 OA
ATOM     10  C   UNL     1      -0.484  -3.628   5.794  0.00  0.00    +0.101 A 
ATOM     11  C   UNL     1       0.896  -3.631   5.921  0.00  0.00    +0.006 A 
ENDROOT
BRANCH  11  12
ATOM     12  C   UNL     1       1.542  -4.025   7.187  0.00  0.00    +0.068 A 
ATOM     13  C   UNL     1       1.370  -5.293   7.721  0.00  0.00    +0.027 A 
ATOM     14  C   UNL     1       1.998  -5.588   8.959  0.00  0.00    +0.022 A 
ATOM     15  C   UNL     1       2.028  -6.904   9.447  0.00  0.00    +0.012 A 
ATOM     16  C   UNL     1       2.671  -7.181  10.618  0.00  0.00    +0.004 A 
ATOM     17  C   UNL     1       3.292  -6.171  11.340  0.00  0.00    +0.049 A 
ATOM     18  C   UNL     1       3.260  -4.864  10.890  0.00  0.00    +0.163 A 
ATOM     19  C   UNL     1       2.603  -4.558   9.700  0.00  0.00    +0.180 A 
ATOM     20  O   UNL     1       2.527  -3.275   9.269  0.00  0.00    -0.418 OA
ATOM     21  C   UNL     1       2.403  -3.087   7.933  0.00  0.00    +0.345 A 
ATOM     22  O   UNL     1       2.976  -2.175   7.367  0.00  0.00    -0.245 OA
BRANCH  18  23
ATOM     23  O   UNL     1       3.868  -3.880  11.606  0.00  0.00    -0.491 OA
ATOM     24  C   UNL     1       4.522  -4.268  12.816  0.00  0.00    +0.277 C 
ENDBRANCH  18  23
ENDBRANCH  11  12
BRANCH   2  25
ATOM     25  O   UNL     1       3.881  -2.036   1.466  0.00  0.00    -0.506 OA
ATOM     26  H   UNL     1       4.058  -1.086   1.430  0.00  0.00    +0.292 HD
ENDBRANCH   2  25
BRANCH   1  27
ATOM     27  C   UNL     1       1.076  -2.057   1.194  0.00  0.00    -0.036 C 
BRANCH  27  28
ATOM     28  N   UNL     1       0.646  -0.655   1.285  0.00  0.00    +0.382 N 
ATOM     29  H   UNL     1       0.075  -0.532   2.107  0.00  0.00    -0.081 HD
BRANCH  28  31
ATOM     30  C   UNL     1       1.380   1.661   1.593  0.00  0.00    -0.017 C 
ATOM     31  C   UNL     1       1.827   0.214   1.374  0.00  0.00    -0.082 C 
ENDBRANCH  28  31
BRANCH  28  32
ATOM     32  C   UNL     1      -0.132  -0.304   0.090  0.00  0.00    -0.082 C 
ATOM     33  C   UNL     1      -1.440  -1.097   0.081  0.00  0.00    -0.017 C 
ENDBRANCH  28  32
ENDBRANCH  27  28
ENDBRANCH   1  27
TORSDOF 7
