REMARK  Name = ZINC13032915
REMARK  10 active torsions:
REMARK  status: ('A' for Active; 'I' for Inactive)
REMARK    1  A    between atoms: C_1  and  C_2
REMARK    2  A    between atoms: C_7  and  C_15
REMARK    3  A    between atoms: C_13  and  C_14
REMARK    4  A    between atoms: C_15  and  N_60
REMARK    5  A    between atoms: C_16  and  C_17
REMARK    6  A    between atoms: C_16  and  N_60
REMARK    7  A    between atoms: C_24  and  C_25
REMARK    8  A    between atoms: C_24  and  N_60
REMARK    9  A    between atoms: N_29  and  C_30
REMARK   10  A    between atoms: C_30  and  C_31
REMARK                            x       y       z     vdW  Elec       q    Type
REMARK                         _______ _______ _______ _____ _____    ______ ____
ROOT
ATOM      1  N   UNL     1       6.371   2.901   1.803  0.00  0.00    +0.390 N 
ATOM      2  H   UNL     1       5.578   3.166   2.399  0.00  0.00    -0.080 HD
ENDROOT
BRANCH   1   3
ATOM      3  C   UNL     1       5.907   2.805   0.403  0.00  0.00    -0.036 C 
BRANCH   3  10
ATOM      4  C   UNL     1      -1.049  -1.093   0.204  0.00  0.00    +0.044 C 
ATOM      5  C   UNL     1       0.136  -0.163   0.258  0.00  0.00    -0.046 A 
ATOM      6  C   UNL     1      -0.070   1.206   0.365  0.00  0.00    +0.004 A 
ATOM      7  C   UNL     1       0.990   2.067   0.415  0.00  0.00    +0.010 A 
ATOM      8  C   UNL     1       2.294   1.564   0.360  0.00  0.00    -0.001 A 
ATOM      9  C   UNL     1       3.453   2.457   0.411  0.00  0.00    +0.017 A 
ATOM     10  C   UNL     1       4.694   1.913   0.353  0.00  0.00    +0.001 A 
ATOM     11  C   UNL     1       4.852   0.515   0.245  0.00  0.00    +0.251 A 
ATOM     12  O   UNL     1       5.976   0.047   0.193  0.00  0.00    -0.268 OA
ATOM     13  N   UNL     1       3.794  -0.313   0.197  0.00  0.00    -0.322 N 
ATOM     14  H   UNL     1       3.939  -1.270   0.122  0.00  0.00    +0.169 HD
ATOM     15  C   UNL     1       2.507   0.177   0.252  0.00  0.00    +0.052 A 
ATOM     16  C   UNL     1       1.412  -0.680   0.202  0.00  0.00    -0.024 A 
ATOM     17  C   UNL     1       1.620  -2.168   0.087  0.00  0.00    +0.046 C 
ENDBRANCH   3  10
ENDBRANCH   1   3
BRANCH   1  18
ATOM     18  C   UNL     1       6.894   1.594   2.253  0.00  0.00    -0.042 C 
BRANCH  18  19
ATOM     19  C   UNL     1       7.206   1.675   3.725  0.00  0.00    -0.064 A 
ATOM     20  C   UNL     1       8.501   1.920   4.144  0.00  0.00    +0.004 A 
ATOM     21  C   UNL     1       8.787   1.999   5.494  0.00  0.00    +0.038 A 
ATOM     22  C   UNL     1       7.779   1.822   6.426  0.00  0.00    +0.123 A 
ATOM     23  C   UNL     1       6.484   1.571   6.005  0.00  0.00    +0.038 A 
ATOM     24  C   UNL     1       6.199   1.498   4.655  0.00  0.00    +0.004 A 
ATOM     25  F   UNL     1       8.058   1.894   7.746  0.00  0.00    -0.205 F 
ENDBRANCH  18  19
ENDBRANCH   1  18
BRANCH   1  26
ATOM     26  C   UNL     1       7.423   3.933   1.917  0.00  0.00    +0.001 C 
BRANCH  26  27
ATOM     27  C   UNL     1       6.786   5.292   1.781  0.00  0.00    +0.136 A 
ATOM     28  N   UNL     1       6.696   6.008   0.688  0.00  0.00    -0.115 NA
ATOM     29  N   UNL     1       6.083   7.103   0.979  0.00  0.00    -0.023 NA
ATOM     30  N   UNL     1       5.786   7.108   2.231  0.00  0.00    -0.044 NA
ATOM     31  N   UNL     1       6.203   6.008   2.761  0.00  0.00    -0.224 N 
BRANCH  31  32
ATOM     32  C   UNL     1       6.067   5.612   4.165  0.00  0.00    +0.221 C 
BRANCH  32  33
ATOM     33  C   UNL     1       7.198   6.205   4.966  0.00  0.00    +0.126 A 
ATOM     34  C   UNL     1       7.187   7.406   5.572  0.00  0.00    +0.046 A 
ATOM     35  C   UNL     1       8.442   7.556   6.205  0.00  0.00    +0.041 A 
ATOM     36  C   UNL     1       9.147   6.442   5.942  0.00  0.00    +0.195 A 
ATOM     37  O   UNL     1       8.389   5.627   5.191  0.00  0.00    -0.466 OA
ENDBRANCH  32  33
ENDBRANCH  31  32
ENDBRANCH  26  27
ENDBRANCH   1  26
TORSDOF 8
