REMARK  Name = ZINC39480827
REMARK  11 active torsions:
REMARK  status: ('A' for Active; 'I' for Inactive)
REMARK    1  A    between atoms: C_1  and  C_2
REMARK    2  A    between atoms: C_2  and  C_3
REMARK    3  A    between atoms: C_2  and  S_4
REMARK    4  A    between atoms: S_4  and  C_7
REMARK    5  A    between atoms: N_10  and  C_14
REMARK    6  A    between atoms: C_16  and  C_31
REMARK    7  A    between atoms: C_19  and  N_20
REMARK    8  A    between atoms: N_20  and  S_21
REMARK    9  A    between atoms: S_21  and  C_24
REMARK   10  A    between atoms: C_24  and  C_25
REMARK   11  A    between atoms: C_31  and  C_32
REMARK                            x       y       z     vdW  Elec       q    Type
REMARK                         _______ _______ _______ _____ _____    ______ ____
ROOT
ATOM      1  C   UNL     1      -5.050  -0.058  -3.805  0.00  0.00    +0.053 A 
ATOM      2  C   UNL     1      -6.432  -0.069  -3.693  0.00  0.00    +0.029 A 
ATOM      3  C   UNL     1      -7.200  -0.686  -4.663  0.00  0.00    -0.041 A 
ATOM      4  C   UNL     1      -6.594  -1.294  -5.746  0.00  0.00    +0.006 A 
ATOM      5  C   UNL     1      -5.217  -1.289  -5.866  0.00  0.00    +0.026 A 
ATOM      6  C   UNL     1      -4.439  -0.667  -4.901  0.00  0.00    +0.069 A 
ENDROOT
BRANCH   1   9
ATOM      7  C   UNL     1      -2.275   0.042  -1.526  0.00  0.00    +0.215 C 
ATOM      8  C   UNL     1      -3.785  -0.182  -1.655  0.00  0.00    +0.147 C 
ATOM      9  N   UNL     1      -4.271   0.567  -2.824  0.00  0.00    -0.324 N 
ATOM     10  C   UNL     1      -3.916   1.990  -2.936  0.00  0.00    +0.120 C 
ATOM     11  C   UNL     1      -2.400   2.128  -2.756  0.00  0.00    +0.101 C 
ATOM     12  N   UNL     1      -1.997   1.484  -1.499  0.00  0.00    -0.293 NA
ATOM     13  H   UNL     1      -2.445   1.924  -0.709  0.00  0.00    +0.124 HD
BRANCH   7  14
ATOM     14  S   UNL     1      -1.679  -0.718   0.009  0.00  0.00    -0.012 S 
ATOM     15  O   UNL     1      -1.846  -2.126  -0.092  0.00  0.00    -0.173 OA
ATOM     16  O   UNL     1      -2.261  -0.030   1.107  0.00  0.00    -0.173 OA
BRANCH  14  18
ATOM     17  C   UNL     1       0.301   1.169  -0.050  0.00  0.00    +0.031 C 
ATOM     18  C   UNL     1       0.097  -0.347  -0.024  0.00  0.00    +0.126 C 
ATOM     19  C   UNL     1       0.762  -0.930   1.225  0.00  0.00    +0.031 C 
ENDBRANCH  14  18
ENDBRANCH   7  14
ENDBRANCH   1   9
BRANCH   6  20
ATOM     20  N   UNL     1      -3.044  -0.656  -5.023  0.00  0.00    -0.219 N 
ATOM     21  H   UNL     1      -2.488  -0.719  -4.231  0.00  0.00    +0.173 HD
BRANCH  20  22
ATOM     22  S   UNL     1      -2.345  -0.534  -6.519  0.00  0.00    +0.047 S 
ATOM     23  O   UNL     1      -0.950  -0.461  -6.262  0.00  0.00    -0.155 OA
ATOM     24  O   UNL     1      -2.889  -1.616  -7.263  0.00  0.00    -0.155 OA
BRANCH  22  25
ATOM     25  C   UNL     1      -2.941   1.044  -7.185  0.00  0.00    +0.223 C 
BRANCH  25  26
ATOM     26  C   UNL     1      -2.361   1.261  -8.559  0.00  0.00    -0.025 A 
ATOM     27  C   UNL     1      -1.152   1.915  -8.704  0.00  0.00    +0.005 A 
ATOM     28  C   UNL     1      -0.620   2.114  -9.964  0.00  0.00    +0.000 A 
ATOM     29  C   UNL     1      -1.297   1.658 -11.080  0.00  0.00    +0.000 A 
ATOM     30  C   UNL     1      -2.506   1.003 -10.935  0.00  0.00    +0.000 A 
ATOM     31  C   UNL     1      -3.036   0.801  -9.674  0.00  0.00    +0.005 A 
ENDBRANCH  25  26
ENDBRANCH  22  25
ENDBRANCH  20  22
ENDBRANCH   6  20
BRANCH   3  32
ATOM     32  C   UNL     1      -8.702  -0.697  -4.538  0.00  0.00    +0.070 C 
BRANCH  32  33
ATOM     33  C   UNL     1      -9.271   0.521  -5.220  0.00  0.00    -0.043 A 
ATOM     34  C   UNL     1      -9.446   1.693  -4.508  0.00  0.00    +0.004 A 
ATOM     35  C   UNL     1      -9.968   2.810  -5.134  0.00  0.00    +0.000 A 
ATOM     36  C   UNL     1     -10.314   2.755  -6.471  0.00  0.00    +0.000 A 
ATOM     37  C   UNL     1     -10.139   1.583  -7.183  0.00  0.00    +0.000 A 
ATOM     38  C   UNL     1      -9.613   0.468  -6.559  0.00  0.00    +0.004 A 
ENDBRANCH  32  33
ENDBRANCH   3  32
TORSDOF 9
