REMARK  Name = ZINC04276346
REMARK  6 active torsions:
REMARK  status: ('A' for Active; 'I' for Inactive)
REMARK    1  A    between atoms: C_1  and  C_2
REMARK    2  A    between atoms: C_3  and  C_29
REMARK    3  A    between atoms: C_10  and  C_12
REMARK    4  A    between atoms: C_17  and  C_18
REMARK    5  A    between atoms: C_17  and  N_52
REMARK    6  A    between atoms: C_18  and  C_19
REMARK                            x       y       z     vdW  Elec       q    Type
REMARK                         _______ _______ _______ _____ _____    ______ ____
ROOT
ATOM      1  C   UNL     1       5.059   8.203  -4.357  0.00  0.00    +0.045 C 
ATOM      2  C   UNL     1       4.660   9.275  -3.376  0.00  0.00    -0.037 A 
ATOM      3  C   UNL     1       5.259  10.489  -3.419  0.00  0.00    -0.008 A 
ATOM      4  S   UNL     1       4.443  11.356  -2.085  0.00  0.00    -0.078 S 
ATOM      5  C   UNL     1       3.372  10.049  -1.573  0.00  0.00    +0.075 A 
ATOM      6  C   UNL     1       3.677   9.018  -2.427  0.00  0.00    -0.032 A 
ATOM      7  C   UNL     1       2.934   7.695  -2.278  0.00  0.00    -0.038 C 
ATOM      8  C   UNL     1       1.538   8.799  -0.601  0.00  0.00    +0.040 C 
ATOM      9  N   UNL     1       2.421   9.987  -0.567  0.00  0.00    -0.276 N 
ATOM     10  C   UNL     1       2.309  10.942   0.377  0.00  0.00    +0.285 C 
ATOM     11  O   UNL     1       3.124  11.845   0.430  0.00  0.00    -0.266 OA
ATOM     12  C   UNL     1       6.336  10.982  -4.351  0.00  0.00    +0.052 C 
ATOM     13  N   UNL     1       2.389   7.619  -0.899  0.00  0.00    +0.393 N 
ATOM     14  H   UNL     1       3.173   7.603  -0.236  0.00  0.00    -0.079 HD
ENDROOT
BRANCH  10  15
ATOM     15  C   UNL     1       1.204  10.894   1.341  0.00  0.00    +0.189 A 
ATOM     16  C   UNL     1       1.042  11.719   2.417  0.00  0.00    +0.054 A 
ATOM     17  C   UNL     1      -0.142  11.319   3.057  0.00  0.00    +0.042 A 
ATOM     18  C   UNL     1      -0.643  10.281   2.352  0.00  0.00    +0.196 A 
ATOM     19  O   UNL     1       0.168  10.031   1.315  0.00  0.00    -0.458 OA
ENDBRANCH  10  15
BRANCH  13  20
ATOM     20  C   UNL     1       1.603   6.381  -0.740  0.00  0.00    -0.071 C 
BRANCH  20  21
ATOM     21  C   UNL     1       1.236   6.225   0.738  0.00  0.00    +0.019 C 
BRANCH  21  22
ATOM     22  C   UNL     1       0.457   4.949   0.929  0.00  0.00    -0.024 A 
ATOM     23  C   UNL     1      -0.879   4.825   0.952  0.00  0.00    +0.087 A 
ATOM     24  N   UNL     1      -1.223   3.515   1.148  0.00  0.00    -0.360 N 
ATOM     25  H   UNL     1      -2.131   3.179   1.201  0.00  0.00    +0.165 HD
ATOM     26  C   UNL     1      -0.087   2.745   1.259  0.00  0.00    +0.047 A 
ATOM     27  C   UNL     1       1.015   3.609   1.127  0.00  0.00    +0.003 A 
ATOM     28  C   UNL     1       2.313   3.099   1.198  0.00  0.00    +0.010 A 
ATOM     29  C   UNL     1       2.506   1.761   1.397  0.00  0.00    +0.001 A 
ATOM     30  C   UNL     1       1.422   0.904   1.528  0.00  0.00    +0.002 A 
ATOM     31  C   UNL     1       0.133   1.385   1.454  0.00  0.00    +0.026 A 
ENDBRANCH  21  22
ENDBRANCH  20  21
ENDBRANCH  13  20
TORSDOF 4
