REMARK  Name = ZINC36543099
REMARK  15 active torsions:
REMARK  status: ('A' for Active; 'I' for Inactive)
REMARK    1  A    between atoms: C_1  and  C_2
REMARK    2  A    between atoms: C_2  and  C_3
REMARK    3  A    between atoms: C_3  and  C_5
REMARK    4  A    between atoms: C_3  and  C_11
REMARK    5  A    between atoms: N_13  and  C_14
REMARK    6  A    between atoms: N_13  and  C_21
REMARK    7  A    between atoms: C_21  and  C_23
REMARK    8  A    between atoms: C_21  and  C_32
REMARK    9  A    between atoms: C_26  and  N_29
REMARK   10  A    between atoms: N_29  and  C_30
REMARK   11  A    between atoms: N_29  and  C_31
REMARK   12  A    between atoms: N_34  and  C_35
REMARK   13  A    between atoms: C_35  and  C_36
REMARK   14  A    between atoms: C_35  and  C_37
REMARK   15  A    between atoms: C_35  and  C_38
REMARK                            x       y       z     vdW  Elec       q    Type
REMARK                         _______ _______ _______ _____ _____    ______ ____
ROOT
ATOM      1  C   UNL     1       2.555  -0.592  -0.420  0.00  0.00    +0.228 C 
ATOM      2  O   UNL     1       3.466  -0.542   0.379  0.00  0.00    -0.275 OA
ATOM      3  N   UNL     1       2.491   0.302  -1.427  0.00  0.00    -0.253 N 
ENDROOT
BRANCH   3   4
ATOM      4  C   UNL     1       1.466   0.215  -2.376  0.00  0.00    +0.056 A 
ATOM      5  C   UNL     1       0.191   0.670  -2.066  0.00  0.00    +0.025 A 
ATOM      6  C   UNL     1      -0.819   0.584  -3.005  0.00  0.00    +0.002 A 
ATOM      7  C   UNL     1      -0.562   0.045  -4.252  0.00  0.00    +0.002 A 
ATOM      8  C   UNL     1       0.706  -0.409  -4.564  0.00  0.00    +0.022 A 
ATOM      9  C   UNL     1       1.723  -0.321  -3.631  0.00  0.00    +0.062 A 
ATOM     10 CL   UNL     1       3.316  -0.885  -4.026  0.00  0.00    -0.082 Cl
ENDBRANCH   3   4
BRANCH   1  11
ATOM     11  C   UNL     1       1.495  -1.655  -0.288  0.00  0.00    +0.105 C 
BRANCH  11  12
ATOM     12  C   UNL     1       2.022  -2.961  -0.825  0.00  0.00    -0.036 A 
ATOM     13  C   UNL     1       3.141  -3.540  -0.257  0.00  0.00    +0.004 A 
ATOM     14  C   UNL     1       3.625  -4.737  -0.749  0.00  0.00    +0.000 A 
ATOM     15  C   UNL     1       2.990  -5.356  -1.809  0.00  0.00    +0.000 A 
ATOM     16  C   UNL     1       1.870  -4.777  -2.377  0.00  0.00    +0.000 A 
ATOM     17  C   UNL     1       1.383  -3.582  -1.881  0.00  0.00    +0.004 A 
ENDBRANCH  11  12
BRANCH  11  19
ATOM     18  C   UNL     1       0.484  -0.531   1.702  0.00  0.00    +0.005 C 
ATOM     19  C   UNL     1       1.122  -1.823   1.187  0.00  0.00    +0.014 C 
ENDBRANCH  11  19
ENDBRANCH   1  11
BRANCH   3  20
ATOM     20  C   UNL     1       3.495   1.364  -1.527  0.00  0.00    +0.197 C 
BRANCH  20  21
ATOM     21  C   UNL     1       3.429   2.235  -0.299  0.00  0.00    -0.018 A 
ATOM     22  C   UNL     1       2.208   2.701   0.152  0.00  0.00    +0.008 A 
ATOM     23  C   UNL     1       2.144   3.499   1.277  0.00  0.00    +0.023 A 
ATOM     24  C   UNL     1       3.309   3.835   1.956  0.00  0.00    +0.029 A 
ATOM     25  C   UNL     1       4.534   3.365   1.500  0.00  0.00    +0.023 A 
ATOM     26  C   UNL     1       4.590   2.562   0.377  0.00  0.00    +0.008 A 
BRANCH  24  27
ATOM     27  N   UNL     1       3.249   4.642   3.093  0.00  0.00    -0.336 N 
ATOM     28  C   UNL     1       1.956   5.137   3.573  0.00  0.00    +0.129 C 
ATOM     29  C   UNL     1       4.478   4.995   3.808  0.00  0.00    +0.129 C 
ENDBRANCH  24  27
ENDBRANCH  20  21
BRANCH  20  30
ATOM     30  C   UNL     1       3.220   2.200  -2.751  0.00  0.00    +0.239 C 
ATOM     31  O   UNL     1       2.077   2.429  -3.085  0.00  0.00    -0.273 OA
ATOM     32  N   UNL     1       4.245   2.692  -3.474  0.00  0.00    -0.309 N 
ATOM     33  H   UNL     1       5.160   2.509  -3.207  0.00  0.00    +0.149 HD
BRANCH  32  34
ATOM     34  C   UNL     1       3.979   3.505  -4.664  0.00  0.00    +0.026 C 
ATOM     35  C   UNL     1       3.178   4.746  -4.265  0.00  0.00    +0.031 C 
ATOM     36  C   UNL     1       5.304   3.934  -5.296  0.00  0.00    +0.031 C 
ATOM     37  C   UNL     1       3.176   2.682  -5.674  0.00  0.00    +0.031 C 
ENDBRANCH  32  34
ENDBRANCH  20  30
ENDBRANCH   3  20
TORSDOF 9
