REMARK  Name = ZINC63384124
REMARK  8 active torsions:
REMARK  status: ('A' for Active; 'I' for Inactive)
REMARK    1  A    between atoms: C_1  and  C_2
REMARK    2  A    between atoms: C_2  and  C_4
REMARK    3  A    between atoms: C_2  and  N_12
REMARK    4  A    between atoms: C_4  and  C_5
REMARK    5  A    between atoms: C_5  and  C_6
REMARK    6  A    between atoms: C_15  and  C_22
REMARK    7  A    between atoms: C_29  and  O_34
REMARK    8  A    between atoms: O_34  and  C_35
REMARK                            x       y       z     vdW  Elec       q    Type
REMARK                         _______ _______ _______ _____ _____    ______ ____
ROOT
ATOM      1  N   UNL     1      -1.352  -0.574  -0.027  0.00  0.00    -0.258 N 
ATOM      2  C   UNL     1      -1.768  -1.356   0.988  0.00  0.00    +0.262 A 
ATOM      3  O   UNL     1      -0.988  -1.697   1.860  0.00  0.00    -0.267 OA
ATOM      4  C   UNL     1      -3.110  -1.776   1.034  0.00  0.00    +0.070 A 
ATOM      5  C   UNL     1      -3.962  -1.381   0.046  0.00  0.00    +0.259 A 
ATOM      6  N   UNL     1      -3.496  -0.585  -0.969  0.00  0.00    -0.275 N 
ATOM      7  H   UNL     1      -4.099  -0.300  -1.674  0.00  0.00    +0.173 HD
ATOM      8  C   UNL     1      -2.210  -0.190  -0.990  0.00  0.00    +0.332 A 
ATOM      9  O   UNL     1      -1.816   0.520  -1.895  0.00  0.00    -0.246 OA
ATOM     10  O   UNL     1      -5.254  -1.771   0.067  0.00  0.00    -0.267 OA
ENDROOT
BRANCH   4  11
ATOM     11  C   UNL     1      -3.598  -2.652   2.159  0.00  0.00    -0.003 C 
ATOM     12  C   UNL     1      -4.797  -1.992   2.843  0.00  0.00    +0.097 C 
ATOM     13  C   UNL     1      -5.914  -1.962   1.805  0.00  0.00    -0.041 C 
ATOM     14  C   UNL     1      -6.321  -0.704   1.728  0.00  0.00    +0.002 A 
ATOM     15  C   UNL     1      -7.415  -0.066   0.980  0.00  0.00    +0.055 A 
ATOM     16  C   UNL     1      -7.547   1.282   1.121  0.00  0.00    +0.121 A 
ATOM     17  C   UNL     1      -6.713   2.072   1.925  0.00  0.00    +0.047 A 
ATOM     18  C   UNL     1      -5.681   1.588   2.662  0.00  0.00    +0.029 A 
ATOM     19  C   UNL     1      -5.440   0.140   2.595  0.00  0.00    +0.043 A 
ATOM     20  N   UNL     1      -4.543  -0.601   3.213  0.00  0.00    -0.379 N 
ATOM     21  C   UNL     1      -6.294  -3.195   1.022  0.00  0.00    +0.014 C 
ATOM     22  C   UNL     1      -4.973  -3.804   0.516  0.00  0.00    -0.077 C 
ATOM     23  N   UNL     1      -4.026  -3.954   1.625  0.00  0.00    +0.386 N 
ATOM     24  H   UNL     1      -3.215  -4.457   1.299  0.00  0.00    -0.085 HD
ATOM     25  H   UNL     1      -3.838  -0.289   3.802  0.00  0.00    +0.160 HD
ATOM     26  H   UNL     1      -4.465  -4.483   2.362  0.00  0.00    -0.085 HD
BRANCH  16  27
ATOM     27  O   UNL     1      -8.549   1.899   0.441  0.00  0.00    -0.495 OA
ATOM     28  C   UNL     1      -8.669   3.314   0.604  0.00  0.00    +0.277 C 
ENDBRANCH  16  27
ENDBRANCH   4  11
BRANCH   1  30
ATOM     29  C   UNL     1       0.098   1.396  -0.040  0.00  0.00    +0.031 C 
ATOM     30  C   UNL     1       0.044  -0.133  -0.080  0.00  0.00    +0.092 C 
BRANCH  30  31
ATOM     31  C   UNL     1       0.689  -0.632  -1.374  0.00  0.00    +0.030 C 
BRANCH  31  32
ATOM     32  C   UNL     1       0.747  -2.161  -1.358  0.00  0.00    +0.037 C 
BRANCH  32  33
ATOM     33  C   UNL     1       1.382  -2.653  -2.633  0.00  0.00    -0.047 A 
ATOM     34  C   UNL     1       0.596  -2.920  -3.738  0.00  0.00    +0.003 A 
ATOM     35  C   UNL     1       1.178  -3.372  -4.908  0.00  0.00    +0.000 A 
ATOM     36  C   UNL     1       2.546  -3.555  -4.973  0.00  0.00    +0.000 A 
ATOM     37  C   UNL     1       3.333  -3.287  -3.868  0.00  0.00    +0.000 A 
ATOM     38  C   UNL     1       2.751  -2.832  -2.700  0.00  0.00    +0.003 A 
ENDBRANCH  32  33
ENDBRANCH  31  32
ENDBRANCH  30  31
ENDBRANCH   1  30
TORSDOF 6
