REMARK  Name = ZINC66404063
REMARK  6 active torsions:
REMARK  status: ('A' for Active; 'I' for Inactive)
REMARK    1  A    between atoms: C_1  and  C_2
REMARK    2  A    between atoms: N_5  and  C_11
REMARK    3  A    between atoms: C_7  and  C_10
REMARK    4  A    between atoms: C_11  and  C_13
REMARK    5  A    between atoms: C_11  and  C_14
REMARK    6  A    between atoms: C_18  and  N_20
REMARK                            x       y       z     vdW  Elec       q    Type
REMARK                         _______ _______ _______ _____ _____    ______ ____
ROOT
ATOM      1  C   UNL     1       2.832  -0.456  -2.443  0.00  0.00    +0.084 C 
ATOM      2  C   UNL     1       2.146   0.162  -3.663  0.00  0.00    +0.029 C 
ENDROOT
BRANCH   1   6
ATOM      3  C   UNL     1      -0.019   1.526   0.010  0.00  0.00    +0.039 C 
ATOM      4  C   UNL     1       0.002  -0.004   0.002  0.00  0.00    +0.130 C 
ATOM      5  C   UNL     1       0.720  -0.499  -1.256  0.00  0.00    +0.116 C 
ATOM      6  N   UNL     1       2.120  -0.050  -1.224  0.00  0.00    -0.291 NA
ATOM      7  C   UNL     1       2.801  -0.554  -0.023  0.00  0.00    +0.116 C 
ATOM      8  C   UNL     1       2.062  -0.059   1.223  0.00  0.00    +0.130 C 
ATOM      9  O   UNL     1       0.695  -0.479   1.159  0.00  0.00    -0.371 OA
ATOM     10  C   UNL     1       2.719  -0.646   2.474  0.00  0.00    +0.039 C 
ENDBRANCH   1   6
BRANCH   1  11
ATOM     11  C   UNL     1       4.260   0.021  -2.374  0.00  0.00    -0.028 A 
ATOM     12  C   UNL     1       4.547   1.269  -1.853  0.00  0.00    +0.005 A 
ATOM     13  C   UNL     1       5.856   1.706  -1.790  0.00  0.00    +0.003 A 
ATOM     14  C   UNL     1       6.879   0.896  -2.246  0.00  0.00    +0.033 A 
ATOM     15  C   UNL     1       6.592  -0.353  -2.765  0.00  0.00    +0.127 A 
ATOM     16  C   UNL     1       5.282  -0.792  -2.825  0.00  0.00    +0.038 A 
BRANCH  15  17
ATOM     17  N   UNL     1       7.686  -1.221  -3.254  0.00  0.00    +0.056 N 
ATOM     18  O   UNL     1       8.832  -0.838  -3.199  0.00  0.00    -0.126 OA
ATOM     19  O   UNL     1       7.435  -2.312  -3.708  0.00  0.00    -0.126 OA
ENDBRANCH  15  17
ENDBRANCH   1  11
TORSDOF 3
