REMARK  Name = ZINC64215580
REMARK  7 active torsions:
REMARK  status: ('A' for Active; 'I' for Inactive)
REMARK    1  A    between atoms: C_1  and  C_2
REMARK    2  A    between atoms: C_2  and  N_3
REMARK    3  A    between atoms: C_7  and  C_16
REMARK    4  A    between atoms: N_18  and  C_19
REMARK    5  A    between atoms: C_19  and  C_20
REMARK    6  A    between atoms: C_20  and  C_22
REMARK    7  A    between atoms: C_20  and  C_28
REMARK                            x       y       z     vdW  Elec       q    Type
REMARK                         _______ _______ _______ _____ _____    ______ ____
ROOT
ATOM      1  C   UNL     1      -2.293  -1.393  -5.907  0.00  0.00    +0.244 C 
ATOM      2  O   UNL     1      -1.741  -1.785  -6.917  0.00  0.00    -0.270 OA
ATOM      3  N   UNL     1      -3.623  -1.176  -5.908  0.00  0.00    -0.310 N 
ATOM      4  H   UNL     1      -4.064  -0.863  -5.103  0.00  0.00    +0.149 HD
ENDROOT
BRANCH   1   9
ATOM      5  N   UNL     1       0.688  -0.476  -1.203  0.00  0.00    -0.303 N 
ATOM      6  C   UNL     1      -0.035  -0.705  -2.366  0.00  0.00    +0.068 A 
ATOM      7  C   UNL     1      -1.411  -0.482  -2.375  0.00  0.00    +0.029 A 
ATOM      8  C   UNL     1      -2.142  -0.704  -3.518  0.00  0.00    +0.015 A 
ATOM      9  C   UNL     1      -1.507  -1.155  -4.680  0.00  0.00    +0.039 A 
ATOM     10  C   UNL     1      -0.131  -1.380  -4.678  0.00  0.00    +0.040 A 
ATOM     11  C   UNL     1       0.605  -1.156  -3.525  0.00  0.00    +0.067 A 
ATOM     12  N   UNL     1       1.980  -1.383  -3.531  0.00  0.00    -0.316 N 
ATOM     13  H   UNL     1       2.415  -1.696  -4.339  0.00  0.00    +0.169 HD
ATOM     14  C   UNL     1       2.705  -1.169  -2.414  0.00  0.00    +0.314 A 
ATOM     15  O   UNL     1       3.904  -1.365  -2.414  0.00  0.00    -0.262 OA
ATOM     16  C   UNL     1       2.020  -0.683  -1.182  0.00  0.00    +0.316 A 
ATOM     17  O   UNL     1       2.655  -0.479  -0.167  0.00  0.00    -0.262 OA
BRANCH   5  19
ATOM     18  C   UNL     1      -0.019   1.526   0.010  0.00  0.00    +0.027 C 
ATOM     19  C   UNL     1       0.002  -0.004   0.002  0.00  0.00    +0.122 C 
ENDBRANCH   5  19
ENDBRANCH   1   9
BRANCH   3  20
ATOM     20  C   UNL     1      -4.403  -1.412  -7.125  0.00  0.00    +0.117 C 
BRANCH  20  21
ATOM     21  C   UNL     1      -5.875  -1.091  -6.858  0.00  0.00    +0.064 C 
BRANCH  21  22
ATOM     22  C   UNL     1      -6.657  -1.216  -8.140  0.00  0.00    -0.033 C 
ATOM     23  C   UNL     1      -7.364  -0.243  -8.759  0.00  0.00    -0.000 A 
ATOM     24  C   UNL     1      -7.609   1.168  -8.436  0.00  0.00    +0.010 A 
ATOM     25  C   UNL     1      -8.378   1.908  -9.267  0.00  0.00    +0.001 A 
ATOM     26  C   UNL     1      -8.947   1.362 -10.426  0.00  0.00    +0.002 A 
ATOM     27  C   UNL     1      -8.768   0.075 -10.789  0.00  0.00    +0.026 A 
ATOM     28  C   UNL     1      -7.976  -0.795  -9.989  0.00  0.00    +0.043 A 
ATOM     29  N   UNL     1      -7.659  -2.059 -10.125  0.00  0.00    -0.380 N 
ATOM     30  C   UNL     1      -6.805  -2.452  -8.999  0.00  0.00    +0.145 C 
ATOM     31  H   UNL     1      -7.940  -2.638 -10.852  0.00  0.00    +0.160 HD
ENDBRANCH  21  22
BRANCH  21  32
ATOM     32  C   UNL     1      -6.423  -2.057  -5.840  0.00  0.00    -0.039 A 
ATOM     33  C   UNL     1      -6.414  -3.415  -6.100  0.00  0.00    +0.004 A 
ATOM     34  C   UNL     1      -6.917  -4.301  -5.166  0.00  0.00    +0.000 A 
ATOM     35  C   UNL     1      -7.428  -3.830  -3.971  0.00  0.00    +0.000 A 
ATOM     36  C   UNL     1      -7.436  -2.473  -3.710  0.00  0.00    +0.000 A 
ATOM     37  C   UNL     1      -6.929  -1.587  -4.643  0.00  0.00    +0.004 A 
ENDBRANCH  21  32
ENDBRANCH  20  21
ENDBRANCH   3  20
TORSDOF 6
