REMARK  Name = ZINC04791604
REMARK  11 active torsions:
REMARK  status: ('A' for Active; 'I' for Inactive)
REMARK    1  A    between atoms: C_1  and  N_65
REMARK    2  A    between atoms: C_2  and  C_3
REMARK    3  A    between atoms: C_2  and  N_65
REMARK    4  A    between atoms: C_3  and  C_4
REMARK    5  A    between atoms: C_4  and  N_5
REMARK    6  A    between atoms: C_6  and  C_8
REMARK    7  A    between atoms: N_18  and  C_21
REMARK    8  A    between atoms: C_21  and  C_22
REMARK    9  A    between atoms: C_22  and  C_23
REMARK   10  A    between atoms: C_29  and  C_30
REMARK   11  A    between atoms: C_29  and  N_65
REMARK                            x       y       z     vdW  Elec       q    Type
REMARK                         _______ _______ _______ _____ _____    ______ ____
ROOT
ATOM      1  C   UNL     1      -1.183   3.483   0.031  0.00  0.00    +0.039 A 
ATOM      2  C   UNL     1       0.036   4.168   0.023  0.00  0.00    +0.014 A 
ATOM      3  C   UNL     1       1.223   3.470   0.009  0.00  0.00    +0.016 A 
ATOM      4  C   UNL     1       1.206   2.077   0.002  0.00  0.00    +0.063 A 
ATOM      5  C   UNL     1      -0.017   1.384   0.010  0.00  0.00    +0.056 A 
ATOM      6  C   UNL     1      -1.208   2.091   0.030  0.00  0.00    +0.039 A 
ATOM      7  N   UNL     1       0.002  -0.004   0.002  0.00  0.00    -0.307 N 
ATOM      8  H   UNL     1      -0.860  -0.511   0.007  0.00  0.00    +0.170 HD
ATOM      9  C   UNL     1       1.167  -0.674  -0.013  0.00  0.00    +0.330 A 
ATOM     10  O   UNL     1       1.139  -1.889  -0.019  0.00  0.00    -0.246 OA
ATOM     11  N   UNL     1       2.360  -0.059  -0.020  0.00  0.00    -0.260 N 
ATOM     12  C   UNL     1       2.454   1.288  -0.014  0.00  0.00    +0.264 A 
ATOM     13  O   UNL     1       3.538   1.838  -0.021  0.00  0.00    -0.267 OA
ENDROOT
BRANCH   1  15
ATOM     14  N   UNL     1      -2.434   5.591   0.053  0.00  0.00    -0.311 N 
ATOM     15  C   UNL     1      -2.454   4.243   0.047  0.00  0.00    +0.244 C 
ATOM     16  O   UNL     1      -3.516   3.652   0.054  0.00  0.00    -0.270 OA
ATOM     17  H   UNL     1      -1.586   6.063   0.048  0.00  0.00    +0.149 HD
BRANCH  14  18
ATOM     18  C   UNL     1      -3.691   6.343   0.069  0.00  0.00    +0.102 C 
BRANCH  18  19
ATOM     19  C   UNL     1      -3.389   7.842   0.074  0.00  0.00    +0.000 C 
BRANCH  19  20
ATOM     20  C   UNL     1      -4.702   8.627   0.090  0.00  0.00    -0.077 C 
BRANCH  20  22
ATOM     21  C   UNL     1      -3.773  10.480  -1.163  0.00  0.00    -0.096 C 
ATOM     22  N   UNL     1      -4.393  10.072   0.116  0.00  0.00    +0.381 N 
ATOM     23  H   UNL     1      -3.733  10.259   0.880  0.00  0.00    -0.082 HD
BRANCH  22  24
ATOM     24  C   UNL     1      -5.629  10.849   0.348  0.00  0.00    -0.043 C 
BRANCH  24  25
ATOM     25  C   UNL     1      -5.260  12.290   0.589  0.00  0.00    -0.064 A 
ATOM     26  C   UNL     1      -4.994  12.730   1.873  0.00  0.00    +0.002 A 
ATOM     27  C   UNL     1      -4.651  14.051   2.093  0.00  0.00    +0.000 A 
ATOM     28  C   UNL     1      -4.582  14.934   1.032  0.00  0.00    +0.000 A 
ATOM     29  C   UNL     1      -4.853  14.495  -0.251  0.00  0.00    +0.000 A 
ATOM     30  C   UNL     1      -5.192  13.173  -0.472  0.00  0.00    +0.002 A 
ENDBRANCH  24  25
ENDBRANCH  22  24
ENDBRANCH  20  22
ENDBRANCH  19  20
ENDBRANCH  18  19
ENDBRANCH  14  18
ENDBRANCH   1  15
BRANCH  11  31
ATOM     31  C   UNL     1       3.583  -0.865  -0.036  0.00  0.00    +0.134 C 
BRANCH  31  32
ATOM     32  C   UNL     1       3.996  -1.137  -1.484  0.00  0.00    +0.057 C 
BRANCH  32  33
ATOM     33  C   UNL     1       5.255  -1.965  -1.501  0.00  0.00    -0.046 A 
ATOM     34  C   UNL     1       6.490  -1.345  -1.514  0.00  0.00    +0.004 A 
ATOM     35  C   UNL     1       7.645  -2.106  -1.524  0.00  0.00    +0.000 A 
ATOM     36  C   UNL     1       7.564  -3.486  -1.531  0.00  0.00    +0.000 A 
ATOM     37  C   UNL     1       6.328  -4.105  -1.523  0.00  0.00    +0.000 A 
ATOM     38  C   UNL     1       5.174  -3.345  -1.508  0.00  0.00    +0.004 A 
ENDBRANCH  32  33
ENDBRANCH  31  32
ENDBRANCH  11  31
TORSDOF 10
