REMARK  Name = ZINC60339515
REMARK  8 active torsions:
REMARK  status: ('A' for Active; 'I' for Inactive)
REMARK    1  A    between atoms: C_1  and  C_2
REMARK    2  A    between atoms: C_4  and  C_20
REMARK    3  A    between atoms: C_6  and  C_17
REMARK    4  A    between atoms: N_22  and  C_23
REMARK    5  A    between atoms: C_23  and  C_24
REMARK    6  A    between atoms: N_29  and  C_31
REMARK    7  A    between atoms: C_31  and  C_32
REMARK    8  A    between atoms: C_31  and  C_33
REMARK                            x       y       z     vdW  Elec       q    Type
REMARK                         _______ _______ _______ _____ _____    ______ ____
ROOT
ATOM      1  C   UNL     1      -1.714   1.304  -0.437  0.00  0.00    +0.068 C 
ATOM      2  C   UNL     1      -1.403  -0.169  -0.369  0.00  0.00    +0.070 A 
ATOM      3  C   UNL     1      -0.741  -0.917  -1.367  0.00  0.00    +0.054 A 
ATOM      4  C   UNL     1      -0.199  -0.600  -2.631  0.00  0.00    +0.051 A 
ATOM      5  C   UNL     1       0.397  -1.627  -3.360  0.00  0.00    +0.037 A 
ATOM      6  C   UNL     1       0.435  -2.906  -2.825  0.00  0.00    +0.048 A 
ATOM      7  N   UNL     1      -0.077  -3.176  -1.645  0.00  0.00    -0.232 NA
ATOM      8  C   UNL     1      -0.657  -2.245  -0.902  0.00  0.00    +0.166 A 
ATOM      9  N   UNL     1      -1.257  -2.260   0.334  0.00  0.00    -0.196 N 
ATOM     10  N   UNL     1      -1.696  -0.962   0.622  0.00  0.00    -0.168 NA
ATOM     11  C   UNL     1      -1.400  -3.375   1.162  0.00  0.00    +0.156 A 
ATOM     12  C   UNL     1      -1.537  -3.201   2.534  0.00  0.00    +0.048 A 
ATOM     13  C   UNL     1      -1.678  -4.315   3.344  0.00  0.00    +0.005 A 
ATOM     14  C   UNL     1      -1.677  -5.569   2.749  0.00  0.00    +0.020 A 
ATOM     15  C   UNL     1      -1.538  -5.668   1.379  0.00  0.00    +0.113 A 
ATOM     16  N   UNL     1      -1.410  -4.588   0.632  0.00  0.00    -0.236 NA
ENDROOT
BRANCH   4  17
ATOM     17  C   UNL     1      -0.261   0.778  -3.165  0.00  0.00    +0.245 C 
ATOM     18  O   UNL     1      -0.111   1.726  -2.420  0.00  0.00    -0.270 OA
ATOM     19  N   UNL     1      -0.485   0.982  -4.478  0.00  0.00    -0.311 N 
ATOM     20  H   UNL     1      -0.605   0.226  -5.073  0.00  0.00    +0.149 HD
BRANCH  19  21
ATOM     21  C   UNL     1      -0.547   2.347  -5.007  0.00  0.00    +0.106 C 
BRANCH  21  22
ATOM     22  C   UNL     1      -0.810   2.299  -6.514  0.00  0.00    -0.011 C 
ATOM     23  C   UNL     1       0.382   1.647  -7.220  0.00  0.00    +0.001 C 
ATOM     24  C   UNL     1       0.144   1.674  -8.733  0.00  0.00    -0.018 C 
ATOM     25  C   UNL     1      -0.077   3.120  -9.182  0.00  0.00    -0.078 C 
ATOM     26  N   UNL     1      -1.245   3.678  -8.491  0.00  0.00    +0.381 N 
ATOM     27  C   UNL     1      -0.996   3.721  -7.045  0.00  0.00    -0.074 C 
ATOM     28  H   UNL     1      -2.051   3.100  -8.675  0.00  0.00    -0.081 HD
BRANCH  26  29
ATOM     29  C   UNL     1      -1.500   5.039  -8.984  0.00  0.00    -0.075 C 
ATOM     30  C   UNL     1      -1.770   4.995 -10.489  0.00  0.00    -0.014 C 
ATOM     31  C   UNL     1      -2.717   5.622  -8.264  0.00  0.00    -0.014 C 
ENDBRANCH  26  29
ENDBRANCH  21  22
ENDBRANCH  19  21
ENDBRANCH   4  17
BRANCH   6  32
ATOM     32  C   UNL     1       1.081  -4.014  -3.616  0.00  0.00    +0.038 C 
ATOM     33  C   UNL     1       1.317  -3.772  -5.108  0.00  0.00    +0.010 C 
ATOM     34  C   UNL     1       0.219  -4.736  -4.654  0.00  0.00    +0.010 C 
ENDBRANCH   6  32
TORSDOF 5
