REMARK  Name = ZINC09548998
REMARK  6 active torsions:
REMARK  status: ('A' for Active; 'I' for Inactive)
REMARK    1  A    between atoms: C_1  and  C_2
REMARK    2  A    between atoms: C_2  and  C_25
REMARK    3  A    between atoms: N_5  and  C_9
REMARK    4  A    between atoms: C_9  and  C_10
REMARK    5  A    between atoms: N_12  and  C_13
REMARK    6  A    between atoms: N_12  and  C_19
REMARK                            x       y       z     vdW  Elec       q    Type
REMARK                         _______ _______ _______ _____ _____    ______ ____
ROOT
ATOM      1  C   UNL     1      -1.455   0.830   1.048  0.00  0.00    +0.047 C 
ATOM      2  C   UNL     1      -1.127  -0.654   0.873  0.00  0.00    +0.135 C 
ATOM      3  C   UNL     1      -0.078  -1.090   1.877  0.00  0.00    +0.251 C 
ATOM      4  O   UNL     1      -0.169  -1.072   3.086  0.00  0.00    -0.272 OA
ATOM      5  N   UNL     1       0.977  -1.501   1.147  0.00  0.00    -0.215 N 
ATOM      6  C   UNL     1       0.744  -1.387  -0.165  0.00  0.00    +0.310 C 
ATOM      7  O   UNL     1       1.547  -1.694  -1.024  0.00  0.00    -0.252 OA
ATOM      8  N   UNL     1      -0.480  -0.893  -0.428  0.00  0.00    -0.281 N 
ATOM      9  H   UNL     1      -1.017  -0.663  -1.360  0.00  0.00    +0.152 HD
ENDROOT
BRANCH   2  10
ATOM     10  C   UNL     1      -2.373  -1.491   1.011  0.00  0.00    -0.012 A 
ATOM     11  C   UNL     1      -2.741  -1.981   2.250  0.00  0.00    +0.010 A 
ATOM     12  C   UNL     1      -3.883  -2.749   2.381  0.00  0.00    +0.050 A 
ATOM     13  C   UNL     1      -4.662  -3.028   1.270  0.00  0.00    +0.166 A 
ATOM     14  C   UNL     1      -4.291  -2.534   0.022  0.00  0.00    +0.167 A 
ATOM     15  C   UNL     1      -3.148  -1.761  -0.101  0.00  0.00    +0.055 A 
ATOM     16  O   UNL     1      -5.211  -2.942  -0.899  0.00  0.00    -0.453 OA
ATOM     17  C   UNL     1      -5.923  -4.028  -0.277  0.00  0.00    +0.466 C 
ATOM     18  O   UNL     1      -5.815  -3.746   1.131  0.00  0.00    -0.453 OA
ENDBRANCH   2  10
BRANCH   5  19
ATOM     19  C   UNL     1       2.226  -2.010   1.719  0.00  0.00    +0.214 C 
BRANCH  19  20
ATOM     20  C   UNL     1       2.127  -3.503   1.895  0.00  0.00    +0.238 C 
ATOM     21  O   UNL     1       1.135  -4.093   1.523  0.00  0.00    -0.273 OA
ATOM     22  N   UNL     1       3.141  -4.183   2.466  0.00  0.00    -0.267 N 
BRANCH  22  23
ATOM     23  C   UNL     1       4.240  -3.493   2.988  0.00  0.00    +0.037 A 
ATOM     24  C   UNL     1       5.195  -2.958   2.133  0.00  0.00    +0.023 A 
ATOM     25  C   UNL     1       6.277  -2.273   2.651  0.00  0.00    +0.002 A 
ATOM     26  C   UNL     1       6.415  -2.129   4.020  0.00  0.00    +0.000 A 
ATOM     27  C   UNL     1       5.469  -2.664   4.873  0.00  0.00    +0.002 A 
ATOM     28  C   UNL     1       4.382  -3.346   4.362  0.00  0.00    +0.023 A 
ENDBRANCH  22  23
BRANCH  22  29
ATOM     29  C   UNL     1       3.092  -5.646   2.540  0.00  0.00    +0.082 C 
ATOM     30  C   UNL     1       3.032  -6.226   1.126  0.00  0.00    +0.023 C 
ATOM     31  C   UNL     1       2.981  -7.753   1.204  0.00  0.00    +0.002 C 
ATOM     32  C   UNL     1       1.737  -8.183   1.984  0.00  0.00    +0.000 C 
ATOM     33  C   UNL     1       1.797  -7.602   3.398  0.00  0.00    +0.002 C 
ATOM     34  C   UNL     1       1.848  -6.075   3.321  0.00  0.00    +0.023 C 
ENDBRANCH  22  29
ENDBRANCH  19  20
ENDBRANCH   5  19
TORSDOF 5
