REMARK  Name = ZINC00062052
REMARK  7 active torsions:
REMARK  status: ('A' for Active; 'I' for Inactive)
REMARK    1  A    between atoms: C_1  and  C_2
REMARK    2  A    between atoms: C_3  and  C_13
REMARK    3  A    between atoms: C_4  and  C_9
REMARK    4  A    between atoms: C_5  and  C_8
REMARK    5  A    between atoms: C_9  and  O_11
REMARK    6  A    between atoms: O_11  and  C_12
REMARK    7  A    between atoms: C_16  and  N_19
REMARK                            x       y       z     vdW  Elec       q    Type
REMARK                         _______ _______ _______ _____ _____    ______ ____
ROOT
ATOM      1  C   UNL     1      -0.018   1.503   0.010  0.00  0.00    +0.064 C 
ATOM      2  C   UNL     1       0.002  -0.004   0.002  0.00  0.00    +0.022 A 
ATOM      3  C   UNL     1       0.008  -0.789  -1.105  0.00  0.00    +0.017 A 
ATOM      4  C   UNL     1       0.030  -2.180  -0.618  0.00  0.00    +0.087 A 
ATOM      5  C   UNL     1       0.035  -2.102   0.747  0.00  0.00    +0.028 A 
ATOM      6  N   UNL     1       0.024  -0.804   1.105  0.00  0.00    -0.361 N 
ATOM      7  H   UNL     1       0.028  -0.483   2.020  0.00  0.00    +0.165 HD
ATOM      8  C   UNL     1       0.056  -3.274   1.694  0.00  0.00    +0.064 C 
ENDROOT
BRANCH   3   9
ATOM      9  C   UNL     1      -0.006  -0.339  -2.518  0.00  0.00    -0.015 A 
ATOM     10  C   UNL     1      -1.101  -0.622  -3.332  0.00  0.00    +0.011 A 
ATOM     11  C   UNL     1      -1.109  -0.201  -4.646  0.00  0.00    +0.033 A 
ATOM     12  C   UNL     1      -0.031   0.501  -5.156  0.00  0.00    +0.126 A 
ATOM     13  C   UNL     1       1.059   0.785  -4.353  0.00  0.00    +0.033 A 
ATOM     14  C   UNL     1       1.074   0.374  -3.035  0.00  0.00    +0.011 A 
BRANCH  12  15
ATOM     15  N   UNL     1      -0.045   0.950  -6.566  0.00  0.00    +0.056 N 
ATOM     16  O   UNL     1      -0.996   0.703  -7.270  0.00  0.00    -0.126 OA
ATOM     17  O   UNL     1       0.896   1.564  -7.014  0.00  0.00    -0.126 OA
ENDBRANCH  12  15
ENDBRANCH   3   9
BRANCH   4  18
ATOM     18  C   UNL     1       0.042  -3.403  -1.433  0.00  0.00    +0.341 C 
ATOM     19  O   UNL     1       1.100  -3.894  -1.777  0.00  0.00    -0.245 OA
BRANCH  18  20
ATOM     20  O   UNL     1      -1.119  -3.980  -1.801  0.00  0.00    -0.464 OA
ATOM     21  C   UNL     1      -1.032  -5.166  -2.594  0.00  0.00    +0.280 C 
ENDBRANCH  18  20
ENDBRANCH   4  18
TORSDOF 4
