REMARK  Name = ZINC58915417
REMARK  12 active torsions:
REMARK  status: ('A' for Active; 'I' for Inactive)
REMARK    1  A    between atoms: C_1  and  C_2
REMARK    2  A    between atoms: C_4  and  C_37
REMARK    3  A    between atoms: C_6  and  N_8
REMARK    4  A    between atoms: C_9  and  C_36
REMARK    5  A    between atoms: C_11  and  C_14
REMARK    6  A    between atoms: C_12  and  C_13
REMARK    7  A    between atoms: N_15  and  N_16
REMARK    8  A    between atoms: C_17  and  C_19
REMARK    9  A    between atoms: C_22  and  N_25
REMARK   10  A    between atoms: N_25  and  C_26
REMARK   11  A    between atoms: N_25  and  S_27
REMARK   12  A    between atoms: S_27  and  C_30
REMARK                            x       y       z     vdW  Elec       q    Type
REMARK                         _______ _______ _______ _____ _____    ______ ____
ROOT
ATOM      1  N   UNL     1       3.404  -3.362   6.909  0.00  0.00    -0.203 N 
ATOM      2  C   UNL     1       4.686  -2.955   6.984  0.00  0.00    +0.263 C 
ATOM      3  O   UNL     1       5.194  -2.367   6.047  0.00  0.00    -0.268 OA
ATOM      4  H   UNL     1       2.999  -3.831   7.656  0.00  0.00    +0.178 HD
ENDROOT
BRANCH   2   5
ATOM      5  C   UNL     1       5.475  -3.223   8.201  0.00  0.00    +0.038 A 
ATOM      6  C   UNL     1       4.896  -3.903   9.276  0.00  0.00    +0.015 A 
ATOM      7  C   UNL     1       5.635  -4.151  10.410  0.00  0.00    +0.025 A 
ATOM      8  C   UNL     1       6.958  -3.725  10.488  0.00  0.00    +0.051 A 
ATOM      9  C   UNL     1       7.538  -3.047   9.419  0.00  0.00    +0.025 A 
ATOM     10  C   UNL     1       6.806  -2.801   8.280  0.00  0.00    +0.015 A 
BRANCH   8  11
ATOM     11  N   UNL     1       7.701  -3.976  11.636  0.00  0.00    -0.206 N 
ATOM     12  C   UNL     1       7.930  -5.356  12.073  0.00  0.00    +0.157 C 
BRANCH  11  13
ATOM     13  S   UNL     1       8.328  -2.716  12.509  0.00  0.00    +0.074 S 
ATOM     14  O   UNL     1       9.514  -3.199  13.126  0.00  0.00    -0.150 OA
ATOM     15  O   UNL     1       8.322  -1.584  11.650  0.00  0.00    -0.150 OA
BRANCH  13  16
ATOM     16  C   UNL     1       7.191  -2.367  13.809  0.00  0.00    +0.109 A 
ATOM     17  C   UNL     1       6.169  -1.458  13.608  0.00  0.00    +0.029 A 
ATOM     18  C   UNL     1       5.277  -1.185  14.629  0.00  0.00    +0.002 A 
ATOM     19  C   UNL     1       5.407  -1.820  15.849  0.00  0.00    +0.000 A 
ATOM     20  C   UNL     1       6.428  -2.730  16.050  0.00  0.00    +0.002 A 
ATOM     21  C   UNL     1       7.317  -3.007  15.029  0.00  0.00    +0.029 A 
ENDBRANCH  13  16
ENDBRANCH  11  13
ENDBRANCH   8  11
ENDBRANCH   2   5
BRANCH   1  23
ATOM     22  C   UNL     1       1.419  -3.500   5.681  0.00  0.00    +0.140 C 
ATOM     23  N   UNL     1       2.654  -3.108   5.753  0.00  0.00    -0.187 NA
BRANCH  22  27
ATOM     24  N   UNL     1       0.022  -2.551   2.454  0.00  0.00    -0.317 N 
ATOM     25  C   UNL     1      -1.074  -3.164   2.990  0.00  0.00    +0.022 A 
ATOM     26  C   UNL     1      -0.767  -3.604   4.223  0.00  0.00    +0.032 A 
ATOM     27  C   UNL     1       0.630  -3.232   4.465  0.00  0.00    +0.016 A 
ATOM     28  C   UNL     1       1.057  -2.593   3.336  0.00  0.00    +0.030 A 
ATOM     29  C   UNL     1       2.436  -2.030   3.108  0.00  0.00    +0.064 C 
ATOM     30  C   UNL     1      -2.410  -3.320   2.311  0.00  0.00    +0.064 C 
BRANCH  24  36
ATOM     31  C   UNL     1       0.524   1.457  -0.353  0.00  0.00    +0.044 C 
ATOM     32  C   UNL     1       0.317  -0.029  -0.209  0.00  0.00    -0.048 A 
ATOM     33  C   UNL     1       0.179  -0.820  -1.335  0.00  0.00    +0.006 A 
ATOM     34  C   UNL     1      -0.011  -2.183  -1.207  0.00  0.00    -0.048 A 
ATOM     35  C   UNL     1      -0.063  -2.760   0.047  0.00  0.00    +0.029 A 
ATOM     36  C   UNL     1       0.075  -1.969   1.180  0.00  0.00    +0.047 A 
ATOM     37  C   UNL     1       0.272  -0.601   1.048  0.00  0.00    +0.029 A 
ATOM     38  C   UNL     1      -0.161  -3.041  -2.437  0.00  0.00    +0.044 C 
ENDBRANCH  24  36
ENDBRANCH  22  27
ENDBRANCH   1  23
TORSDOF 7
