REMARK  Name = ZINC43526604
REMARK  11 active torsions:
REMARK  status: ('A' for Active; 'I' for Inactive)
REMARK    1  A    between atoms: C_1  and  C_2
REMARK    2  A    between atoms: C_2  and  C_3
REMARK    3  A    between atoms: C_2  and  C_4
REMARK    4  A    between atoms: C_4  and  N_5
REMARK    5  A    between atoms: N_5  and  C_6
REMARK    6  A    between atoms: C_6  and  N_8
REMARK    7  A    between atoms: N_8  and  C_9
REMARK    8  A    between atoms: C_9  and  C_10
REMARK    9  A    between atoms: C_19  and  C_21
REMARK   10  A    between atoms: C_23  and  C_27
REMARK   11  A    between atoms: N_25  and  C_26
REMARK                            x       y       z     vdW  Elec       q    Type
REMARK                         _______ _______ _______ _____ _____    ______ ____
ROOT
ATOM      1  C   UNL     1      -5.967  -0.072  -4.127  0.00  0.00    -0.051 C 
ATOM      2  C   UNL     1      -7.430  -0.384  -4.449  0.00  0.00    -0.010 C 
ATOM      3  C   UNL     1      -8.186   0.936  -4.649  0.00  0.00    -0.007 C 
ATOM      4  C   UNL     1      -8.081   1.754  -3.355  0.00  0.00    -0.015 C 
ATOM      5  C   UNL     1      -6.603   1.999  -3.043  0.00  0.00    -0.078 C 
ATOM      6  N   UNL     1      -5.758   1.378  -4.111  0.00  0.00    +0.383 N 
ATOM      7  C   UNL     1      -6.051   1.955  -5.425  0.00  0.00    -0.068 C 
ATOM      8  C   UNL     1      -7.514   1.710  -5.791  0.00  0.00    +0.024 C 
ATOM      9  H   UNL     1      -4.787   1.558  -3.901  0.00  0.00    -0.081 HD
ENDROOT
BRANCH   8  10
ATOM     10  C   UNL     1      -8.214   3.030  -5.986  0.00  0.00    +0.041 A 
ATOM     11  C   UNL     1      -7.960   4.171  -5.309  0.00  0.00    +0.053 A 
ATOM     12  C   UNL     1      -8.831   5.165  -5.796  0.00  0.00    +0.093 A 
ATOM     13  N   UNL     1      -9.579   4.624  -6.735  0.00  0.00    -0.171 NA
ATOM     14  N   UNL     1      -9.200   3.283  -6.873  0.00  0.00    -0.271 N 
ATOM     15  C   UNL     1      -9.777   2.320  -7.814  0.00  0.00    +0.172 C 
BRANCH  12  16
ATOM     16  C   UNL     1      -8.896   6.573  -5.331  0.00  0.00    +0.003 A 
ATOM     17  C   UNL     1      -8.028   7.013  -4.319  0.00  0.00    +0.011 A 
ATOM     18  C   UNL     1      -8.066   8.296  -3.876  0.00  0.00    +0.009 A 
ATOM     19  C   UNL     1      -8.985   9.204  -4.434  0.00  0.00    -0.018 A 
ATOM     20  C   UNL     1      -9.044  10.537  -3.994  0.00  0.00    +0.008 A 
ATOM     21  C   UNL     1      -9.943  11.393  -4.553  0.00  0.00    +0.001 A 
ATOM     22  C   UNL     1     -10.809  10.967  -5.559  0.00  0.00    +0.001 A 
ATOM     23  C   UNL     1     -10.781   9.684  -6.011  0.00  0.00    +0.008 A 
ATOM     24  C   UNL     1      -9.865   8.771  -5.457  0.00  0.00    -0.017 A 
ATOM     25  C   UNL     1      -9.806   7.442  -5.903  0.00  0.00    +0.018 A 
ENDBRANCH  12  16
ENDBRANCH   8  10
BRANCH   1  26
ATOM     26  C   UNL     1      -5.614  -0.650  -2.755  0.00  0.00    +0.088 C 
BRANCH  26  27
ATOM     27  N   UNL     1      -4.250  -0.255  -2.394  0.00  0.00    -0.328 N 
ATOM     28  H   UNL     1      -3.728   0.292  -3.001  0.00  0.00    +0.148 HD
BRANCH  27  29
ATOM     29  C   UNL     1      -3.722  -0.653  -1.220  0.00  0.00    +0.130 C 
ATOM     30  S   UNL     1      -4.644  -1.619  -0.149  0.00  0.00    -0.019 S 
BRANCH  29  31
ATOM     31  N   UNL     1      -2.467  -0.289  -0.888  0.00  0.00    -0.326 N 
ATOM     32  H   UNL     1      -1.944   0.258  -1.495  0.00  0.00    +0.148 HD
BRANCH  31  33
ATOM     33  C   UNL     1      -1.893  -0.721   0.388  0.00  0.00    +0.106 C 
BRANCH  33  35
ATOM     34  C   UNL     1      -0.511   1.351   0.588  0.00  0.00    +0.009 C 
ATOM     35  C   UNL     1      -0.468  -0.177   0.517  0.00  0.00    -0.000 C 
ATOM     36  C   UNL     1       0.176  -0.730   1.790  0.00  0.00    +0.009 C 
ENDBRANCH  33  35
ENDBRANCH  31  33
ENDBRANCH  29  31
ENDBRANCH  27  29
ENDBRANCH  26  27
ENDBRANCH   1  26
TORSDOF 8
