REMARK  Name = ZINC00861117
REMARK  6 active torsions:
REMARK  status: ('A' for Active; 'I' for Inactive)
REMARK    1  A    between atoms: C_1  and  C_2
REMARK    2  A    between atoms: C_5  and  C_11
REMARK    3  A    between atoms: C_7  and  N_8
REMARK    4  A    between atoms: C_16  and  C_21
REMARK    5  A    between atoms: C_24  and  O_27
REMARK    6  A    between atoms: O_27  and  C_28
REMARK                            x       y       z     vdW  Elec       q    Type
REMARK                         _______ _______ _______ _____ _____    ______ ____
ROOT
ATOM      1  C   UNL     1       1.030  -2.051   0.452  0.00  0.00    +0.136 C 
ATOM      2  C   UNL     1       0.836  -0.581   0.165  0.00  0.00    +0.036 C 
ATOM      3  C   UNL     1      -0.152  -0.045  -0.571  0.00  0.00    +0.017 C 
ATOM      4  C   UNL     1      -0.230   1.459  -0.777  0.00  0.00    +0.059 C 
ATOM      5  C   UNL     1       1.176   2.055  -0.801  0.00  0.00    +0.032 C 
ATOM      6  C   UNL     1       1.842   1.736   0.543  0.00  0.00    +0.088 C 
ATOM      7  C   UNL     1       1.826   0.250   0.742  0.00  0.00    +0.163 C 
ATOM      8  O   UNL     1       2.694  -0.259   1.424  0.00  0.00    -0.292 OA
ATOM      9  N   UNL     1      -1.144  -0.753  -1.167  0.00  0.00    -0.316 N 
ATOM     10  C   UNL     1      -0.956  -1.911  -1.914  0.00  0.00    +0.052 A 
ATOM     11  C   UNL     1      -1.233  -1.973  -3.268  0.00  0.00    +0.025 A 
ATOM     12  C   UNL     1      -1.068  -3.172  -3.941  0.00  0.00    +0.002 A 
ATOM     13  C   UNL     1      -0.634  -4.297  -3.264  0.00  0.00    +0.002 A 
ATOM     14  C   UNL     1      -0.341  -4.233  -1.913  0.00  0.00    +0.025 A 
ATOM     15  C   UNL     1      -0.483  -3.029  -1.243  0.00  0.00    +0.049 A 
ATOM     16  N   UNL     1      -0.094  -2.888   0.088  0.00  0.00    -0.331 N 
ATOM     17  H   UNL     1      -2.052  -0.428  -1.065  0.00  0.00    +0.152 HD
ATOM     18  H   UNL     1      -0.584  -3.357   0.782  0.00  0.00    +0.147 HD
ENDROOT
BRANCH   1  23
ATOM     19  C   UNL     1       5.683  -3.871  -2.451  0.00  0.00    +0.046 C 
ATOM     20  C   UNL     1       4.469  -3.397  -1.694  0.00  0.00    -0.020 A 
ATOM     21  C   UNL     1       3.350  -2.965  -2.382  0.00  0.00    +0.006 A 
ATOM     22  C   UNL     1       2.237  -2.530  -1.688  0.00  0.00    +0.006 A 
ATOM     23  C   UNL     1       2.243  -2.526  -0.305  0.00  0.00    -0.021 A 
ATOM     24  C   UNL     1       3.363  -2.953   0.383  0.00  0.00    +0.038 A 
ATOM     25  C   UNL     1       4.475  -3.393  -0.312  0.00  0.00    +0.129 A 
BRANCH  25  26
ATOM     26  N   UNL     1       5.673  -3.855   0.425  0.00  0.00    +0.057 N 
ATOM     27  O   UNL     1       5.640  -3.956   1.638  0.00  0.00    -0.126 OA
ATOM     28  O   UNL     1       6.691  -4.134  -0.182  0.00  0.00    -0.126 OA
ENDBRANCH  25  26
ENDBRANCH   1  23
BRANCH   5  29
ATOM     29  C   UNL     1       1.095   3.548  -0.989  0.00  0.00    -0.043 A 
ATOM     30  C   UNL     1       0.419   4.324  -0.065  0.00  0.00    +0.007 A 
ATOM     31  C   UNL     1       0.347   5.693  -0.232  0.00  0.00    +0.046 A 
ATOM     32  C   UNL     1       0.946   6.289  -1.333  0.00  0.00    +0.120 A 
ATOM     33  C   UNL     1       1.619   5.508  -2.261  0.00  0.00    +0.046 A 
ATOM     34  C   UNL     1       1.692   4.139  -2.087  0.00  0.00    +0.007 A 
BRANCH  32  35
ATOM     35  O   UNL     1       0.873   7.635  -1.502  0.00  0.00    -0.495 OA
ATOM     36  C   UNL     1       0.164   8.377  -0.507  0.00  0.00    +0.277 C 
ENDBRANCH  32  35
ENDBRANCH   5  29
TORSDOF 4
