REMARK  Name = ZINC22472594
REMARK  7 active torsions:
REMARK  status: ('A' for Active; 'I' for Inactive)
REMARK    1  A    between atoms: C_9  and  O_10
REMARK    2  A    between atoms: N_12  and  C_13
REMARK    3  A    between atoms: C_13  and  C_14
REMARK    4  A    between atoms: C_14  and  N_15
REMARK    5  A    between atoms: C_21  and  C_23
REMARK    6  A    between atoms: C_24  and  C_25
REMARK    7  A    between atoms: C_29  and  N_31
REMARK                            x       y       z     vdW  Elec       q    Type
REMARK                         _______ _______ _______ _____ _____    ______ ____
ROOT
ATOM      1  N   UNL     1      -4.610   9.351   1.386  0.00  0.00    +0.383 N 
ATOM      2  C   UNL     1      -3.300  10.014   1.403  0.00  0.00    -0.059 C 
ATOM      3  C   UNL     1      -2.487   9.563   0.184  0.00  0.00    +0.089 C 
ATOM      4  N   UNL     1      -2.439   8.093   0.173  0.00  0.00    -0.302 N 
ATOM      5  C   UNL     1      -3.707   7.355   0.286  0.00  0.00    +0.089 C 
ATOM      6  C   UNL     1      -4.471   7.894   1.506  0.00  0.00    -0.059 C 
ATOM      7  C   UNL     1      -1.266   7.440   0.057  0.00  0.00    +0.239 C 
ATOM      8  O   UNL     1      -1.253   6.227  -0.043  0.00  0.00    -0.271 OA
ATOM      9  H   UNL     1      -5.080   9.563   0.414  0.00  0.00    -0.082 HD
ENDROOT
BRANCH   7  10
ATOM     10  C   UNL     1      -0.009   8.189   0.049  0.00  0.00    +0.068 C 
ATOM     11  C   UNL     1       1.168   7.531   0.042  0.00  0.00    +0.013 C 
BRANCH  11  12
ATOM     12  C   UNL     1       2.433   8.284   0.034  0.00  0.00    -0.023 A 
ATOM     13  C   UNL     1       2.418   9.683   0.035  0.00  0.00    +0.008 A 
ATOM     14  C   UNL     1       3.607  10.381   0.033  0.00  0.00    +0.003 A 
ATOM     15  C   UNL     1       4.813   9.702   0.019  0.00  0.00    +0.033 A 
ATOM     16  C   UNL     1       4.836   8.318   0.019  0.00  0.00    +0.127 A 
ATOM     17  C   UNL     1       3.655   7.605   0.026  0.00  0.00    +0.040 A 
BRANCH  16  18
ATOM     18  N   UNL     1       6.131   7.601   0.011  0.00  0.00    +0.056 N 
ATOM     19  O   UNL     1       7.174   8.229   0.004  0.00  0.00    -0.126 OA
ATOM     20  O   UNL     1       6.153   6.384   0.011  0.00  0.00    -0.126 OA
ENDBRANCH  16  18
ENDBRANCH  11  12
ENDBRANCH   7  10
BRANCH   1  21
ATOM     21  C   UNL     1      -5.484   9.885   2.439  0.00  0.00    -0.057 C 
BRANCH  21  22
ATOM     22  C   UNL     1      -6.734   9.011   2.556  0.00  0.00    +0.094 C 
BRANCH  22  33
ATOM     23  C   UNL     1     -10.205  11.018   6.670  0.00  0.00    +0.001 A 
ATOM     24  C   UNL     1     -11.396  10.352   6.923  0.00  0.00    +0.004 A 
ATOM     25  C   UNL     1     -11.747   9.238   6.191  0.00  0.00    +0.047 A 
ATOM     26  C   UNL     1     -10.896   8.761   5.202  0.00  0.00    +0.141 A 
ATOM     27  C   UNL     1      -9.689   9.430   4.950  0.00  0.00    +0.041 A 
ATOM     28  C   UNL     1      -9.350  10.565   5.690  0.00  0.00    +0.013 A 
ATOM     29  C   UNL     1      -8.799   8.918   3.894  0.00  0.00    +0.053 A 
ATOM     30  C   UNL     1      -9.191   7.796   3.211  0.00  0.00    +0.113 A 
ATOM     31  C   UNL     1     -10.410   7.182   3.527  0.00  0.00    +0.286 A 
ATOM     32  O   UNL     1     -11.217   7.661   4.487  0.00  0.00    -0.425 OA
ATOM     33  N   UNL     1      -7.606   9.544   3.607  0.00  0.00    -0.385 N 
ATOM     34  H   UNL     1      -7.307  10.443   4.165  0.00  0.00    +0.160 HD
BRANCH  31  35
ATOM     35  O   UNL     1     -10.748   6.186   2.912  0.00  0.00    -0.480 OA
ATOM     36  H   UNL     1     -11.702   5.691   3.147  0.00  0.00    +0.295 HD
ENDBRANCH  31  35
ENDBRANCH  22  33
ENDBRANCH  21  22
ENDBRANCH   1  21
TORSDOF 7
