REMARK  Name = ZINC08635453
REMARK  5 active torsions:
REMARK  status: ('A' for Active; 'I' for Inactive)
REMARK    1  A    between atoms: C_1  and  N_2
REMARK    2  A    between atoms: C_3  and  C_12
REMARK    3  A    between atoms: C_5  and  C_7
REMARK    4  A    between atoms: C_20  and  C_22
REMARK    5  A    between atoms: C_22  and  N_23
REMARK                            x       y       z     vdW  Elec       q    Type
REMARK                         _______ _______ _______ _____ _____    ______ ____
ROOT
ATOM      1  C   UNL     1       2.021   1.596  -1.480  0.00  0.00    +0.024 C 
ATOM      2  C   UNL     1       1.869   0.131  -1.899  0.00  0.00    -0.068 C 
ATOM      3  C   UNL     1      -0.277  -0.022  -0.785  0.00  0.00    -0.078 C 
ATOM      4  C   UNL     1      -0.186   1.439  -0.334  0.00  0.00    -0.015 C 
ATOM      5  C   UNL     1       1.291   1.808  -0.148  0.00  0.00    -0.007 C 
ATOM      6  C   UNL     1       1.902   0.869   0.900  0.00  0.00    -0.010 C 
ATOM      7  C   UNL     1       1.754  -0.576   0.414  0.00  0.00    -0.051 C 
ATOM      8  N   UNL     1       1.075  -0.612  -0.898  0.00  0.00    +0.383 N 
ATOM      9  H   UNL     1       0.987  -1.589  -1.202  0.00  0.00    -0.081 HD
ENDROOT
BRANCH   1  12
ATOM     10  C   UNL     1       3.214   4.019   0.043  0.00  0.00    +0.172 C 
ATOM     11  N   UNL     1       3.988   2.984  -0.647  0.00  0.00    -0.271 N 
ATOM     12  C   UNL     1       3.482   1.925  -1.313  0.00  0.00    +0.041 A 
ATOM     13  C   UNL     1       4.522   1.209  -1.800  0.00  0.00    +0.048 A 
ATOM     14  C   UNL     1       5.703   1.857  -1.425  0.00  0.00    +0.066 A 
ATOM     15  N   UNL     1       5.385   2.919  -0.732  0.00  0.00    -0.176 NA
BRANCH  14  16
ATOM     16  C   UNL     1       7.102   1.405  -1.758  0.00  0.00    +0.040 C 
ATOM     17  C   UNL     1       7.117   0.700  -3.130  0.00  0.00    +0.010 C 
ATOM     18  C   UNL     1       8.140  -0.450  -2.955  0.00  0.00    +0.001 C 
ATOM     19  C   UNL     1       7.871  -0.929  -1.507  0.00  0.00    +0.001 C 
ATOM     20  C   UNL     1       7.582   0.370  -0.726  0.00  0.00    +0.010 C 
ENDBRANCH  14  16
ENDBRANCH   1  12
BRANCH   7  21
ATOM     21  C   UNL     1       3.139  -1.212   0.274  0.00  0.00    +0.090 C 
BRANCH  21  22
ATOM     22  N   UNL     1       3.005  -2.550  -0.306  0.00  0.00    -0.301 N 
ATOM     23  C   UNL     1       4.101  -3.304  -0.522  0.00  0.00    +0.302 C 
ATOM     24  O   UNL     1       5.191  -2.911  -0.154  0.00  0.00    -0.253 OA
ATOM     25  N   UNL     1       3.990  -4.492  -1.148  0.00  0.00    -0.281 N 
ATOM     26  C   UNL     1       5.154  -5.378  -1.304  0.00  0.00    +0.137 C 
ATOM     27  C   UNL     1       4.759  -6.780  -0.814  0.00  0.00    +0.179 C 
ATOM     28  O   UNL     1       3.559  -7.187  -1.476  0.00  0.00    -0.377 OA
ATOM     29  C   UNL     1       2.426  -6.361  -1.194  0.00  0.00    +0.179 C 
ATOM     30  C   UNL     1       2.701  -4.940  -1.699  0.00  0.00    +0.137 C 
ATOM     31  H   UNL     1       2.127  -2.895  -0.534  0.00  0.00    +0.150 HD
ENDBRANCH  21  22
ENDBRANCH   7  21
TORSDOF 4
