REMARK  Name = ZINC50200635
REMARK  5 active torsions:
REMARK  status: ('A' for Active; 'I' for Inactive)
REMARK    1  A    between atoms: C_3  and  C_6
REMARK    2  A    between atoms: C_6  and  N_7
REMARK    3  A    between atoms: C_11  and  C_13
REMARK    4  A    between atoms: C_13  and  N_14
REMARK    5  A    between atoms: C_15  and  C_17
REMARK                            x       y       z     vdW  Elec       q    Type
REMARK                         _______ _______ _______ _____ _____    ______ ____
ROOT
ATOM      1  C   UNL     1       7.429   3.486   2.772  0.00  0.00    +0.106 C 
ENDROOT
BRANCH   1   6
ATOM      2  N   UNL     1       4.235   2.004   1.357  0.00  0.00    +0.383 N 
ATOM      3  C   UNL     1       4.291   0.689   2.007  0.00  0.00    -0.078 C 
ATOM      4  C   UNL     1       4.707   0.857   3.470  0.00  0.00    -0.018 C 
ATOM      5  C   UNL     1       6.087   1.518   3.531  0.00  0.00    +0.001 C 
ATOM      6  C   UNL     1       6.036   2.854   2.785  0.00  0.00    -0.011 C 
ATOM      7  C   UNL     1       5.571   2.612   1.347  0.00  0.00    -0.073 C 
ATOM      8  H   UNL     1       3.599   2.601   1.864  0.00  0.00    -0.081 HD
BRANCH   2   9
ATOM      9  C   UNL     1       3.761   1.845  -0.024  0.00  0.00    -0.036 C 
BRANCH   9  12
ATOM     10  C   UNL     1      -0.016   1.351   0.009  0.00  0.00    +0.008 A 
ATOM     11  C   UNL     1       1.183   2.038   0.002  0.00  0.00    +0.009 A 
ATOM     12  C   UNL     1       2.343   1.336  -0.013  0.00  0.00    -0.027 A 
ATOM     13  S   UNL     1       1.754  -0.349  -0.017  0.00  0.00    -0.103 S 
ATOM     14  C   UNL     1       0.002  -0.004   0.002  0.00  0.00    +0.045 A 
ENDBRANCH   9  12
ENDBRANCH   2   9
ENDBRANCH   1   6
BRANCH   1  15
ATOM     15  N   UNL     1       7.826   3.822   4.141  0.00  0.00    -0.307 N 
ATOM     16  C   UNL     1       9.024   4.393   4.375  0.00  0.00    +0.299 C 
ATOM     17  O   UNL     1       9.775   4.629   3.451  0.00  0.00    -0.265 OA
ATOM     18  H   UNL     1       7.226   3.633   4.880  0.00  0.00    +0.149 HD
BRANCH  16  19
ATOM     19  C   UNL     1       9.429   4.735   5.771  0.00  0.00    +0.305 C 
ATOM     20  O   UNL     1       8.678   4.499   6.695  0.00  0.00    -0.265 OA
ATOM     21  N   UNL     1      10.627   5.306   6.004  0.00  0.00    -0.257 N 
ATOM     22  C   UNL     1      11.003   5.624   7.301  0.00  0.00    +0.165 A 
ATOM     23  N   UNL     1      10.329   5.439   8.417  0.00  0.00    -0.233 NA
ATOM     24  C   UNL     1      10.829   5.799   9.584  0.00  0.00    +0.120 A 
ATOM     25  C   UNL     1      12.062   6.365   9.578  0.00  0.00    +0.068 A 
ATOM     26  S   UNL     1      12.434   6.335   7.831  0.00  0.00    -0.061 S 
ATOM     27  H   UNL     1      11.227   5.495   5.266  0.00  0.00    +0.157 HD
ENDBRANCH  16  19
ENDBRANCH   1  15
TORSDOF 5
