REMARK  Name = ZINC13495813
REMARK  12 active torsions:
REMARK  status: ('A' for Active; 'I' for Inactive)
REMARK    1  A    between atoms: C_1  and  C_2
REMARK    2  A    between atoms: C_2  and  C_3
REMARK    3  A    between atoms: C_3  and  C_5
REMARK    4  A    between atoms: C_3  and  N_70
REMARK    5  A    between atoms: N_9  and  C_10
REMARK    6  A    between atoms: C_10  and  C_11
REMARK    7  A    between atoms: C_17  and  C_18
REMARK    8  A    between atoms: C_17  and  N_70
REMARK    9  A    between atoms: C_18  and  C_19
REMARK   10  A    between atoms: C_25  and  C_26
REMARK   11  A    between atoms: C_25  and  N_70
REMARK   12  A    between atoms: C_32  and  C_38
REMARK                            x       y       z     vdW  Elec       q    Type
REMARK                         _______ _______ _______ _____ _____    ______ ____
ROOT
ATOM      1  N   UNL     1      -0.939   1.901  -0.954  0.00  0.00    +0.389 N 
ATOM      2  H   UNL     1      -1.757   1.365  -0.639  0.00  0.00    -0.080 HD
ENDROOT
BRANCH   1   3
ATOM      3  C   UNL     1      -1.349   3.298  -1.208  0.00  0.00    +0.003 C 
BRANCH   3   4
ATOM      4  C   UNL     1      -2.746   3.295  -1.773  0.00  0.00    +0.138 A 
ATOM      5  N   UNL     1      -3.215   2.489  -2.694  0.00  0.00    -0.115 NA
ATOM      6  N   UNL     1      -4.447   2.801  -2.906  0.00  0.00    -0.023 NA
ATOM      7  N   UNL     1      -4.776   3.785  -2.144  0.00  0.00    -0.044 NA
ATOM      8  N   UNL     1      -3.755   4.115  -1.427  0.00  0.00    -0.228 N 
BRANCH   8   9
ATOM      9  C   UNL     1      -3.703   5.183  -0.425  0.00  0.00    +0.178 C 
BRANCH   9  10
ATOM     10  C   UNL     1      -3.275   6.490  -1.096  0.00  0.00    +0.140 C 
ATOM     11  C   UNL     1      -3.106   7.595  -0.031  0.00  0.00    +0.035 C 
ATOM     12  C   UNL     1      -3.686   8.841  -0.753  0.00  0.00    +0.031 C 
ATOM     13  C   UNL     1      -4.814   8.194  -1.597  0.00  0.00    +0.160 C 
ATOM     14  O   UNL     1      -4.290   6.922  -2.010  0.00  0.00    -0.375 OA
ENDBRANCH   9  10
ENDBRANCH   8   9
ENDBRANCH   3   4
BRANCH   3  16
ATOM     15  C   UNL     1       1.007   4.033  -1.600  0.00  0.00    +0.002 C 
ATOM     16  C   UNL     1      -0.397   3.961  -2.205  0.00  0.00    -0.011 C 
ENDBRANCH   3  16
ENDBRANCH   1   3
BRANCH   1  17
ATOM     17  C   UNL     1       0.096   1.861   0.100  0.00  0.00    -0.073 C 
BRANCH  17  18
ATOM     18  C   UNL     1      -0.536   2.277   1.429  0.00  0.00    +0.016 C 
BRANCH  18  19
ATOM     19  C   UNL     1       0.517   2.284   2.507  0.00  0.00    -0.049 A 
ATOM     20  C   UNL     1       0.754   1.141   3.248  0.00  0.00    +0.003 A 
ATOM     21  C   UNL     1       1.723   1.146   4.234  0.00  0.00    +0.000 A 
ATOM     22  C   UNL     1       2.449   2.295   4.484  0.00  0.00    +0.000 A 
ATOM     23  C   UNL     1       2.209   3.439   3.746  0.00  0.00    +0.000 A 
ATOM     24  C   UNL     1       1.242   3.433   2.757  0.00  0.00    +0.003 A 
ENDBRANCH  18  19
ENDBRANCH  17  18
ENDBRANCH   1  17
BRANCH   1  25
ATOM     25  C   UNL     1      -0.418   1.293  -2.197  0.00  0.00    -0.037 C 
BRANCH  25  26
ATOM     26  C   UNL     1      -0.447  -0.206  -2.050  0.00  0.00    +0.001 A 
ATOM     27  C   UNL     1      -1.512  -0.909  -2.509  0.00  0.00    +0.017 A 
ATOM     28  C   UNL     1      -1.510  -2.365  -2.351  0.00  0.00    -0.001 A 
ATOM     29  C   UNL     1      -2.579  -3.144  -2.804  0.00  0.00    +0.010 A 
ATOM     30  C   UNL     1      -2.547  -4.500  -2.642  0.00  0.00    +0.001 A 
ATOM     31  C   UNL     1      -1.460  -5.112  -2.031  0.00  0.00    +0.005 A 
ATOM     32  C   UNL     1      -0.395  -4.365  -1.578  0.00  0.00    -0.026 A 
ATOM     33  C   UNL     1      -0.406  -2.982  -1.732  0.00  0.00    +0.052 A 
ATOM     34  N   UNL     1       0.646  -2.210  -1.288  0.00  0.00    -0.322 N 
ATOM     35  H   UNL     1       1.406  -2.637  -0.862  0.00  0.00    +0.169 HD
ATOM     36  C   UNL     1       0.637  -0.874  -1.442  0.00  0.00    +0.251 A 
ATOM     37  O   UNL     1       1.587  -0.224  -1.042  0.00  0.00    -0.268 OA
ATOM     38  C   UNL     1       0.778  -5.042  -0.917  0.00  0.00    +0.046 C 
ENDBRANCH  25  26
ENDBRANCH   1  25
TORSDOF 10
