REMARK  Name = ZINC13810645
REMARK  8 active torsions:
REMARK  status: ('A' for Active; 'I' for Inactive)
REMARK    1  A    between atoms: C_1  and  C_2
REMARK    2  A    between atoms: C_2  and  C_4
REMARK    3  A    between atoms: C_2  and  N_10
REMARK    4  A    between atoms: C_11  and  C_13
REMARK    5  A    between atoms: C_13  and  C_36
REMARK    6  A    between atoms: N_15  and  C_30
REMARK    7  A    between atoms: C_19  and  C_20
REMARK    8  A    between atoms: C_24  and  N_26
REMARK                            x       y       z     vdW  Elec       q    Type
REMARK                         _______ _______ _______ _____ _____    ______ ____
ROOT
ATOM      1  C   UNL     1       4.906   5.315   1.858  0.00  0.00    +0.144 C 
ATOM      2  C   UNL     1       6.061   5.961   2.304  0.00  0.00    +0.111 A 
ATOM      3  N   UNL     1       7.308   5.973   1.730  0.00  0.00    -0.269 N 
ATOM      4  C   UNL     1       8.304   6.642   2.288  0.00  0.00    +0.270 A 
ATOM      5  O   UNL     1       9.414   6.663   1.790  0.00  0.00    -0.266 OA
ATOM      6  C   UNL     1       8.005   7.363   3.541  0.00  0.00    +0.079 A 
ATOM      7  C   UNL     1       8.822   8.119   4.316  0.00  0.00    +0.028 C 
ATOM      8  S   UNL     1       6.273   6.979   3.756  0.00  0.00    -0.064 S 
ENDROOT
BRANCH   7   9
ATOM      9  C   UNL     1      10.266   8.159   4.041  0.00  0.00    -0.022 A 
ATOM     10  C   UNL     1      10.959   9.374   4.095  0.00  0.00    +0.008 A 
ATOM     11  C   UNL     1      12.312   9.403   3.835  0.00  0.00    +0.003 A 
ATOM     12  C   UNL     1      12.986   8.235   3.522  0.00  0.00    +0.033 A 
ATOM     13  C   UNL     1      12.308   7.030   3.467  0.00  0.00    +0.127 A 
ATOM     14  C   UNL     1      10.956   6.982   3.729  0.00  0.00    +0.040 A 
BRANCH  13  15
ATOM     15  N   UNL     1      13.039   5.787   3.132  0.00  0.00    +0.056 N 
ATOM     16  O   UNL     1      14.235   5.826   2.906  0.00  0.00    -0.126 OA
ATOM     17  O   UNL     1      12.444   4.725   3.083  0.00  0.00    -0.126 OA
ENDBRANCH  13  15
ENDBRANCH   7   9
BRANCH   3  18
ATOM     18  C   UNL     1       7.529   5.269   0.539  0.00  0.00    +0.051 A 
ATOM     19  C   UNL     1       8.184   4.046   0.566  0.00  0.00    +0.026 A 
ATOM     20  C   UNL     1       8.396   3.352  -0.609  0.00  0.00    +0.002 A 
ATOM     21  C   UNL     1       7.964   3.879  -1.813  0.00  0.00    +0.000 A 
ATOM     22  C   UNL     1       7.316   5.100  -1.843  0.00  0.00    +0.002 A 
ATOM     23  C   UNL     1       7.097   5.796  -0.671  0.00  0.00    +0.026 A 
ENDBRANCH   3  18
BRANCH   1  25
ATOM     24  N   UNL     1       5.330   3.118   0.899  0.00  0.00    -0.304 N 
ATOM     25  C   UNL     1       4.973   4.404   0.716  0.00  0.00    +0.257 C 
ATOM     26  O   UNL     1       4.705   4.809  -0.402  0.00  0.00    -0.269 OA
ATOM     27  H   UNL     1       5.482   2.780   1.796  0.00  0.00    +0.150 HD
BRANCH  24  29
ATOM     28  C   UNL     1       4.126   1.655  -0.648  0.00  0.00    +0.033 C 
ATOM     29  C   UNL     1       5.489   2.230  -0.255  0.00  0.00    +0.100 C 
BRANCH  29  30
ATOM     30  C   UNL     1       6.424   1.104   0.102  0.00  0.00    -0.027 A 
ATOM     31  C   UNL     1       6.353   0.516   1.351  0.00  0.00    +0.005 A 
ATOM     32  C   UNL     1       7.211  -0.517   1.679  0.00  0.00    +0.000 A 
ATOM     33  C   UNL     1       8.141  -0.961   0.758  0.00  0.00    +0.000 A 
ATOM     34  C   UNL     1       8.214  -0.372  -0.490  0.00  0.00    +0.000 A 
ATOM     35  C   UNL     1       7.355   0.660  -0.818  0.00  0.00    +0.005 A 
ENDBRANCH  29  30
ENDBRANCH  24  29
ENDBRANCH   1  25
BRANCH   1  36
ATOM     36  C   UNL     1       3.656   5.544   2.519  0.00  0.00    +0.107 C 
ATOM     37  N   UNL     1       2.665   5.726   3.043  0.00  0.00    -0.191 NA
ENDBRANCH   1  36
TORSDOF 7
