REMARK  Name = ZINC39669489
REMARK  6 active torsions:
REMARK  status: ('A' for Active; 'I' for Inactive)
REMARK    1  A    between atoms: C_1  and  O_2
REMARK    2  A    between atoms: O_2  and  C_3
REMARK    3  A    between atoms: C_4  and  C_9
REMARK    4  A    between atoms: C_13  and  C_22
REMARK    5  A    between atoms: N_24  and  C_25
REMARK    6  A    between atoms: C_25  and  C_26
REMARK                            x       y       z     vdW  Elec       q    Type
REMARK                         _______ _______ _______ _____ _____    ______ ____
ROOT
ATOM      1  C   UNL     1       2.875  -0.627  -0.165  0.00  0.00    +0.251 C 
ATOM      2  O   UNL     1       2.197  -0.817   0.828  0.00  0.00    -0.270 OA
ATOM      3  N   UNL     1       4.159  -1.036  -0.193  0.00  0.00    -0.296 N 
ATOM      4  C   UNL     1       4.888  -1.810   0.839  0.00  0.00    +0.121 C 
ATOM      5  C   UNL     1       5.767  -2.797   0.038  0.00  0.00    +0.100 C 
ATOM      6  C   UNL     1       5.944  -2.136  -1.339  0.00  0.00    -0.004 C 
ATOM      7  C   UNL     1       5.159  -0.818  -1.266  0.00  0.00    +0.115 C 
ATOM      8  C   UNL     1       5.363  -3.029  -2.432  0.00  0.00    -0.010 C 
ATOM      9  C   UNL     1       5.601  -2.377  -3.797  0.00  0.00    -0.082 C 
ATOM     10  N   UNL     1       7.042  -2.188  -4.006  0.00  0.00    +0.379 N 
ATOM     11  C   UNL     1       7.575  -1.254  -3.006  0.00  0.00    -0.082 C 
ATOM     12  C   UNL     1       7.420  -1.859  -1.607  0.00  0.00    -0.010 C 
ATOM     13  H   UNL     1       7.512  -3.076  -3.919  0.00  0.00    -0.086 HD
ATOM     14  H   UNL     1       7.200  -1.815  -4.930  0.00  0.00    -0.086 HD
ENDROOT
BRANCH   1  16
ATOM     15  C   UNL     1       0.911  -0.145  -1.710  0.00  0.00    +0.158 A 
ATOM     16  C   UNL     1       2.293   0.050  -1.334  0.00  0.00    +0.087 A 
ATOM     17  C   UNL     1       3.039   0.899  -2.121  0.00  0.00    +0.063 A 
ATOM     18  S   UNL     1       1.967   1.416  -3.303  0.00  0.00    -0.081 S 
ATOM     19  C   UNL     1       0.504   0.532  -2.808  0.00  0.00    +0.120 A 
ATOM     20 CL   UNL     1      -1.064   0.538  -3.552  0.00  0.00    -0.072 Cl
BRANCH  15  22
ATOM     21  C   UNL     1       0.022  -2.331  -1.409  0.00  0.00    +0.277 C 
ATOM     22  O   UNL     1       0.076  -0.960  -1.010  0.00  0.00    -0.492 OA
ENDBRANCH  15  22
ENDBRANCH   1  16
BRANCH   5  23
ATOM     23  C   UNL     1       5.071  -4.126  -0.100  0.00  0.00    +0.218 C 
ATOM     24  O   UNL     1       3.864  -4.170  -0.218  0.00  0.00    -0.275 OA
ATOM     25  N   UNL     1       5.789  -5.267  -0.093  0.00  0.00    -0.315 N 
ATOM     26  H   UNL     1       6.753  -5.232   0.001  0.00  0.00    +0.149 HD
BRANCH  25  27
ATOM     27  C   UNL     1       5.112  -6.559  -0.228  0.00  0.00    +0.109 C 
BRANCH  27  28
ATOM     28  C   UNL     1       6.148  -7.684  -0.190  0.00  0.00    +0.024 C 
ATOM     29  C   UNL     1       5.457  -9.024  -0.453  0.00  0.00    +0.008 C 
ATOM     30  C   UNL     1       6.498 -10.146  -0.448  0.00  0.00    +0.019 C 
ATOM     31  C   UNL     1       7.167 -10.210   0.929  0.00  0.00    +0.108 C 
ATOM     32  N   UNL     1       7.709  -8.883   1.253  0.00  0.00    -0.299 N 
ATOM     33  C   UNL     1       6.814  -7.719   1.189  0.00  0.00    +0.113 C 
ATOM     34  C   UNL     1       9.037  -8.732   1.611  0.00  0.00    +0.218 A 
ATOM     35  N   UNL     1       9.495  -7.523   1.903  0.00  0.00    -0.223 NA
ATOM     36  C   UNL     1      10.758  -7.344   2.250  0.00  0.00    +0.116 A 
ATOM     37  C   UNL     1      11.606  -8.439   2.306  0.00  0.00    +0.039 A 
ATOM     38  C   UNL     1      11.095  -9.689   1.994  0.00  0.00    +0.116 A 
ATOM     39  N   UNL     1       9.819  -9.800   1.660  0.00  0.00    -0.223 NA
ENDBRANCH  27  28
ENDBRANCH  25  27
ENDBRANCH   5  23
TORSDOF 5
