REMARK  Name = ZINC22195977
REMARK  6 active torsions:
REMARK  status: ('A' for Active; 'I' for Inactive)
REMARK    1  A    between atoms: C_1  and  C_2
REMARK    2  A    between atoms: C_2  and  C_4
REMARK    3  A    between atoms: C_2  and  N_10
REMARK    4  A    between atoms: N_6  and  C_7
REMARK    5  A    between atoms: C_23  and  C_25
REMARK    6  A    between atoms: C_26  and  C_27
REMARK                            x       y       z     vdW  Elec       q    Type
REMARK                         _______ _______ _______ _____ _____    ______ ____
ROOT
ATOM      1  N   UNL     1      -3.278   4.700  -0.896  0.00  0.00    +0.389 N 
ATOM      2  C   UNL     1      -3.279   4.397   0.542  0.00  0.00    -0.059 C 
ATOM      3  C   UNL     1      -1.840   4.404   1.063  0.00  0.00    +0.088 C 
ATOM      4  N   UNL     1      -1.048   3.414   0.320  0.00  0.00    -0.318 N 
ATOM      5  C   UNL     1      -1.047   3.716  -1.119  0.00  0.00    +0.088 C 
ATOM      6  C   UNL     1      -2.486   3.709  -1.639  0.00  0.00    -0.059 C 
ATOM      7  C   UNL     1       0.243   3.341   0.812  0.00  0.00    +0.134 A 
ATOM      8  C   UNL     1       0.767   2.144   1.385  0.00  0.00    +0.051 A 
ATOM      9  C   UNL     1       0.079   0.875   1.540  0.00  0.00    -0.025 A 
ATOM     10  C   UNL     1       0.779  -0.130   2.115  0.00  0.00    -0.004 A 
ATOM     11  S   UNL     1       2.376   0.559   2.476  0.00  0.00    -0.073 S 
ATOM     12  C   UNL     1       2.105   2.188   1.857  0.00  0.00    +0.114 A 
ATOM     13  N   UNL     1       2.863   3.262   1.790  0.00  0.00    -0.221 NA
ATOM     14  C   UNL     1       2.315   4.353   1.241  0.00  0.00    +0.156 A 
ATOM     15  N   UNL     1       1.069   4.382   0.779  0.00  0.00    -0.213 NA
ATOM     16  C   UNL     1       0.306  -1.525   2.388  0.00  0.00    +0.043 C 
ATOM     17  C   UNL     1      -1.223  -1.555   2.255  0.00  0.00    +0.005 C 
ATOM     18  C   UNL     1      -1.616  -0.847   0.955  0.00  0.00    +0.005 C 
ATOM     19  C   UNL     1      -1.361   0.654   1.085  0.00  0.00    +0.037 C 
ATOM     20  H   UNL     1      -2.808   5.684  -1.036  0.00  0.00    -0.081 HD
ENDROOT
BRANCH   1  22
ATOM     21  C   UNL     1      -4.606   4.979  -2.935  0.00  0.00    -0.004 C 
ATOM     22  C   UNL     1      -4.649   4.777  -1.419  0.00  0.00    +0.016 C 
BRANCH  22  23
ATOM     23  C   UNL     1      -5.366   5.936  -0.777  0.00  0.00    +0.199 C 
ATOM     24  O   UNL     1      -4.737   6.894  -0.380  0.00  0.00    -0.278 OA
ATOM     25  N   UNL     1      -6.707   5.909  -0.645  0.00  0.00    -0.314 N 
ATOM     26  H   UNL     1      -7.278   5.041  -1.005  0.00  0.00    +0.149 HD
BRANCH  25  27
ATOM     27  C   UNL     1      -7.405   7.037  -0.021  0.00  0.00    +0.073 C 
ATOM     28  C   UNL     1      -8.507   6.714   0.990  0.00  0.00    +0.024 C 
ATOM     29  C   UNL     1      -8.873   7.253  -0.395  0.00  0.00    +0.024 C 
ENDBRANCH  25  27
ENDBRANCH  22  23
ENDBRANCH   1  22
BRANCH  14  30
ATOM     30  C   UNL     1       3.128   5.576   1.146  0.00  0.00    +0.049 C 
ATOM     31  C   UNL     1       4.392   5.580   1.604  0.00  0.00    +0.011 C 
BRANCH  31  32
ATOM     32  C   UNL     1       5.206   6.804   1.509  0.00  0.00    -0.025 A 
ATOM     33  C   UNL     1       4.670   7.961   0.937  0.00  0.00    +0.008 A 
ATOM     34  C   UNL     1       5.436   9.105   0.856  0.00  0.00    +0.001 A 
ATOM     35  C   UNL     1       6.737   9.105   1.328  0.00  0.00    +0.000 A 
ATOM     36  C   UNL     1       7.276   7.962   1.891  0.00  0.00    +0.001 A 
ATOM     37  C   UNL     1       6.520   6.812   1.984  0.00  0.00    +0.008 A 
ENDBRANCH  31  32
ENDBRANCH  14  30
TORSDOF 5
