REMARK  Name = ZINC33858626
REMARK  6 active torsions:
REMARK  status: ('A' for Active; 'I' for Inactive)
REMARK    1  A    between atoms: C_9  and  O_30
REMARK    2  A    between atoms: C_10  and  C_11
REMARK    3  A    between atoms: C_20  and  C_28
REMARK    4  A    between atoms: C_21  and  N_27
REMARK    5  A    between atoms: C_22  and  C_23
REMARK    6  A    between atoms: C_22  and  C_25
REMARK                            x       y       z     vdW  Elec       q    Type
REMARK                         _______ _______ _______ _____ _____    ______ ____
ROOT
ATOM      1  C   UNL     1       4.731   0.251   0.869  0.00  0.00    +0.070 C 
ATOM      2  C   UNL     1       5.685   0.498  -0.302  0.00  0.00    +0.030 C 
ATOM      3  C   UNL     1       5.087   1.434  -1.327  0.00  0.00    +0.009 C 
ATOM      4  C   UNL     1       4.497   0.675  -2.514  0.00  0.00    +0.005 C 
ATOM      5  C   UNL     1       5.614  -0.155  -3.161  0.00  0.00    +0.027 C 
ATOM      6  C   UNL     1       6.115  -1.133  -2.131  0.00  0.00    -0.022 C 
ATOM      7  C   UNL     1       6.098  -0.830  -0.863  0.00  0.00    -0.029 C 
ATOM      8  C   UNL     1       6.487  -1.881   0.114  0.00  0.00    +0.074 C 
ATOM      9  C   UNL     1       6.180  -1.716   1.426  0.00  0.00    +0.054 C 
ATOM     10  C   UNL     1       5.479  -0.504   1.969  0.00  0.00    +0.188 C 
ENDROOT
BRANCH   1  20
ATOM     11  C   UNL     1       0.285   1.233  -1.466  0.00  0.00    +0.001 A 
ATOM     12  C   UNL     1       1.360   2.009  -1.038  0.00  0.00    +0.001 A 
ATOM     13  C   UNL     1       2.436   1.441  -0.428  0.00  0.00    +0.009 A 
ATOM     14  C   UNL     1       2.466   0.050  -0.226  0.00  0.00    -0.011 A 
ATOM     15  C   UNL     1       1.372  -0.740  -0.661  0.00  0.00    -0.017 A 
ATOM     16  C   UNL     1       0.279  -0.116  -1.287  0.00  0.00    +0.008 A 
ATOM     17  C   UNL     1       1.400  -2.130  -0.459  0.00  0.00    +0.012 A 
ATOM     18  C   UNL     1       2.473  -2.702   0.150  0.00  0.00    +0.046 A 
ATOM     19  C   UNL     1       3.553  -1.925   0.581  0.00  0.00    +0.121 A 
ATOM     20  C   UNL     1       3.559  -0.572   0.400  0.00  0.00    +0.008 A 
BRANCH  19  21
ATOM     21  O   UNL     1       4.611  -2.525   1.187  0.00  0.00    -0.506 OA
ATOM     22  H   UNL     1       5.074  -3.165   0.628  0.00  0.00    +0.292 HD
ENDBRANCH  19  21
ENDBRANCH   1  20
BRANCH   9  23
ATOM     23  N   UNL     1       6.528  -2.706   2.300  0.00  0.00    -0.358 N 
ATOM     24  H   UNL     1       6.981  -3.501   1.978  0.00  0.00    +0.142 HD
ATOM     25  H   UNL     1       6.321  -2.615   3.244  0.00  0.00    +0.142 HD
ENDBRANCH   9  23
BRANCH  10  26
ATOM     26  C   UNL     1       6.474   0.394   2.577  0.00  0.00    +0.091 C 
ATOM     27  N   UNL     1       7.242   1.087   3.046  0.00  0.00    -0.194 NA
ENDBRANCH  10  26
BRANCH  10  28
ATOM     28  C   UNL     1       4.518  -0.924   3.002  0.00  0.00    +0.091 C 
ATOM     29  N   UNL     1       3.776  -1.248   3.799  0.00  0.00    -0.194 NA
ENDBRANCH  10  28
BRANCH   8  30
ATOM     30  C   UNL     1       7.178  -3.055  -0.324  0.00  0.00    +0.101 C 
ATOM     31  N   UNL     1       7.727  -3.987  -0.672  0.00  0.00    -0.191 NA
ENDBRANCH   8  30
TORSDOF 6
