REMARK  Name = ZINC24673931
REMARK  13 active torsions:
REMARK  status: ('A' for Active; 'I' for Inactive)
REMARK    1  A    between atoms: C_1  and  C_2
REMARK    2  A    between atoms: C_2  and  N_3
REMARK    3  A    between atoms: N_3  and  C_4
REMARK    4  A    between atoms: C_5  and  N_20
REMARK    5  A    between atoms: N_6  and  C_13
REMARK    6  A    between atoms: C_13  and  C_14
REMARK    7  A    between atoms: C_21  and  C_23
REMARK    8  A    between atoms: C_23  and  N_24
REMARK    9  A    between atoms: N_24  and  C_25
REMARK   10  A    between atoms: N_24  and  C_32
REMARK   11  A    between atoms: C_25  and  C_26
REMARK   12  A    between atoms: C_32  and  C_34
REMARK   13  A    between atoms: C_32  and  C_35
REMARK                            x       y       z     vdW  Elec       q    Type
REMARK                         _______ _______ _______ _____ _____    ______ ____
ROOT
ATOM      1  N   UNL     1       0.232  -0.354  -2.030  0.00  0.00    -0.266 N 
ATOM      2  C   UNL     1      -0.742  -0.210  -2.953  0.00  0.00    +0.203 C 
ATOM      3  O   UNL     1      -0.696  -0.841  -3.988  0.00  0.00    -0.277 OA
ENDROOT
BRANCH   1   4
ATOM      4  C   UNL     1       1.251  -1.310  -2.224  0.00  0.00    +0.140 A 
ATOM      5  C   UNL     1       0.987  -2.657  -2.082  0.00  0.00    +0.128 A 
ATOM      6  N   UNL     1       2.002  -3.565  -2.277  0.00  0.00    -0.276 N 
ATOM      7  C   UNL     1       3.238  -3.144  -2.603  0.00  0.00    +0.331 A 
ATOM      8  O   UNL     1       4.121  -3.962  -2.772  0.00  0.00    -0.246 OA
ATOM      9  N   UNL     1       3.513  -1.836  -2.747  0.00  0.00    -0.273 N 
ATOM     10  H   UNL     1       4.412  -1.558  -2.983  0.00  0.00    +0.173 HD
ATOM     11  C   UNL     1       2.554  -0.906  -2.573  0.00  0.00    +0.277 A 
ATOM     12  O   UNL     1       2.813   0.277  -2.710  0.00  0.00    -0.266 OA
BRANCH   5  13
ATOM     13  N   UNL     1      -0.275  -3.086  -1.747  0.00  0.00    -0.343 N 
ATOM     14  H   UNL     1      -0.998  -2.446  -1.662  0.00  0.00    +0.144 HD
ATOM     15  H   UNL     1      -0.442  -4.030  -1.597  0.00  0.00    +0.144 HD
ENDBRANCH   5  13
BRANCH   6  16
ATOM     16  C   UNL     1       1.736  -4.997  -2.129  0.00  0.00    +0.163 C 
BRANCH  16  17
ATOM     17  C   UNL     1       1.307  -5.569  -3.456  0.00  0.00    -0.028 A 
ATOM     18  C   UNL     1      -0.031  -5.586  -3.801  0.00  0.00    +0.005 A 
ATOM     19  C   UNL     1      -0.424  -6.110  -5.018  0.00  0.00    +0.000 A 
ATOM     20  C   UNL     1       0.521  -6.617  -5.891  0.00  0.00    +0.000 A 
ATOM     21  C   UNL     1       1.860  -6.599  -5.545  0.00  0.00    +0.000 A 
ATOM     22  C   UNL     1       2.253  -6.071  -4.330  0.00  0.00    +0.005 A 
ENDBRANCH  16  17
ENDBRANCH   6  16
ENDBRANCH   1   4
BRANCH   1  24
ATOM     23  C   UNL     1       0.950   1.799  -1.119  0.00  0.00    +0.025 C 
ATOM     24  C   UNL     1       0.230   0.481  -0.827  0.00  0.00    +0.110 C 
ENDBRANCH   1  24
BRANCH   2  25
ATOM     25  C   UNL     1      -1.887   0.737  -2.699  0.00  0.00    +0.020 C 
BRANCH  25  26
ATOM     26  N   UNL     1      -2.708   0.849  -3.912  0.00  0.00    +0.390 N 
ATOM     27  H   UNL     1      -2.740  -0.044  -4.380  0.00  0.00    -0.080 HD
BRANCH  26  28
ATOM     28  C   UNL     1      -2.122   1.853  -4.809  0.00  0.00    -0.067 C 
ATOM     29  C   UNL     1      -1.692   3.075  -3.996  0.00  0.00    -0.013 C 
BRANCH  28  30
ATOM     30  C   UNL     1      -0.903   1.256  -5.515  0.00  0.00    -0.025 C 
ATOM     31  C   UNL     1       0.478   1.755  -5.084  0.00  0.00    +0.002 C 
ATOM     32  C   UNL     1      -0.100   2.175  -6.437  0.00  0.00    +0.002 C 
ENDBRANCH  28  30
ENDBRANCH  26  28
BRANCH  26  33
ATOM     33  C   UNL     1      -4.071   1.257  -3.544  0.00  0.00    -0.042 C 
BRANCH  33  34
ATOM     34  C   UNL     1      -4.954   1.216  -4.765  0.00  0.00    -0.064 A 
ATOM     35  C   UNL     1      -5.170   2.366  -5.500  0.00  0.00    +0.002 A 
ATOM     36  C   UNL     1      -5.980   2.329  -6.620  0.00  0.00    +0.000 A 
ATOM     37  C   UNL     1      -6.573   1.141  -7.004  0.00  0.00    +0.000 A 
ATOM     38  C   UNL     1      -6.357  -0.009  -6.269  0.00  0.00    +0.000 A 
ATOM     39  C   UNL     1      -5.543   0.027  -5.152  0.00  0.00    +0.002 A 
ENDBRANCH  33  34
ENDBRANCH  26  33
ENDBRANCH  25  26
ENDBRANCH   2  25
TORSDOF 11
