REMARK  Name = ZINC03631429
REMARK  14 active torsions:
REMARK  status: ('A' for Active; 'I' for Inactive)
REMARK    1  A    between atoms: C_1  and  C_2
REMARK    2  A    between atoms: C_2  and  O_3
REMARK    3  A    between atoms: O_3  and  C_4
REMARK    4  A    between atoms: C_4  and  C_6
REMARK    5  A    between atoms: C_7  and  C_36
REMARK    6  A    between atoms: C_11  and  C_13
REMARK    7  A    between atoms: C_15  and  O_22
REMARK    8  A    between atoms: C_16  and  O_20
REMARK    9  A    between atoms: O_20  and  C_21
REMARK   10  A    between atoms: O_22  and  C_23
REMARK   11  A    between atoms: C_26  and  C_32
REMARK   12  A    between atoms: C_28  and  C_31
REMARK   13  A    between atoms: C_32  and  O_34
REMARK   14  A    between atoms: O_34  and  C_35
REMARK                            x       y       z     vdW  Elec       q    Type
REMARK                         _______ _______ _______ _____ _____    ______ ____
ROOT
ATOM      1  C   UNL     1       2.748   4.820   1.187  0.00  0.00    +0.065 C 
ATOM      2  C   UNL     1       2.262   6.073   1.220  0.00  0.00    +0.016 C 
ATOM      3  N   UNL     1       1.732   6.640   0.094  0.00  0.00    -0.321 N 
ATOM      4  C   UNL     1       2.032   6.141  -1.145  0.00  0.00    +0.016 C 
ATOM      5  C   UNL     1       2.506   4.885  -1.280  0.00  0.00    +0.025 C 
ATOM      6  C   UNL     1       2.717   4.006  -0.073  0.00  0.00    +0.093 C 
ATOM      7  C   UNL     1       2.819   4.360  -2.547  0.00  0.00    +0.176 C 
ATOM      8  O   UNL     1       3.257   3.230  -2.634  0.00  0.00    -0.291 OA
ATOM      9  C   UNL     1       2.618   5.172  -3.798  0.00  0.00    +0.171 C 
ATOM     10  C   UNL     1       1.478   6.170  -3.566  0.00  0.00    +0.013 C 
ATOM     11  C   UNL     1       1.825   7.028  -2.348  0.00  0.00    +0.055 C 
ATOM     12  C   UNL     1       1.321   7.064  -4.797  0.00  0.00    +0.009 C 
ATOM     13  C   UNL     1       2.301   6.858   2.506  0.00  0.00    +0.061 C 
ATOM     14  H   UNL     1       1.057   7.505   0.179  0.00  0.00    +0.152 HD
ENDROOT
BRANCH   6  15
ATOM     15  C   UNL     1       1.593   3.005   0.012  0.00  0.00    -0.018 A 
ATOM     16  C   UNL     1       0.288   3.443   0.149  0.00  0.00    +0.055 A 
ATOM     17  C   UNL     1      -0.746   2.525   0.228  0.00  0.00    +0.162 A 
ATOM     18  C   UNL     1      -0.469   1.162   0.161  0.00  0.00    +0.163 A 
ATOM     19  C   UNL     1       0.840   0.730   0.029  0.00  0.00    +0.065 A 
ATOM     20  C   UNL     1       1.868   1.652  -0.049  0.00  0.00    +0.026 A 
ATOM     21 BR   UNL     1       3.654   1.059  -0.238  0.00  0.00    -0.050 Br
BRANCH  18  22
ATOM     22  O   UNL     1      -1.482   0.257   0.232  0.00  0.00    -0.491 OA
ATOM     23  C   UNL     1      -1.124  -1.124   0.162  0.00  0.00    +0.277 C 
ENDBRANCH  18  22
BRANCH  17  24
ATOM     24  O   UNL     1      -2.029   2.954   0.364  0.00  0.00    -0.491 OA
ATOM     25  C   UNL     1      -2.239   4.367   0.418  0.00  0.00    +0.277 C 
ENDBRANCH  17  24
ENDBRANCH   6  15
BRANCH   1  26
ATOM     26  C   UNL     1       3.299   4.259   2.362  0.00  0.00    +0.338 C 
ATOM     27  O   UNL     1       3.443   4.947   3.356  0.00  0.00    -0.245 OA
BRANCH  26  28
ATOM     28  O   UNL     1       3.666   2.960   2.382  0.00  0.00    -0.462 OA
BRANCH  28  30
ATOM     29  C   UNL     1       4.569   0.981   3.434  0.00  0.00    +0.048 C 
ATOM     30  C   UNL     1       4.215   2.460   3.602  0.00  0.00    +0.229 C 
ENDBRANCH  28  30
ENDBRANCH  26  28
ENDBRANCH   1  26
BRANCH   9  31
ATOM     31  C   UNL     1       2.263   4.257  -4.942  0.00  0.00    +0.318 C 
ATOM     32  O   UNL     1       1.208   4.388  -5.515  0.00  0.00    -0.250 OA
BRANCH  31  33
ATOM     33  O   UNL     1       3.120   3.297  -5.324  0.00  0.00    -0.467 OA
ATOM     34  C   UNL     1       2.712   2.454  -6.433  0.00  0.00    +0.280 C 
ENDBRANCH  31  33
ENDBRANCH   9  31
TORSDOF 8
