REMARK  Name = ZINC58230908
REMARK  6 active torsions:
REMARK  status: ('A' for Active; 'I' for Inactive)
REMARK    1  A    between atoms: C_1  and  C_2
REMARK    2  A    between atoms: N_7  and  C_8
REMARK    3  A    between atoms: C_8  and  C_9
REMARK    4  A    between atoms: C_8  and  C_10
REMARK    5  A    between atoms: C_10  and  N_11
REMARK    6  A    between atoms: C_12  and  C_14
REMARK                            x       y       z     vdW  Elec       q    Type
REMARK                         _______ _______ _______ _____ _____    ______ ____
ROOT
ATOM      1  N   UNL     1      -0.766   1.937   0.755  0.00  0.00    -0.313 N 
ATOM      2  C   UNL     1      -1.053   3.210   0.418  0.00  0.00    +0.249 C 
ATOM      3  O   UNL     1      -0.610   4.129   1.081  0.00  0.00    -0.270 OA
ATOM      4  H   UNL     1      -1.062   1.207   0.189  0.00  0.00    +0.149 HD
ENDROOT
BRANCH   2   5
ATOM      5  C   UNL     1      -1.903   3.489  -0.750  0.00  0.00    +0.102 A 
ATOM      6  C   UNL     1      -2.108   4.789  -1.189  0.00  0.00    +0.031 A 
ATOM      7  C   UNL     1      -2.930   5.007  -2.316  0.00  0.00    +0.037 A 
ATOM      8  C   UNL     1      -3.518   3.942  -2.978  0.00  0.00    +0.030 A 
ATOM      9  N   UNL     1      -3.323   2.679  -2.549  0.00  0.00    -0.325 N 
ATOM     10  H   UNL     1      -3.751   1.949  -3.025  0.00  0.00    +0.169 HD
ATOM     11  C   UNL     1      -2.551   2.400  -1.487  0.00  0.00    +0.261 A 
ATOM     12  O   UNL     1      -2.393   1.245  -1.133  0.00  0.00    -0.267 OA
ATOM     13  C   UNL     1      -4.381   4.154  -4.195  0.00  0.00    +0.054 C 
ATOM     14  C   UNL     1      -4.960   5.565  -4.226  0.00  0.00    +0.014 C 
ATOM     15  C   UNL     1      -3.817   6.584  -4.125  0.00  0.00    +0.080 C 
ATOM     16  C   UNL     1      -3.159   6.388  -2.776  0.00  0.00    +0.165 C 
ATOM     17  O   UNL     1      -2.831   7.337  -2.095  0.00  0.00    -0.292 OA
ENDBRANCH   2   5
BRANCH   1  18
ATOM     18  C   UNL     1      -0.008   1.655   1.977  0.00  0.00    +0.089 C 
BRANCH  18  19
ATOM     19  C   UNL     1       0.075   0.142   2.188  0.00  0.00    -0.054 C 
ATOM     20  C   UNL     1       0.911  -0.153   3.435  0.00  0.00    -0.012 C 
BRANCH  19  27
ATOM     21  C   UNL     1      -0.742  -2.421   1.384  0.00  0.00    -0.013 C 
ATOM     22  C   UNL     1       0.696  -1.941   1.177  0.00  0.00    -0.071 C 
ATOM     23  C   UNL     1       1.277  -2.599  -0.076  0.00  0.00    -0.016 C 
ATOM     24  C   UNL     1       2.716  -2.116  -0.278  0.00  0.00    -0.003 C 
ATOM     25  C   UNL     1       2.723  -0.587  -0.370  0.00  0.00    -0.019 C 
ATOM     26  C   UNL     1       2.087  -0.003   0.894  0.00  0.00    -0.078 C 
ATOM     27  N   UNL     1       0.705  -0.482   1.017  0.00  0.00    +0.384 N 
ATOM     28  H   UNL     1       0.189  -0.232   0.187  0.00  0.00    -0.081 HD
ENDBRANCH  19  27
ENDBRANCH  18  19
ENDBRANCH   1  18
TORSDOF 4
