REMARK  Name = ZINC20084334
REMARK  7 active torsions:
REMARK  status: ('A' for Active; 'I' for Inactive)
REMARK    1  A    between atoms: C_4  and  C_7
REMARK    2  A    between atoms: C_7  and  N_8
REMARK    3  A    between atoms: C_9  and  C_13
REMARK    4  A    between atoms: C_13  and  C_15
REMARK    5  A    between atoms: C_13  and  N_30
REMARK    6  A    between atoms: N_33  and  C_36
REMARK    7  A    between atoms: C_36  and  C_37
REMARK                            x       y       z     vdW  Elec       q    Type
REMARK                         _______ _______ _______ _____ _____    ______ ____
ROOT
ATOM      1  C   UNL     1       1.926   6.393  -1.845  0.00  0.00    +0.162 C 
ENDROOT
BRANCH   1   2
ATOM      2  C   UNL     1       0.630   6.073  -2.545  0.00  0.00    +0.042 A 
ATOM      3  C   UNL     1       0.391   4.810  -2.981  0.00  0.00    +0.021 A 
ATOM      4  C   UNL     1      -0.878   4.530  -3.652  0.00  0.00    +0.003 A 
ATOM      5  C   UNL     1      -1.181   3.245  -4.118  0.00  0.00    +0.059 A 
ATOM      6  C   UNL     1      -2.381   3.014  -4.753  0.00  0.00    +0.167 A 
ATOM      7  C   UNL     1      -3.297   4.058  -4.934  0.00  0.00    +0.168 A 
ATOM      8  C   UNL     1      -3.006   5.330  -4.475  0.00  0.00    +0.075 A 
ATOM      9  C   UNL     1      -1.800   5.579  -3.833  0.00  0.00    +0.053 A 
ATOM     10  N   UNL     1      -1.494   6.843  -3.369  0.00  0.00    -0.322 N 
ATOM     11  H   UNL     1      -2.209   7.667  -3.506  0.00  0.00    +0.169 HD
ATOM     12  C   UNL     1      -0.327   7.088  -2.749  0.00  0.00    +0.254 A 
ATOM     13  O   UNL     1      -0.090   8.216  -2.353  0.00  0.00    -0.268 OA
ATOM     14  O   UNL     1      -4.391   3.566  -5.584  0.00  0.00    -0.453 OA
ATOM     15  C   UNL     1      -3.967   2.318  -6.163  0.00  0.00    +0.466 C 
ATOM     16  O   UNL     1      -2.909   1.875  -5.292  0.00  0.00    -0.453 OA
ENDBRANCH   1   2
BRANCH   1  17
ATOM     17  N   UNL     1       2.653   7.418  -2.606  0.00  0.00    -0.292 NA
ATOM     18  C   UNL     1       2.863   6.992  -3.996  0.00  0.00    +0.067 C 
ATOM     19  C   UNL     1       3.551   8.117  -4.773  0.00  0.00    -0.063 C 
ATOM     20  N   UNL     1       4.830   8.444  -4.127  0.00  0.00    +0.386 N 
ATOM     21  C   UNL     1       4.619   8.870  -2.736  0.00  0.00    -0.063 C 
ATOM     22  C   UNL     1       3.931   7.746  -1.959  0.00  0.00    +0.067 C 
ATOM     23  H   UNL     1       5.447   7.534  -4.113  0.00  0.00    -0.081 HD
BRANCH  20  24
ATOM     24  C   UNL     1       5.556   9.470  -4.887  0.00  0.00    -0.003 C 
BRANCH  24  25
ATOM     25  C   UNL     1       5.968   8.906  -6.223  0.00  0.00    +0.089 A 
ATOM     26  C   UNL     1       5.243   8.956  -7.355  0.00  0.00    +0.042 A 
ATOM     27  C   UNL     1       6.004   8.312  -8.357  0.00  0.00    +0.041 A 
ATOM     28  C   UNL     1       7.148   7.907  -7.778  0.00  0.00    +0.195 A 
ATOM     29  O   UNL     1       7.124   8.274  -6.486  0.00  0.00    -0.470 OA
ENDBRANCH  24  25
ENDBRANCH  20  24
ENDBRANCH   1  17
BRANCH   1  31
ATOM     30  N   UNL     1       3.026   4.433  -0.640  0.00  0.00    -0.223 N 
ATOM     31  C   UNL     1       2.767   5.146  -1.751  0.00  0.00    +0.173 A 
ATOM     32  N   UNL     1       3.388   4.545  -2.737  0.00  0.00    -0.111 NA
ATOM     33  N   UNL     1       3.996   3.516  -2.256  0.00  0.00    -0.023 NA
ATOM     34  N   UNL     1       3.784   3.449  -0.988  0.00  0.00    -0.044 NA
BRANCH  30  35
ATOM     35  C   UNL     1       2.542   4.723   0.713  0.00  0.00    +0.182 C 
BRANCH  35  39
ATOM     36  C   UNL     1      -1.003   2.463   1.467  0.00  0.00    +0.000 A 
ATOM     37  C   UNL     1       0.238   1.893   1.677  0.00  0.00    +0.000 A 
ATOM     38  C   UNL     1       1.385   2.623   1.431  0.00  0.00    +0.005 A 
ATOM     39  C   UNL     1       1.292   3.926   0.981  0.00  0.00    -0.026 A 
ATOM     40  C   UNL     1       0.050   4.499   0.776  0.00  0.00    +0.005 A 
ATOM     41  C   UNL     1      -1.097   3.769   1.022  0.00  0.00    +0.000 A 
ENDBRANCH  35  39
ENDBRANCH  30  35
ENDBRANCH   1  31
TORSDOF 7
