REMARK  Name = ZINC21710079
REMARK  13 active torsions:
REMARK  status: ('A' for Active; 'I' for Inactive)
REMARK    1  A    between atoms: C_1  and  C_2
REMARK    2  A    between atoms: C_4  and  C_36
REMARK    3  A    between atoms: C_5  and  S_9
REMARK    4  A    between atoms: C_6  and  C_8
REMARK    5  A    between atoms: S_9  and  N_12
REMARK    6  A    between atoms: N_12  and  C_13
REMARK    7  A    between atoms: C_17  and  C_19
REMARK    8  A    between atoms: C_25  and  C_28
REMARK    9  A    between atoms: N_30  and  C_31
REMARK   10  A    between atoms: C_31  and  C_32
REMARK   11  A    between atoms: C_32  and  C_33
REMARK   12  A    between atoms: C_33  and  C_34
REMARK   13  A    between atoms: C_33  and  C_35
REMARK                            x       y       z     vdW  Elec       q    Type
REMARK                         _______ _______ _______ _____ _____    ______ ____
ROOT
ATOM      1  C   UNL     1       1.512   5.088   2.010  0.00  0.00    +0.049 A 
ATOM      2  C   UNL     1       0.311   4.537   1.578  0.00  0.00    +0.024 A 
ATOM      3  C   UNL     1      -0.327   3.576   2.340  0.00  0.00    +0.003 A 
ATOM      4  C   UNL     1       0.224   3.158   3.535  0.00  0.00    +0.013 A 
ATOM      5  C   UNL     1       1.429   3.705   3.977  0.00  0.00    +0.039 A 
ATOM      6  C   UNL     1       2.076   4.671   3.205  0.00  0.00    +0.037 A 
ENDROOT
BRANCH   5   7
ATOM      7  C   UNL     1       2.022   3.258   5.256  0.00  0.00    +0.247 C 
ATOM      8  O   UNL     1       2.012   2.079   5.551  0.00  0.00    -0.270 OA
ATOM      9  N   UNL     1       2.573   4.158   6.094  0.00  0.00    -0.297 N 
ATOM     10  C   UNL     1       2.489   5.597   5.808  0.00  0.00    +0.108 C 
ATOM     11  C   UNL     1       1.893   6.305   7.035  0.00  0.00    +0.020 C 
ATOM     12  C   UNL     1       2.725   5.957   8.271  0.00  0.00    +0.016 C 
ATOM     13  C   UNL     1       2.674   4.447   8.515  0.00  0.00    +0.092 C 
ATOM     14  C   UNL     1       3.274   3.719   7.309  0.00  0.00    +0.120 C 
BRANCH  13  15
ATOM     15  C   UNL     1       3.467   4.111   9.752  0.00  0.00    +0.218 C 
ATOM     16  O   UNL     1       4.016   4.992  10.378  0.00  0.00    -0.275 OA
ATOM     17  N   UNL     1       3.565   2.830  10.161  0.00  0.00    -0.315 N 
ATOM     18  H   UNL     1       3.067   2.031   9.592  0.00  0.00    +0.149 HD
BRANCH  17  19
ATOM     19  C   UNL     1       4.336   2.503  11.363  0.00  0.00    +0.104 C 
BRANCH  19  20
ATOM     20  C   UNL     1       4.288   0.993  11.604  0.00  0.00    +0.022 C 
BRANCH  20  21
ATOM     21  C   UNL     1       5.093   0.650  12.859  0.00  0.00    -0.016 C 
ATOM     22  C   UNL     1       4.943  -0.840  13.171  0.00  0.00    +0.007 C 
ATOM     23  C   UNL     1       6.569   0.976  12.622  0.00  0.00    +0.007 C 
ENDBRANCH  20  21
ENDBRANCH  19  20
ENDBRANCH  17  19
ENDBRANCH  13  15
ENDBRANCH   5   7
BRANCH   1  24
ATOM     24  N   UNL     1       2.153   6.059   1.236  0.00  0.00    -0.216 N 
ATOM     25  H   UNL     1       3.235   5.988   1.051  0.00  0.00    +0.174 HD
BRANCH  24  26
ATOM     26  S   UNL     1       1.284   7.316   0.598  0.00  0.00    +0.073 S 
ATOM     27  O   UNL     1       0.180   6.740  -0.086  0.00  0.00    -0.150 OA
ATOM     28  O   UNL     1       2.219   8.170  -0.047  0.00  0.00    -0.150 OA
BRANCH  26  33
ATOM     29  C   UNL     1      -1.000  10.454   5.217  0.00  0.00    +0.044 C 
ATOM     30  C   UNL     1      -0.429   9.669   4.064  0.00  0.00    -0.050 A 
ATOM     31  C   UNL     1       0.903   9.812   3.723  0.00  0.00    +0.008 A 
ATOM     32  C   UNL     1       1.426   9.092   2.666  0.00  0.00    -0.023 A 
ATOM     33  C   UNL     1       0.619   8.228   1.950  0.00  0.00    +0.114 A 
ATOM     34  C   UNL     1      -0.713   8.085   2.292  0.00  0.00    -0.023 A 
ATOM     35  C   UNL     1      -1.238   8.806   3.348  0.00  0.00    +0.008 A 
ATOM     36  C   UNL     1      -1.594   7.144   1.511  0.00  0.00    +0.046 C 
ATOM     37  C   UNL     1       2.878   9.248   2.294  0.00  0.00    +0.046 C 
ENDBRANCH  26  33
ENDBRANCH  24  26
ENDBRANCH   1  24
TORSDOF 8
