REMARK  Name = ZINC67474056
REMARK  7 active torsions:
REMARK  status: ('A' for Active; 'I' for Inactive)
REMARK    1  A    between atoms: C_1  and  C_2
REMARK    2  A    between atoms: C_4  and  C_13
REMARK    3  A    between atoms: C_6  and  S_9
REMARK    4  A    between atoms: C_7  and  C_8
REMARK    5  A    between atoms: S_9  and  N_12
REMARK    6  A    between atoms: N_15  and  C_16
REMARK    7  A    between atoms: N_25  and  C_27
REMARK                            x       y       z     vdW  Elec       q    Type
REMARK                         _______ _______ _______ _____ _____    ______ ____
ROOT
ATOM      1  C   UNL     1       0.029  -2.818  -2.485  0.00  0.00    +0.244 C 
ATOM      2  O   UNL     1       0.046  -4.034  -2.487  0.00  0.00    -0.270 OA
ATOM      3  N   UNL     1       0.013  -2.143  -3.651  0.00  0.00    -0.308 N 
ATOM      4  H   UNL     1      -0.000  -1.173  -3.649  0.00  0.00    +0.149 HD
ENDROOT
BRANCH   3   5
ATOM      5  C   UNL     1       0.017  -2.871  -4.918  0.00  0.00    +0.076 C 
ATOM      6  C   UNL     1       1.450  -3.196  -5.345  0.00  0.00    -0.007 C 
ATOM      7  C   UNL     1       2.265  -1.916  -5.460  0.00  0.00    +0.003 C 
ATOM      8  C   UNL     1       1.637  -0.895  -6.394  0.00  0.00    +0.001 C 
ATOM      9  C   UNL     1       0.146  -0.705  -6.164  0.00  0.00    +0.003 C 
ATOM     10  C   UNL     1      -0.607  -2.020  -6.027  0.00  0.00    -0.007 C 
ATOM     11  C   UNL     1      -0.609  -2.806  -7.332  0.00  0.00    -0.073 C 
ATOM     12  N   UNL     1       0.719  -3.268  -7.723  0.00  0.00    +0.382 N 
ATOM     13  C   UNL     1       1.428  -3.970  -6.657  0.00  0.00    -0.073 C 
ATOM     14  H   UNL     1       1.272  -2.498  -8.062  0.00  0.00    -0.081 HD
BRANCH  12  15
ATOM     15  C   UNL     1       0.564  -4.195  -8.851  0.00  0.00    -0.069 C 
ATOM     16  C   UNL     1       1.411  -3.938 -10.099  0.00  0.00    -0.017 C 
ATOM     17  C   UNL     1      -0.092  -3.655 -10.124  0.00  0.00    -0.017 C 
ENDBRANCH  12  15
ENDBRANCH   3   5
BRANCH   1  21
ATOM     18  C   UNL     1      -0.018   1.503   0.010  0.00  0.00    +0.044 C 
ATOM     19  C   UNL     1       0.002  -0.004   0.002  0.00  0.00    -0.045 A 
ATOM     20  C   UNL     1       0.006  -0.686  -1.198  0.00  0.00    +0.016 A 
ATOM     21  C   UNL     1       0.025  -2.081  -1.203  0.00  0.00    +0.039 A 
ATOM     22  C   UNL     1       0.041  -2.778   0.006  0.00  0.00    +0.041 A 
ATOM     23  C   UNL     1       0.037  -2.084   1.198  0.00  0.00    +0.109 A 
ATOM     24  C   UNL     1       0.023  -0.701   1.197  0.00  0.00    -0.021 A 
ATOM     25  C   UNL     1       0.025   0.051   2.503  0.00  0.00    +0.046 C 
BRANCH  23  26
ATOM     26  S   UNL     1       0.056  -2.962   2.726  0.00  0.00    +0.056 S 
ATOM     27  O   UNL     1      -0.974  -2.401   3.529  0.00  0.00    -0.153 OA
ATOM     28  O   UNL     1       0.100  -4.344   2.400  0.00  0.00    -0.153 OA
BRANCH  26  29
ATOM     29  N   UNL     1       1.488  -2.607   3.477  0.00  0.00    -0.204 NA
ATOM     30  H   UNL     1       1.540  -2.603   4.446  0.00  0.00    +0.144 HD
ATOM     31  H   UNL     1       2.276  -2.403   2.948  0.00  0.00    +0.144 HD
ENDBRANCH  26  29
ENDBRANCH  23  26
ENDBRANCH   1  21
TORSDOF 5
