REMARK  Name = ZINC33960246
REMARK  11 active torsions:
REMARK  status: ('A' for Active; 'I' for Inactive)
REMARK    1  A    between atoms: C_1  and  C_2
REMARK    2  A    between atoms: N_5  and  S_11
REMARK    3  A    between atoms: C_7  and  C_10
REMARK    4  A    between atoms: S_11  and  C_14
REMARK    5  A    between atoms: C_18  and  C_20
REMARK    6  A    between atoms: N_25  and  N_26
REMARK    7  A    between atoms: C_27  and  C_28
REMARK    8  A    between atoms: C_32  and  O_36
REMARK    9  A    between atoms: C_33  and  O_34
REMARK   10  A    between atoms: O_34  and  C_35
REMARK   11  A    between atoms: O_36  and  C_37
REMARK                            x       y       z     vdW  Elec       q    Type
REMARK                         _______ _______ _______ _____ _____    ______ ____
ROOT
ATOM      1  C   UNL     1       1.403  -6.017  -3.046  0.00  0.00    +0.080 A 
ATOM      2  C   UNL     1       2.312  -6.271  -4.035  0.00  0.00    +0.077 A 
ATOM      3  S   UNL     1       3.065  -7.771  -3.416  0.00  0.00    -0.059 S 
ATOM      4  C   UNL     1       2.100  -7.903  -1.918  0.00  0.00    +0.178 A 
ATOM      5  N   UNL     1       1.324  -6.838  -2.009  0.00  0.00    -0.224 NA
ATOM      6  N   UNL     1       2.155  -8.865  -0.923  0.00  0.00    -0.215 N 
ATOM      7  H   UNL     1       1.561  -8.806  -0.158  0.00  0.00    +0.176 HD
ENDROOT
BRANCH   1  12
ATOM      8  C   UNL     1      -1.152  -3.408  -2.154  0.00  0.00    +0.106 A 
ATOM      9  C   UNL     1      -1.135  -2.615  -3.287  0.00  0.00    +0.028 A 
ATOM     10  C   UNL     1      -0.295  -2.924  -4.341  0.00  0.00    +0.003 A 
ATOM     11  C   UNL     1       0.531  -4.027  -4.269  0.00  0.00    +0.010 A 
ATOM     12  C   UNL     1       0.518  -4.830  -3.130  0.00  0.00    +0.003 A 
ATOM     13  C   UNL     1      -0.326  -4.510  -2.067  0.00  0.00    +0.038 A 
BRANCH   8  14
ATOM     14  S   UNL     1      -2.225  -3.006  -0.815  0.00  0.00    +0.061 S 
ATOM     15  O   UNL     1      -2.443  -4.211  -0.094  0.00  0.00    -0.153 OA
ATOM     16  O   UNL     1      -3.290  -2.243  -1.363  0.00  0.00    -0.153 OA
BRANCH  14  20
ATOM     17  C   UNL     1      -0.019   1.526   0.010  0.00  0.00    +0.039 C 
ATOM     18  C   UNL     1       0.002  -0.004   0.002  0.00  0.00    +0.131 C 
ATOM     19  C   UNL     1      -1.436  -0.536   0.015  0.00  0.00    +0.140 C 
ATOM     20  N   UNL     1      -1.389  -1.995   0.196  0.00  0.00    -0.172 NA
ATOM     21  C   UNL     1      -0.578  -2.530   1.302  0.00  0.00    +0.140 C 
ATOM     22  C   UNL     1       0.818  -1.901   1.226  0.00  0.00    +0.131 C 
ATOM     23  O   UNL     1       0.691  -0.479   1.161  0.00  0.00    -0.371 OA
ATOM     24  C   UNL     1       1.621  -2.288   2.469  0.00  0.00    +0.039 C 
ENDBRANCH  14  20
ENDBRANCH   8  14
ENDBRANCH   1  12
BRANCH   6  25
ATOM     25  N   UNL     1       3.068  -9.923  -1.021  0.00  0.00    -0.188 NA
ATOM     26  C   UNL     1       3.119 -10.825  -0.088  0.00  0.00    +0.142 C 
BRANCH  26  27
ATOM     27  C   UNL     1       4.079 -11.938  -0.191  0.00  0.00    +0.040 A 
ATOM     28  C   UNL     1       4.133 -12.914   0.808  0.00  0.00    +0.013 A 
ATOM     29  C   UNL     1       5.033 -13.954   0.708  0.00  0.00    +0.004 A 
ATOM     30  C   UNL     1       5.886 -14.037  -0.379  0.00  0.00    +0.049 A 
ATOM     31  C   UNL     1       5.844 -13.077  -1.377  0.00  0.00    +0.162 A 
ATOM     32  C   UNL     1       4.938 -12.027  -1.293  0.00  0.00    +0.170 A 
BRANCH  32  33
ATOM     33  O   UNL     1       4.889 -11.086  -2.274  0.00  0.00    -0.491 OA
ATOM     34  C   UNL     1       5.736  -9.945  -2.120  0.00  0.00    +0.277 C 
ENDBRANCH  32  33
BRANCH  31  35
ATOM     35  O   UNL     1       6.685 -13.165  -2.442  0.00  0.00    -0.491 OA
ATOM     36  C   UNL     1       7.586 -14.274  -2.467  0.00  0.00    +0.277 C 
ENDBRANCH  31  35
ENDBRANCH  26  27
ENDBRANCH   6  25
TORSDOF 7
