REMARK  Name = ZINC22124027
REMARK  8 active torsions:
REMARK  status: ('A' for Active; 'I' for Inactive)
REMARK    1  A    between atoms: C_1  and  C_2
REMARK    2  A    between atoms: C_2  and  C_4
REMARK    3  A    between atoms: C_2  and  O_15
REMARK    4  A    between atoms: N_6  and  C_7
REMARK    5  A    between atoms: C_7  and  C_13
REMARK    6  A    between atoms: O_15  and  C_16
REMARK    7  A    between atoms: C_16  and  C_18
REMARK    8  A    between atoms: C_18  and  N_19
REMARK                            x       y       z     vdW  Elec       q    Type
REMARK                         _______ _______ _______ _____ _____    ______ ____
ROOT
ATOM      1  C   UNL     1       2.018  -0.662   1.046  0.00  0.00    +0.326 C 
ATOM      2  O   UNL     1       2.572  -0.429  -0.002  0.00  0.00    -0.249 OA
ENDROOT
BRANCH   1   3
ATOM      3  O   UNL     1       0.693  -0.477   1.160  0.00  0.00    -0.451 OA
BRANCH   3   5
ATOM      4  C   UNL     1      -0.019   1.526   0.010  0.00  0.00    +0.062 C 
ATOM      5  C   UNL     1       0.002  -0.004   0.002  0.00  0.00    +0.259 C 
BRANCH   5   6
ATOM      6  C   UNL     1      -1.412  -0.526   0.013  0.00  0.00    +0.255 C 
ATOM      7  O   UNL     1      -1.818  -1.157   0.965  0.00  0.00    -0.272 OA
ATOM      8  N   UNL     1      -2.225  -0.290  -1.036  0.00  0.00    -0.294 N 
ATOM      9  H   UNL     1      -1.900   0.215  -1.798  0.00  0.00    +0.150 HD
BRANCH   8  10
ATOM     10  C   UNL     1      -3.599  -0.798  -1.026  0.00  0.00    +0.121 C 
ATOM     11  C   UNL     1      -3.579  -2.323  -0.908  0.00  0.00    +0.041 C 
ATOM     12  C   UNL     1      -5.014  -2.853  -0.898  0.00  0.00    +0.003 C 
ATOM     13  C   UNL     1      -5.716  -2.450  -2.196  0.00  0.00    +0.000 C 
ATOM     14  C   UNL     1      -5.737  -0.925  -2.313  0.00  0.00    +0.003 C 
ATOM     15  C   UNL     1      -4.301  -0.395  -2.324  0.00  0.00    +0.041 C 
BRANCH  10  16
ATOM     16  C   UNL     1      -4.324  -0.227   0.121  0.00  0.00    +0.088 C 
ATOM     17  N   UNL     1      -4.884   0.214   1.006  0.00  0.00    -0.194 NA
ENDBRANCH  10  16
ENDBRANCH   8  10
ENDBRANCH   5   6
ENDBRANCH   3   5
ENDBRANCH   1   3
BRANCH   1  18
ATOM     18  C   UNL     1       2.814  -1.159   2.225  0.00  0.00    +0.237 C 
BRANCH  18  19
ATOM     19  N   UNL     1       4.224  -1.277   1.847  0.00  0.00    -0.223 N 
ATOM     20  C   UNL     1       4.782  -2.382   1.322  0.00  0.00    +0.254 C 
ATOM     21  O   UNL     1       4.205  -3.425   1.089  0.00  0.00    -0.270 OA
ATOM     22  C   UNL     1       6.215  -2.115   1.075  0.00  0.00    +0.051 A 
ATOM     23  C   UNL     1       7.263  -2.861   0.560  0.00  0.00    +0.035 A 
ATOM     24  C   UNL     1       8.525  -2.295   0.460  0.00  0.00    +0.060 A 
ATOM     25  C   UNL     1       8.744  -0.991   0.872  0.00  0.00    +0.060 A 
ATOM     26  C   UNL     1       7.703  -0.234   1.389  0.00  0.00    +0.035 A 
ATOM     27  C   UNL     1       6.437  -0.787   1.494  0.00  0.00    +0.051 A 
ATOM     28  C   UNL     1       5.131  -0.291   1.976  0.00  0.00    +0.254 C 
ATOM     29  O   UNL     1       4.913   0.820   2.416  0.00  0.00    -0.270 OA
ATOM     30 CL   UNL     1      10.331  -0.299   0.741  0.00  0.00    -0.082 Cl
ATOM     31 CL   UNL     1       9.840  -3.228  -0.184  0.00  0.00    -0.082 Cl
ENDBRANCH  18  19
ENDBRANCH   1  18
TORSDOF 7
