REMARK  Name = ZINC39326496
REMARK  5 active torsions:
REMARK  status: ('A' for Active; 'I' for Inactive)
REMARK    1  A    between atoms: C_7  and  C_10
REMARK    2  A    between atoms: C_10  and  C_11
REMARK    3  A    between atoms: C_11  and  N_12
REMARK    4  A    between atoms: C_13  and  C_15
REMARK    5  A    between atoms: C_19  and  N_21
REMARK                            x       y       z     vdW  Elec       q    Type
REMARK                         _______ _______ _______ _____ _____    ______ ____
ROOT
ATOM      1  C   UNL     1      -5.638   7.076  -2.526  0.00  0.00    +0.153 C 
ATOM      2  N   UNL     1      -5.972   7.660  -1.439  0.00  0.00    -0.173 NA
ATOM      3  N   UNL     1      -6.495   8.954  -1.409  0.00  0.00    -0.209 N 
ATOM      4  S   UNL     1      -6.545   9.445  -3.015  0.00  0.00    -0.015 S 
ATOM      5  C   UNL     1      -5.855   7.919  -3.774  0.00  0.00    +0.208 C 
ATOM      6  H   UNL     1      -6.770   9.461  -0.629  0.00  0.00    +0.183 HD
ENDROOT
BRANCH   5   7
ATOM      7  N   UNL     1      -6.823   7.292  -4.677  0.00  0.00    -0.280 N 
ATOM      8  C   UNL     1      -7.796   8.034  -5.242  0.00  0.00    +0.303 C 
ATOM      9  O   UNL     1      -7.916   9.207  -4.945  0.00  0.00    -0.253 OA
ATOM     10  N   UNL     1      -8.635   7.476  -6.137  0.00  0.00    -0.283 N 
ATOM     11  C   UNL     1      -8.581   6.034  -6.415  0.00  0.00    +0.128 C 
ATOM     12  C   UNL     1      -9.976   5.438  -6.185  0.00  0.00    +0.125 C 
ATOM     13  N   UNL     1     -10.961   6.261  -6.901  0.00  0.00    -0.314 N 
ATOM     14  C   UNL     1     -11.015   7.703  -6.623  0.00  0.00    +0.125 C 
ATOM     15  C   UNL     1      -9.624   8.298  -6.848  0.00  0.00    +0.128 C 
ATOM     16  C   UNL     1     -11.827   5.686  -7.824  0.00  0.00    +0.099 A 
ATOM     17  C   UNL     1     -11.845   4.304  -7.984  0.00  0.00    +0.042 A 
ATOM     18  C   UNL     1     -12.711   3.744  -8.906  0.00  0.00    +0.005 A 
ATOM     19  C   UNL     1     -13.534   4.589  -9.639  0.00  0.00    +0.018 A 
ATOM     20  C   UNL     1     -13.464   5.952  -9.429  0.00  0.00    +0.084 A 
ATOM     21  N   UNL     1     -12.631   6.457  -8.538  0.00  0.00    -0.350 N 
ATOM     22  H   UNL     1      -6.764   6.343  -4.868  0.00  0.00    +0.152 HD
ATOM     23  H   UNL     1     -12.605   7.418  -8.407  0.00  0.00    +0.166 HD
ENDBRANCH   5   7
BRANCH   1  25
ATOM     24  N   UNL     1      -4.922   5.027  -1.422  0.00  0.00    -0.310 N 
ATOM     25  C   UNL     1      -5.089   5.720  -2.566  0.00  0.00    +0.263 C 
ATOM     26  O   UNL     1      -4.784   5.218  -3.632  0.00  0.00    -0.269 OA
ATOM     27  H   UNL     1      -5.165   5.427  -0.573  0.00  0.00    +0.149 HD
BRANCH  24  28
ATOM     28  C   UNL     1      -4.373   3.669  -1.462  0.00  0.00    +0.109 C 
BRANCH  28  29
ATOM     29  C   UNL     1      -4.287   3.112  -0.040  0.00  0.00    +0.056 C 
BRANCH  29  36
ATOM     30  C   UNL     1       0.084   1.421  -0.119  0.00  0.00    +0.001 A 
ATOM     31  C   UNL     1       0.127   0.034  -0.156  0.00  0.00    +0.002 A 
ATOM     32  C   UNL     1      -1.036  -0.705  -0.167  0.00  0.00    +0.026 A 
ATOM     33  C   UNL     1      -2.266  -0.057  -0.139  0.00  0.00    +0.047 A 
ATOM     34  N   UNL     1      -3.570  -0.499  -0.141  0.00  0.00    -0.360 N 
ATOM     35  C   UNL     1      -4.423   0.571  -0.106  0.00  0.00    +0.087 A 
ATOM     36  C   UNL     1      -3.722   1.715  -0.081  0.00  0.00    -0.021 A 
ATOM     37  C   UNL     1      -2.304   1.349  -0.102  0.00  0.00    +0.003 A 
ATOM     38  C   UNL     1      -1.114   2.078  -0.087  0.00  0.00    +0.010 A 
ATOM     39  H   UNL     1      -3.844  -1.429  -0.164  0.00  0.00    +0.165 HD
ENDBRANCH  29  36
ENDBRANCH  28  29
ENDBRANCH  24  28
ENDBRANCH   1  25
TORSDOF 5
