REMARK  Name = ZINC58991269
REMARK  8 active torsions:
REMARK  status: ('A' for Active; 'I' for Inactive)
REMARK    1  A    between atoms: C_1  and  C_2
REMARK    2  A    between atoms: C_2  and  C_22
REMARK    3  A    between atoms: N_3  and  N_4
REMARK    4  A    between atoms: C_5  and  C_7
REMARK    5  A    between atoms: C_7  and  S_8
REMARK    6  A    between atoms: S_8  and  C_9
REMARK    7  A    between atoms: C_12  and  C_15
REMARK    8  A    between atoms: N_13  and  N_14
REMARK                            x       y       z     vdW  Elec       q    Type
REMARK                         _______ _______ _______ _____ _____    ______ ____
ROOT
ATOM      1  N   UNL     1      -0.031   0.049   2.339  0.00  0.00    -0.206 N 
ATOM      2  C   UNL     1      -0.101  -0.629   3.502  0.00  0.00    +0.242 C 
ATOM      3  O   UNL     1      -0.241  -1.834   3.494  0.00  0.00    -0.273 OA
ATOM      4  H   UNL     1       0.081   1.012   2.345  0.00  0.00    +0.177 HD
ENDROOT
BRANCH   1   7
ATOM      5  C   UNL     1       0.123   1.511   0.011  0.00  0.00    +0.068 C 
ATOM      6  C   UNL     1      -0.051   0.014   0.001  0.00  0.00    +0.063 C 
ATOM      7  N   UNL     1      -0.119  -0.638   1.121  0.00  0.00    -0.185 NA
BRANCH   6   8
ATOM      8  C   UNL     1      -0.144  -0.709  -1.280  0.00  0.00    -0.002 A 
ATOM      9  C   UNL     1      -0.064   0.003  -2.491  0.00  0.00    +0.010 A 
ATOM     10  C   UNL     1      -0.146  -0.641  -3.683  0.00  0.00    +0.009 A 
ATOM     11  C   UNL     1      -0.315  -2.038  -3.719  0.00  0.00    -0.018 A 
ATOM     12  C   UNL     1      -0.403  -2.725  -4.941  0.00  0.00    +0.008 A 
ATOM     13  C   UNL     1      -0.565  -4.077  -4.945  0.00  0.00    +0.001 A 
ATOM     14  C   UNL     1      -0.646  -4.794  -3.752  0.00  0.00    +0.001 A 
ATOM     15  C   UNL     1      -0.565  -4.163  -2.550  0.00  0.00    +0.008 A 
ATOM     16  C   UNL     1      -0.397  -2.767  -2.506  0.00  0.00    -0.017 A 
ATOM     17  C   UNL     1      -0.304  -2.086  -1.283  0.00  0.00    +0.018 A 
ENDBRANCH   6   8
ENDBRANCH   1   7
BRANCH   2  18
ATOM     18  C   UNL     1      -0.006   0.111   4.812  0.00  0.00    +0.174 C 
BRANCH  18  19
ATOM     19  S   UNL     1      -0.134  -1.070   6.183  0.00  0.00    -0.075 S 
BRANCH  19  20
ATOM     20  C   UNL     1      -0.007  -0.064   7.624  0.00  0.00    +0.209 A 
ATOM     21  N   UNL     1       0.139   1.242   7.654  0.00  0.00    -0.121 NA
ATOM     22  N   UNL     1       0.197   1.652   8.870  0.00  0.00    -0.127 NA
ATOM     23  C   UNL     1       0.091   0.634   9.692  0.00  0.00    +0.183 A 
ATOM     24  N   UNL     1      -0.049  -0.496   8.919  0.00  0.00    -0.224 N 
BRANCH  23  25
ATOM     25  C   UNL     1       0.113   0.692  11.169  0.00  0.00    +0.035 A 
ATOM     26  C   UNL     1       0.919  -0.188  11.893  0.00  0.00    +0.013 A 
ATOM     27  C   UNL     1       0.936  -0.129  13.271  0.00  0.00    +0.001 A 
ATOM     28  C   UNL     1       0.155   0.800  13.936  0.00  0.00    +0.001 A 
ATOM     29  C   UNL     1      -0.647   1.675  13.226  0.00  0.00    +0.016 A 
ATOM     30  C   UNL     1      -0.669   1.630  11.846  0.00  0.00    +0.029 A 
ATOM     31 BR   UNL     1      -1.759   2.832  10.875  0.00  0.00    -0.050 Br
ENDBRANCH  23  25
BRANCH  24  32
ATOM     32  N   UNL     1      -0.195  -1.782   9.357  0.00  0.00    -0.295 N 
ATOM     33  H   UNL     1       0.702  -2.203   9.547  0.00  0.00    +0.163 HD
ATOM     34  H   UNL     1      -0.793  -1.822  10.168  0.00  0.00    +0.163 HD
ENDBRANCH  24  32
ENDBRANCH  19  20
ENDBRANCH  18  19
ENDBRANCH   2  18
TORSDOF 7
