REMARK  Name = ZINC38682181
REMARK  12 active torsions:
REMARK  status: ('A' for Active; 'I' for Inactive)
REMARK    1  A    between atoms: C_1  and  O_2
REMARK    2  A    between atoms: O_2  and  C_3
REMARK    3  A    between atoms: C_8  and  O_9
REMARK    4  A    between atoms: O_9  and  C_10
REMARK    5  A    between atoms: C_10  and  C_11
REMARK    6  A    between atoms: C_11  and  O_13
REMARK    7  A    between atoms: O_13  and  C_14
REMARK    8  A    between atoms: C_21  and  N_35
REMARK    9  A    between atoms: C_22  and  C_33
REMARK   10  A    between atoms: C_23  and  C_25
REMARK   11  A    between atoms: C_28  and  S_31
REMARK   12  A    between atoms: S_31  and  C_32
REMARK                            x       y       z     vdW  Elec       q    Type
REMARK                         _______ _______ _______ _____ _____    ______ ____
ROOT
ATOM      1  C   UNL     1      -1.135  -6.804  -2.053  0.00  0.00    +0.135 A 
ATOM      2  C   UNL     1      -1.706  -6.069  -3.083  0.00  0.00    +0.047 A 
ATOM      3  C   UNL     1      -2.347  -6.718  -4.120  0.00  0.00    +0.012 A 
ATOM      4  C   UNL     1      -2.424  -8.099  -4.138  0.00  0.00    +0.008 A 
ATOM      5  C   UNL     1      -1.856  -8.838  -3.111  0.00  0.00    +0.138 A 
ATOM      6  C   UNL     1      -1.206  -8.188  -2.071  0.00  0.00    +0.093 A 
ATOM      7  O   UNL     1      -1.922 -10.192  -3.111  0.00  0.00    -0.441 OA
ATOM      8  C   UNL     1      -2.181 -10.851  -4.252  0.00  0.00    +0.199 C 
ATOM      9  C   UNL     1      -2.753 -10.242  -5.318  0.00  0.00    +0.098 C 
ATOM     10  C   UNL     1      -3.128  -8.787  -5.277  0.00  0.00    +0.098 C 
ENDROOT
BRANCH  10  11
ATOM     11  C   UNL     1      -4.619  -8.661  -5.091  0.00  0.00    -0.035 A 
ATOM     12  C   UNL     1      -5.218  -9.178  -3.957  0.00  0.00    +0.005 A 
ATOM     13  C   UNL     1      -6.584  -9.065  -3.784  0.00  0.00    +0.015 A 
ATOM     14  C   UNL     1      -7.355  -8.431  -4.751  0.00  0.00    +0.008 A 
ATOM     15  C   UNL     1      -6.749  -7.913  -5.889  0.00  0.00    +0.015 A 
ATOM     16  C   UNL     1      -5.382  -8.025  -6.053  0.00  0.00    +0.005 A 
BRANCH  14  17
ATOM     17  S   UNL     1      -9.098  -8.285  -4.535  0.00  0.00    -0.129 S 
ATOM     18  C   UNL     1      -9.652  -7.405  -6.021  0.00  0.00    +0.090 C 
ENDBRANCH  14  17
ENDBRANCH  10  11
BRANCH   8  19
ATOM     19  N   UNL     1      -1.858 -12.182  -4.341  0.00  0.00    -0.328 N 
ATOM     20  H   UNL     1      -1.448 -12.633  -3.586  0.00  0.00    +0.145 HD
ATOM     21  H   UNL     1      -2.039 -12.672  -5.158  0.00  0.00    +0.145 HD
ENDBRANCH   8  19
BRANCH   9  22
ATOM     22  C   UNL     1      -3.003 -10.998  -6.508  0.00  0.00    +0.101 C 
ATOM     23  N   UNL     1      -3.203 -11.598  -7.451  0.00  0.00    -0.191 NA
ENDBRANCH   9  22
BRANCH   1  24
ATOM     24  O   UNL     1      -0.504  -6.168  -1.032  0.00  0.00    -0.423 OA
BRANCH  24  25
ATOM     25  C   UNL     1      -1.261  -5.593  -0.084  0.00  0.00    +0.350 C 
ATOM     26  O   UNL     1      -2.464  -5.573  -0.200  0.00  0.00    -0.247 OA
BRANCH  25  27
ATOM     27  C   UNL     1      -0.611  -4.972   1.126  0.00  0.00    +0.349 C 
BRANCH  27  28
ATOM     28  O   UNL     1      -1.618  -4.430   1.983  0.00  0.00    -0.477 OA
BRANCH  28  34
ATOM     29  C   UNL     1      -2.124  -3.279   4.008  0.00  0.00    +0.162 A 
ATOM     30  C   UNL     1      -1.690  -2.672   5.176  0.00  0.00    +0.049 A 
ATOM     31  C   UNL     1      -0.339  -2.610   5.462  0.00  0.00    +0.004 A 
ATOM     32  C   UNL     1       0.582  -3.151   4.584  0.00  0.00    +0.004 A 
ATOM     33  C   UNL     1       0.156  -3.757   3.417  0.00  0.00    +0.049 A 
ATOM     34  C   UNL     1      -1.197  -3.829   3.127  0.00  0.00    +0.163 A 
BRANCH  29  36
ATOM     35  C   UNL     1      -4.346  -2.756   4.675  0.00  0.00    +0.277 C 
ATOM     36  O   UNL     1      -3.453  -3.342   3.726  0.00  0.00    -0.491 OA
ENDBRANCH  29  36
ENDBRANCH  28  34
ENDBRANCH  27  28
ENDBRANCH  25  27
ENDBRANCH  24  25
ENDBRANCH   1  24
TORSDOF 10
