REMARK  Name = ZINC39467597
REMARK  8 active torsions:
REMARK  status: ('A' for Active; 'I' for Inactive)
REMARK    1  A    between atoms: C_1  and  C_2
REMARK    2  A    between atoms: C_2  and  O_3
REMARK    3  A    between atoms: O_3  and  C_4
REMARK    4  A    between atoms: C_16  and  S_17
REMARK    5  A    between atoms: S_17  and  O_20
REMARK    6  A    between atoms: O_20  and  C_21
REMARK    7  A    between atoms: P_29  and  C_32
REMARK    8  A    between atoms: C_37  and  O_38
REMARK                            x       y       z     vdW  Elec       q    Type
REMARK                         _______ _______ _______ _____ _____    ______ ____
ROOT
ATOM      1  C   UNL     1      -1.728  -2.171   0.425  0.00  0.00    +0.145 C 
ATOM      2  C   UNL     1      -0.791  -3.109   0.615  0.00  0.00    +0.023 C 
ATOM      3  C   UNL     1      -1.224  -4.541   0.763  0.00  0.00    +0.008 C 
ATOM      4  C   UNL     1      -0.179  -5.371   1.501  0.00  0.00    -0.046 C 
ATOM      5  N   UNL     1      -0.626  -6.773   1.585  0.00  0.00    +0.398 N 
ATOM      6  C   UNL     1      -1.893  -6.888   2.306  0.00  0.00    -0.020 C 
ATOM      7  C   UNL     1      -2.986  -6.036   1.644  0.00  0.00    -0.003 C 
ATOM      8  C   UNL     1      -2.523  -4.584   1.577  0.00  0.00    +0.018 C 
ATOM      9  C   UNL     1      -3.547  -3.710   0.906  0.00  0.00    +0.011 C 
ATOM     10  C   UNL     1      -3.150  -2.563   0.361  0.00  0.00    +0.166 C 
ATOM     11  C   UNL     1      -2.409  -8.333   2.308  0.00  0.00    +0.157 C 
ATOM     12  O   UNL     1      -1.460  -9.177   2.986  0.00  0.00    -0.316 OA
ATOM     13  P   UNL     1       0.101  -9.076   2.536  0.00  0.00    +0.291 P 
ATOM     14  O   UNL     1       0.333  -9.870   1.309  0.00  0.00    -0.269 OA
ATOM     15  N   UNL     1       0.370  -7.456   2.251  0.00  0.00    -0.288 NA
ATOM     16  H   UNL     1       1.189  -7.012   2.523  0.00  0.00    +0.111 HD
ATOM     17  H   UNL     1      -0.730  -7.150   0.655  0.00  0.00    -0.055 HD
ENDROOT
BRANCH  13  18
ATOM     18  C   UNL     1       1.179  -9.659   3.873  0.00  0.00    +0.091 A 
ATOM     19  C   UNL     1       1.641  -8.770   4.826  0.00  0.00    +0.018 A 
ATOM     20  C   UNL     1       2.464  -9.214   5.845  0.00  0.00    +0.001 A 
ATOM     21  C   UNL     1       2.826 -10.546   5.914  0.00  0.00    +0.004 A 
ATOM     22  C   UNL     1       2.367 -11.438   4.964  0.00  0.00    +0.046 A 
ATOM     23  C   UNL     1       1.537 -10.997   3.944  0.00  0.00    +0.131 A 
BRANCH  23  24
ATOM     24  O   UNL     1       1.079 -11.873   3.011  0.00  0.00    -0.506 OA
ATOM     25  H   UNL     1       1.655 -11.964   2.240  0.00  0.00    +0.292 HD
ENDBRANCH  23  24
ENDBRANCH  13  18
BRANCH  10  26
ATOM     26  S   UNL     1      -4.321  -1.517  -0.440  0.00  0.00    +0.154 S 
ATOM     27  O   UNL     1      -5.591  -2.132  -0.279  0.00  0.00    -0.131 OA
ATOM     28  O   UNL     1      -4.054  -0.194   0.004  0.00  0.00    -0.131 OA
BRANCH  26  29
ATOM     29  O   UNL     1      -4.007  -1.548  -1.929  0.00  0.00    -0.342 OA
BRANCH  29  30
ATOM     30  C   UNL     1      -4.377  -2.700  -2.548  0.00  0.00    +0.157 A 
ATOM     31  C   UNL     1      -3.488  -3.761  -2.631  0.00  0.00    +0.048 A 
ATOM     32  C   UNL     1      -3.867  -4.931  -3.260  0.00  0.00    +0.004 A 
ATOM     33  C   UNL     1      -5.132  -5.044  -3.807  0.00  0.00    +0.000 A 
ATOM     34  C   UNL     1      -6.020  -3.988  -3.726  0.00  0.00    +0.004 A 
ATOM     35  C   UNL     1      -5.648  -2.818  -3.092  0.00  0.00    +0.048 A 
ENDBRANCH  29  30
ENDBRANCH  26  29
ENDBRANCH  10  26
BRANCH   1  36
ATOM     36  O   UNL     1      -1.373  -0.865   0.299  0.00  0.00    -0.491 OA
BRANCH  36  38
ATOM     37  C   UNL     1       0.229   0.933   0.100  0.00  0.00    +0.048 C 
ATOM     38  C   UNL     1       0.026  -0.575   0.260  0.00  0.00    +0.226 C 
ENDBRANCH  36  38
ENDBRANCH   1  36
TORSDOF 7
