REMARK  Name = ZINC09360503
REMARK  5 active torsions:
REMARK  status: ('A' for Active; 'I' for Inactive)
REMARK    1  A    between atoms: C_1  and  C_2
REMARK    2  A    between atoms: C_9  and  C_27
REMARK    3  A    between atoms: C_11  and  C_18
REMARK    4  A    between atoms: C_22  and  N_24
REMARK    5  A    between atoms: C_27  and  C_29
REMARK                            x       y       z     vdW  Elec       q    Type
REMARK                         _______ _______ _______ _____ _____    ______ ____
ROOT
ATOM      1  C   UNL     1       1.530   7.288  -0.605  0.00  0.00    +0.044 C 
ATOM      2  C   UNL     1       0.783   6.001  -0.362  0.00  0.00    -0.050 A 
ATOM      3  C   UNL     1      -0.597   6.006  -0.277  0.00  0.00    +0.005 A 
ATOM      4  C   UNL     1      -1.285   4.832  -0.055  0.00  0.00    +0.024 A 
ATOM      5  C   UNL     1      -0.594   3.631   0.086  0.00  0.00    +0.036 A 
ATOM      6  C   UNL     1       0.795   3.638  -0.001  0.00  0.00    -0.027 A 
ATOM      7  C   UNL     1       1.478   4.812  -0.223  0.00  0.00    +0.008 A 
ATOM      8  C   UNL     1       1.226   2.211   0.192  0.00  0.00    +0.052 C 
ATOM      9  C   UNL     1       2.157   2.065   1.401  0.00  0.00    +0.069 C 
ATOM     10  C   UNL     1       3.576   2.176   0.803  0.00  0.00    +0.016 C 
ATOM     11  C   UNL     1       3.396   1.978  -0.706  0.00  0.00    -0.047 C 
ATOM     12  C   UNL     1       1.685   0.252  -1.118  0.00  0.00    -0.005 C 
ATOM     13  S   UNL     1       3.213  -0.308  -1.990  0.00  0.00    -0.181 S 
ATOM     14  C   UNL     1       4.370   0.917  -1.242  0.00  0.00    +0.052 C 
ATOM     15  C   UNL     1      -0.051   1.441   0.390  0.00  0.00    +0.212 C 
ATOM     16  O   UNL     1      -0.155   0.247   0.579  0.00  0.00    -0.277 OA
ATOM     17  N   UNL     1      -1.057   2.332   0.309  0.00  0.00    -0.286 N 
ATOM     18  H   UNL     1      -1.995   2.100   0.398  0.00  0.00    +0.155 HD
ATOM     19  N   UNL     1       1.966   1.723  -0.954  0.00  0.00    +0.401 N 
ATOM     20  H   UNL     1       1.671   2.221  -1.802  0.00  0.00    -0.078 HD
ENDROOT
BRANCH  10  21
ATOM     21  C   UNL     1       4.468   1.102   1.370  0.00  0.00    -0.043 A 
ATOM     22  C   UNL     1       5.746   1.416   1.794  0.00  0.00    +0.004 A 
ATOM     23  C   UNL     1       6.562   0.432   2.318  0.00  0.00    +0.002 A 
ATOM     24  C   UNL     1       6.104  -0.870   2.409  0.00  0.00    +0.033 A 
ATOM     25  C   UNL     1       4.829  -1.185   1.980  0.00  0.00    +0.126 A 
ATOM     26  C   UNL     1       4.011  -0.200   1.460  0.00  0.00    +0.036 A 
BRANCH  25  27
ATOM     27  N   UNL     1       4.338  -2.579   2.078  0.00  0.00    +0.056 N 
ATOM     28  O   UNL     1       3.214  -2.857   1.700  0.00  0.00    -0.126 OA
ATOM     29  O   UNL     1       5.059  -3.447   2.536  0.00  0.00    -0.126 OA
ENDBRANCH  25  27
ENDBRANCH  10  21
BRANCH   9  30
ATOM     30  C   UNL     1       1.913   3.174   2.392  0.00  0.00    +0.168 C 
ATOM     31  O   UNL     1       2.548   4.205   2.315  0.00  0.00    -0.292 OA
BRANCH  30  32
ATOM     32  C   UNL     1       0.906   3.007   3.451  0.00  0.00    +0.036 A 
ATOM     33  C   UNL     1       0.669   4.032   4.380  0.00  0.00    +0.014 A 
ATOM     34  C   UNL     1      -0.288   3.823   5.355  0.00  0.00    +0.020 A 
ATOM     35  C   UNL     1      -0.976   2.623   5.385  0.00  0.00    +0.111 A 
ATOM     36  N   UNL     1      -0.733   1.675   4.499  0.00  0.00    -0.263 NA
ATOM     37  C   UNL     1       0.164   1.826   3.547  0.00  0.00    +0.122 A 
ENDBRANCH  30  32
ENDBRANCH   9  30
TORSDOF 4
