REMARK  Name = ZINC46584362
REMARK  7 active torsions:
REMARK  status: ('A' for Active; 'I' for Inactive)
REMARK    1  A    between atoms: C_1  and  C_2
REMARK    2  A    between atoms: C_2  and  C_4
REMARK    3  A    between atoms: C_2  and  N_14
REMARK    4  A    between atoms: N_6  and  C_7
REMARK    5  A    between atoms: N_17  and  C_20
REMARK    6  A    between atoms: C_21  and  C_30
REMARK    7  A    between atoms: C_23  and  C_25
REMARK                            x       y       z     vdW  Elec       q    Type
REMARK                         _______ _______ _______ _____ _____    ______ ____
ROOT
ATOM      1  N   UNL     1       0.517  -0.642   1.214  0.00  0.00    +0.389 N 
ATOM      2  C   UNL     1      -0.242  -0.247   2.408  0.00  0.00    -0.058 C 
ATOM      3  C   UNL     1       0.426  -0.836   3.654  0.00  0.00    +0.089 C 
ATOM      4  N   UNL     1       0.557  -2.290   3.471  0.00  0.00    -0.303 N 
ATOM      5  C   UNL     1       1.161  -2.780   2.223  0.00  0.00    +0.089 C 
ATOM      6  C   UNL     1       0.458  -2.099   1.043  0.00  0.00    -0.058 C 
ATOM      7  H   UNL     1       1.479  -0.356   1.320  0.00  0.00    -0.081 HD
ENDROOT
BRANCH   4   8
ATOM      8  C   UNL     1       0.125  -3.168   4.441  0.00  0.00    +0.227 A 
ATOM      9  C   UNL     1       0.840  -3.591   5.552  0.00  0.00    +0.201 A 
ATOM     10  N   UNL     1       0.037  -4.449   6.236  0.00  0.00    -0.194 NA
ATOM     11  C   UNL     1      -1.102  -4.555   5.597  0.00  0.00    +0.266 A 
ATOM     12  O   UNL     1      -1.075  -3.776   4.497  0.00  0.00    -0.417 OA
BRANCH  11  13
ATOM     13  C   UNL     1      -2.236  -5.390   6.017  0.00  0.00    +0.189 A 
ATOM     14  C   UNL     1      -2.284  -6.174   7.131  0.00  0.00    +0.055 A 
ATOM     15  C   UNL     1      -3.549  -6.791   7.138  0.00  0.00    +0.042 A 
ATOM     16  C   UNL     1      -4.206  -6.360   6.043  0.00  0.00    +0.196 A 
ATOM     17  O   UNL     1      -3.413  -5.510   5.371  0.00  0.00    -0.458 OA
ENDBRANCH  11  13
BRANCH   9  18
ATOM     18  C   UNL     1       2.170  -3.199   5.909  0.00  0.00    +0.124 C 
ATOM     19  N   UNL     1       3.225  -2.888   6.193  0.00  0.00    -0.189 NA
ENDBRANCH   9  18
ENDBRANCH   4   8
BRANCH   1  21
ATOM     20  C   UNL     1      -0.123   1.522   0.264  0.00  0.00    -0.004 C 
ATOM     21  C   UNL     1      -0.059   0.012   0.031  0.00  0.00    +0.017 C 
BRANCH  21  22
ATOM     22  C   UNL     1       0.804  -0.275  -1.171  0.00  0.00    +0.203 C 
ATOM     23  O   UNL     1       1.912  -0.747  -1.024  0.00  0.00    -0.277 OA
ATOM     24  N   UNL     1       0.345  -0.006  -2.409  0.00  0.00    -0.287 N 
ATOM     25  H   UNL     1      -0.508   0.440  -2.524  0.00  0.00    +0.155 HD
BRANCH  24  26
ATOM     26  C   UNL     1       1.100  -0.371  -3.530  0.00  0.00    +0.034 A 
ATOM     27  C   UNL     1       0.463  -0.789  -4.691  0.00  0.00    +0.023 A 
ATOM     28  C   UNL     1       1.210  -1.149  -5.795  0.00  0.00    +0.003 A 
ATOM     29  C   UNL     1       2.591  -1.093  -5.746  0.00  0.00    +0.015 A 
ATOM     30  C   UNL     1       3.228  -0.678  -4.591  0.00  0.00    +0.020 A 
ATOM     31  C   UNL     1       2.486  -0.311  -3.484  0.00  0.00    +0.038 A 
ATOM     32 BR   UNL     1       5.117  -0.604  -4.528  0.00  0.00    -0.050 Br
ENDBRANCH  24  26
ENDBRANCH  21  22
ENDBRANCH   1  21
TORSDOF 6
