REMARK  Name = ZINC06150074
REMARK  6 active torsions:
REMARK  status: ('A' for Active; 'I' for Inactive)
REMARK    1  A    between atoms: C_1  and  C_2
REMARK    2  A    between atoms: C_2  and  O_3
REMARK    3  A    between atoms: O_3  and  C_4
REMARK    4  A    between atoms: C_7  and  N_10
REMARK    5  A    between atoms: C_24  and  C_33
REMARK    6  A    between atoms: C_34  and  C_36
REMARK                            x       y       z     vdW  Elec       q    Type
REMARK                         _______ _______ _______ _____ _____    ______ ____
ROOT
ATOM      1  N   UNL     1      -0.440   7.730  -2.118  0.00  0.00    -0.297 N 
ATOM      2  C   UNL     1       0.884   8.127  -2.139  0.00  0.00    +0.164 C 
ATOM      3  N   UNL     1       1.214   9.272  -2.683  0.00  0.00    -0.227 NA
ATOM      4  C   UNL     1       2.503   9.697  -2.723  0.00  0.00    +0.087 A 
ATOM      5  C   UNL     1       2.817  10.927  -3.314  0.00  0.00    +0.030 A 
ATOM      6  C   UNL     1       4.124  11.356  -3.353  0.00  0.00    +0.002 A 
ATOM      7  C   UNL     1       5.136  10.578  -2.812  0.00  0.00    +0.002 A 
ATOM      8  C   UNL     1       4.845   9.363  -2.226  0.00  0.00    +0.025 A 
ATOM      9  C   UNL     1       3.533   8.911  -2.176  0.00  0.00    +0.062 A 
ATOM     10  N   UNL     1       3.230   7.695  -1.592  0.00  0.00    -0.266 N 
ATOM     11  C   UNL     1       1.923   7.263  -1.550  0.00  0.00    +0.169 C 
ATOM     12  N   UNL     1       1.589   6.118  -1.007  0.00  0.00    -0.209 NA
ATOM     13  C   UNL     1       2.462   5.255  -0.442  0.00  0.00    +0.166 A 
ATOM     14  C   UNL     1       3.816   5.542  -0.402  0.00  0.00    +0.048 A 
ATOM     15  C   UNL     1       4.464   4.491   0.230  0.00  0.00    +0.068 A 
ATOM     16  N   UNL     1       3.570   3.595   0.574  0.00  0.00    -0.168 NA
ATOM     17  N   UNL     1       2.305   4.037   0.164  0.00  0.00    -0.196 N 
ATOM     18  C   UNL     1       1.098   3.359   0.346  0.00  0.00    +0.156 A 
ATOM     19  C   UNL     1       1.099   1.975   0.481  0.00  0.00    +0.048 A 
ATOM     20  C   UNL     1      -0.104   1.315   0.660  0.00  0.00    +0.005 A 
ATOM     21  C   UNL     1      -1.272   2.065   0.693  0.00  0.00    +0.020 A 
ATOM     22  C   UNL     1      -1.198   3.437   0.558  0.00  0.00    +0.113 A 
ATOM     23  N   UNL     1      -0.036   4.039   0.389  0.00  0.00    -0.236 NA
ATOM     24  C   UNL     1       5.946   4.396   0.484  0.00  0.00    +0.068 C 
ATOM     25  C   UNL     1       4.280   6.847  -1.010  0.00  0.00    +0.182 C 
ATOM     26  H   UNL     1      -0.676   6.849  -1.786  0.00  0.00    +0.154 HD
ENDROOT
BRANCH   1  30
ATOM     27  C   UNL     1      -3.415  10.313  -3.477  0.00  0.00    +0.121 A 
ATOM     28  C   UNL     1      -3.556   8.943  -3.646  0.00  0.00    +0.047 A 
ATOM     29  C   UNL     1      -2.571   8.087  -3.195  0.00  0.00    +0.027 A 
ATOM     30  C   UNL     1      -1.439   8.597  -2.574  0.00  0.00    +0.033 A 
ATOM     31  C   UNL     1      -1.300   9.968  -2.401  0.00  0.00    +0.027 A 
ATOM     32  C   UNL     1      -2.284  10.823  -2.857  0.00  0.00    +0.047 A 
BRANCH  27  33
ATOM     33  O   UNL     1      -4.386  11.156  -3.921  0.00  0.00    -0.492 OA
BRANCH  33  35
ATOM     34  C   UNL     1      -5.364  13.337  -4.275  0.00  0.00    +0.048 C 
ATOM     35  C   UNL     1      -4.175  12.554  -3.715  0.00  0.00    +0.225 C 
ENDBRANCH  33  35
ENDBRANCH  27  33
ENDBRANCH   1  30
BRANCH  25  36
ATOM     36  C   UNL     1       5.280   6.528  -2.091  0.00  0.00    +0.130 A 
ATOM     37  C   UNL     1       6.616   6.485  -1.940  0.00  0.00    +0.047 A 
ATOM     38  C   UNL     1       7.161   6.150  -3.200  0.00  0.00    +0.041 A 
ATOM     39  C   UNL     1       6.125   6.009  -4.047  0.00  0.00    +0.195 A 
ATOM     40  O   UNL     1       4.988   6.234  -3.369  0.00  0.00    -0.466 OA
ENDBRANCH  25  36
TORSDOF 4
