REMARK  Name = ZINC06443863
REMARK  6 active torsions:
REMARK  status: ('A' for Active; 'I' for Inactive)
REMARK    1  A    between atoms: C_1  and  C_2
REMARK    2  A    between atoms: C_12  and  C_14
REMARK    3  A    between atoms: C_14  and  C_16
REMARK    4  A    between atoms: C_14  and  N_70
REMARK    5  A    between atoms: N_20  and  C_21
REMARK    6  A    between atoms: C_21  and  C_22
REMARK                            x       y       z     vdW  Elec       q    Type
REMARK                         _______ _______ _______ _____ _____    ______ ____
ROOT
ATOM      1  C   UNL     1       1.655   6.576  -1.452  0.00  0.00    +0.039 C 
ENDROOT
BRANCH   1  13
ATOM      2  C   UNL     1      -3.978   6.493  -4.840  0.00  0.00    +0.046 C 
ATOM      3  C   UNL     1      -3.687   6.228  -3.385  0.00  0.00    -0.026 A 
ATOM      4  C   UNL     1      -4.712   5.901  -2.523  0.00  0.00    +0.005 A 
ATOM      5  C   UNL     1      -4.458   5.654  -1.181  0.00  0.00    +0.001 A 
ATOM      6  C   UNL     1      -3.185   5.731  -0.689  0.00  0.00    +0.010 A 
ATOM      7  C   UNL     1      -2.130   6.060  -1.545  0.00  0.00    -0.001 A 
ATOM      8  C   UNL     1      -2.384   6.311  -2.907  0.00  0.00    +0.052 A 
ATOM      9  N   UNL     1      -1.339   6.636  -3.746  0.00  0.00    -0.322 N 
ATOM     10  H   UNL     1      -1.516   6.810  -4.684  0.00  0.00    +0.169 HD
ATOM     11  C   UNL     1      -0.080   6.717  -3.284  0.00  0.00    +0.251 A 
ATOM     12  O   UNL     1       0.819   7.008  -4.054  0.00  0.00    -0.268 OA
ATOM     13  C   UNL     1       0.229   6.475  -1.928  0.00  0.00    +0.011 A 
ATOM     14  C   UNL     1      -0.753   6.146  -1.052  0.00  0.00    +0.017 A 
ENDBRANCH   1  13
BRANCH   1  25
ATOM     15  C   UNL     1       1.309   8.972  -1.407  0.00  0.00    -0.077 C 
ATOM     16  C   UNL     1       1.837  10.306  -1.939  0.00  0.00    -0.018 C 
ATOM     17  C   UNL     1       3.249  10.544  -1.395  0.00  0.00    +0.003 C 
ATOM     18  C   UNL     1       4.149   9.375  -1.805  0.00  0.00    -0.044 C 
ATOM     19  C   UNL     1       3.554   8.068  -1.278  0.00  0.00    -0.071 C 
ATOM     20  C   UNL     1       4.241   9.315  -3.331  0.00  0.00    +0.005 C 
ATOM     21  C   UNL     1       5.142   8.149  -3.743  0.00  0.00    +0.000 C 
ATOM     22  C   UNL     1       6.540   8.353  -3.155  0.00  0.00    +0.000 C 
ATOM     23  C   UNL     1       6.447   8.410  -1.629  0.00  0.00    +0.000 C 
ATOM     24  C   UNL     1       5.546   9.576  -1.216  0.00  0.00    +0.005 C 
ATOM     25  N   UNL     1       2.206   7.886  -1.857  0.00  0.00    +0.390 N 
ATOM     26  H   UNL     1       2.277   7.916  -2.881  0.00  0.00    -0.080 HD
ENDBRANCH   1  25
BRANCH   1  27
ATOM     27  C   UNL     1       2.476   5.486  -2.091  0.00  0.00    +0.143 A 
ATOM     28  N   UNL     1       2.967   5.486  -3.306  0.00  0.00    -0.115 NA
ATOM     29  N   UNL     1       3.608   4.381  -3.477  0.00  0.00    -0.023 NA
ATOM     30  N   UNL     1       3.542   3.679  -2.400  0.00  0.00    -0.044 NA
ATOM     31  N   UNL     1       2.848   4.323  -1.524  0.00  0.00    -0.226 N 
BRANCH  31  32
ATOM     32  C   UNL     1       2.529   3.876  -0.166  0.00  0.00    +0.182 C 
BRANCH  32  33
ATOM     33  C   UNL     1       3.665   4.230   0.759  0.00  0.00    -0.026 A 
ATOM     34  C   UNL     1       3.655   5.435   1.437  0.00  0.00    +0.005 A 
ATOM     35  C   UNL     1       4.697   5.760   2.285  0.00  0.00    +0.000 A 
ATOM     36  C   UNL     1       5.752   4.882   2.451  0.00  0.00    +0.000 A 
ATOM     37  C   UNL     1       5.760   3.675   1.777  0.00  0.00    +0.000 A 
ATOM     38  C   UNL     1       4.718   3.350   0.929  0.00  0.00    +0.005 A 
ENDBRANCH  32  33
ENDBRANCH  31  32
ENDBRANCH   1  27
TORSDOF 5
