REMARK  Name = ZINC39933132
REMARK  6 active torsions:
REMARK  status: ('A' for Active; 'I' for Inactive)
REMARK    1  A    between atoms: C_2  and  C_3
REMARK    2  A    between atoms: C_3  and  O_4
REMARK    3  A    between atoms: O_4  and  C_5
REMARK    4  A    between atoms: C_10  and  O_23
REMARK    5  A    between atoms: O_23  and  C_24
REMARK    6  A    between atoms: C_24  and  C_25
REMARK                            x       y       z     vdW  Elec       q    Type
REMARK                         _______ _______ _______ _____ _____    ______ ____
ROOT
ATOM      1  C   UNL     1       2.482  -2.574   0.997  0.00  0.00    +0.181 C 
ATOM      2  C   UNL     1       3.419  -1.971   2.054  0.00  0.00    +0.184 C 
ATOM      3  C   UNL     1       4.625  -2.872   2.358  0.00  0.00    +0.184 C 
ATOM      4  C   UNL     1       4.292  -4.348   2.506  0.00  0.00    +0.181 C 
ATOM      5  C   UNL     1       3.480  -4.795   1.305  0.00  0.00    +0.184 C 
ATOM      6  C   UNL     1       2.156  -4.001   1.387  0.00  0.00    +0.184 C 
ATOM      7  O   UNL     1       1.326  -4.736   0.492  0.00  0.00    -0.340 OA
ATOM      8  C   UNL     1       1.824  -6.089   0.519  0.00  0.00    +0.171 C 
ATOM      9  O   UNL     1       2.988  -6.138   1.341  0.00  0.00    -0.340 OA
ATOM     10  C   UNL     1       2.203  -6.521  -0.897  0.00  0.00    +0.065 C 
ATOM     11  C   UNL     1       0.961  -6.483  -1.791  0.00  0.00    +0.005 C 
ATOM     12  C   UNL     1      -0.103  -7.426  -1.226  0.00  0.00    +0.000 C 
ATOM     13  C   UNL     1      -0.485  -6.980   0.186  0.00  0.00    +0.005 C 
ATOM     14  C   UNL     1       0.753  -7.018   1.086  0.00  0.00    +0.065 C 
ATOM     15  O   UNL     1       5.478  -2.652   1.219  0.00  0.00    -0.340 OA
ATOM     16  C   UNL     1       5.303  -1.257   0.908  0.00  0.00    +0.171 C 
ATOM     17  O   UNL     1       4.029  -0.803   1.447  0.00  0.00    -0.340 OA
ATOM     18  C   UNL     1       6.440  -0.450   1.535  0.00  0.00    +0.065 C 
ATOM     19  C   UNL     1       6.266   1.031   1.192  0.00  0.00    +0.005 C 
ATOM     20  C   UNL     1       6.284   1.208  -0.327  0.00  0.00    +0.000 C 
ATOM     21  C   UNL     1       5.136   0.408  -0.947  0.00  0.00    +0.005 C 
ATOM     22  C   UNL     1       5.310  -1.075  -0.611  0.00  0.00    +0.065 C 
ENDROOT
BRANCH   1  23
ATOM     23  O   UNL     1       1.277  -1.809   0.933  0.00  0.00    -0.367 OA
BRANCH  23  24
ATOM     24  C   UNL     1       1.317  -0.740  -0.015  0.00  0.00    +0.187 C 
BRANCH  24  26
ATOM     25  C   UNL     1      -0.016   1.306   0.009  0.00  0.00    +0.006 C 
ATOM     26  C   UNL     1       0.002  -0.004   0.002  0.00  0.00    -0.007 C 
ENDBRANCH  24  26
ENDBRANCH  23  24
ENDBRANCH   1  23
BRANCH   4  27
ATOM     27  O   UNL     1       3.531  -4.549   3.699  0.00  0.00    -0.367 OA
BRANCH  27  28
ATOM     28  C   UNL     1       3.725  -5.830   4.302  0.00  0.00    +0.195 C 
BRANCH  28  29
ATOM     29  C   UNL     1       2.879  -5.932   5.546  0.00  0.00    -0.022 A 
ATOM     30  C   UNL     1       3.392  -5.531   6.765  0.00  0.00    +0.006 A 
ATOM     31  C   UNL     1       2.616  -5.625   7.905  0.00  0.00    +0.000 A 
ATOM     32  C   UNL     1       1.328  -6.120   7.826  0.00  0.00    +0.000 A 
ATOM     33  C   UNL     1       0.815  -6.520   6.607  0.00  0.00    +0.000 A 
ATOM     34  C   UNL     1       1.589  -6.422   5.465  0.00  0.00    +0.006 A 
ENDBRANCH  28  29
ENDBRANCH  27  28
ENDBRANCH   4  27
TORSDOF 6
