REMARK  Name = ZINC39624957
REMARK  7 active torsions:
REMARK  status: ('A' for Active; 'I' for Inactive)
REMARK    1  A    between atoms: C_1  and  C_2
REMARK    2  A    between atoms: C_2  and  C_3
REMARK    3  A    between atoms: C_7  and  C_16
REMARK    4  A    between atoms: N_18  and  C_19
REMARK    5  A    between atoms: C_19  and  C_20
REMARK    6  A    between atoms: C_20  and  C_21
REMARK    7  A    between atoms: C_21  and  N_22
REMARK                            x       y       z     vdW  Elec       q    Type
REMARK                         _______ _______ _______ _____ _____    ______ ____
ROOT
ATOM      1  C   UNL     1      -1.572  -0.547  -0.021  0.00  0.00    +0.215 C 
ATOM      2  O   UNL     1      -2.522   0.204   0.047  0.00  0.00    -0.276 OA
ATOM      3  N   UNL     1      -1.764  -1.881   0.009  0.00  0.00    -0.300 N 
ATOM      4  C   UNL     1      -0.737  -2.947  -0.055  0.00  0.00    +0.121 C 
ATOM      5  C   UNL     1      -1.226  -4.020   0.944  0.00  0.00    +0.100 C 
ATOM      6  C   UNL     1      -2.744  -3.796   1.049  0.00  0.00    -0.004 C 
ATOM      7  C   UNL     1      -3.049  -2.612   0.120  0.00  0.00    +0.115 C 
ATOM      8  C   UNL     1      -3.495  -5.040   0.584  0.00  0.00    -0.010 C 
ATOM      9  C   UNL     1      -5.000  -4.814   0.752  0.00  0.00    -0.082 C 
ATOM     10  N   UNL     1      -5.301  -4.535   2.162  0.00  0.00    +0.379 N 
ATOM     11  C   UNL     1      -4.649  -3.286   2.574  0.00  0.00    -0.082 C 
ATOM     12  C   UNL     1      -3.128  -3.447   2.483  0.00  0.00    -0.010 C 
ATOM     13  H   UNL     1      -6.299  -4.447   2.280  0.00  0.00    -0.086 HD
ATOM     14  H   UNL     1      -4.962  -5.294   2.734  0.00  0.00    -0.086 HD
ENDROOT
BRANCH   5  15
ATOM     15  C   UNL     1      -0.932  -5.401   0.417  0.00  0.00    +0.218 C 
ATOM     16  O   UNL     1      -0.920  -5.604  -0.779  0.00  0.00    -0.275 OA
ATOM     17  N   UNL     1      -0.683  -6.411   1.274  0.00  0.00    -0.315 N 
ATOM     18  H   UNL     1      -0.693  -6.249   2.230  0.00  0.00    +0.149 HD
BRANCH  17  19
ATOM     19  C   UNL     1      -0.397  -7.753   0.761  0.00  0.00    +0.105 C 
BRANCH  19  20
ATOM     20  C   UNL     1      -0.152  -8.705   1.933  0.00  0.00    +0.034 C 
BRANCH  20  21
ATOM     21  C   UNL     1       0.146 -10.107   1.398  0.00  0.00    +0.086 C 
BRANCH  21  22
ATOM     22  N   UNL     1       0.381 -11.021   2.523  0.00  0.00    -0.298 NA
ATOM     23  C   UNL     1       1.609 -10.662   3.247  0.00  0.00    +0.112 C 
ATOM     24  C   UNL     1       1.784 -11.600   4.444  0.00  0.00    +0.175 C 
ATOM     25  O   UNL     1       1.804 -12.954   3.983  0.00  0.00    -0.377 OA
ATOM     26  C   UNL     1       0.622 -13.338   3.275  0.00  0.00    +0.175 C 
ATOM     27  C   UNL     1       0.436 -12.418   2.066  0.00  0.00    +0.112 C 
ENDBRANCH  21  22
ENDBRANCH  20  21
ENDBRANCH  19  20
ENDBRANCH  17  19
ENDBRANCH   5  15
BRANCH   1  29
ATOM     28  C   UNL     1      -0.239   1.540  -0.150  0.00  0.00    +0.013 C 
ATOM     29  C   UNL     1      -0.177   0.011  -0.138  0.00  0.00    +0.092 C 
ENDBRANCH   1  29
TORSDOF 6
