REMARK  Name = ZINC03368981
REMARK  4 active torsions:
REMARK  status: ('A' for Active; 'I' for Inactive)
REMARK    1  A    between atoms: C_8  and  C_12
REMARK    2  A    between atoms: N_14  and  N_15
REMARK    3  A    between atoms: C_16  and  C_18
REMARK    4  A    between atoms: C_20  and  C_28
REMARK                            x       y       z     vdW  Elec       q    Type
REMARK                         _______ _______ _______ _____ _____    ______ ____
ROOT
ATOM      1  N   UNL     1       6.060   6.020  -0.039  0.00  0.00    -0.230 N 
ATOM      2  C   UNL     1       6.068   7.367  -0.017  0.00  0.00    +0.261 C 
ATOM      3  O   UNL     1       5.019   7.981   0.009  0.00  0.00    -0.269 OA
ATOM      4  H   UNL     1       6.897   5.530  -0.060  0.00  0.00    +0.173 HD
ENDROOT
BRANCH   2   5
ATOM      5  C   UNL     1       7.353   8.100  -0.026  0.00  0.00    +0.049 A 
ATOM      6  C   UNL     1       8.564   7.431   0.062  0.00  0.00    +0.045 A 
ATOM      7  C   UNL     1       9.761   8.167   0.050  0.00  0.00    +0.107 A 
ATOM      8  N   UNL     1       9.777   9.483  -0.043  0.00  0.00    -0.244 NA
ATOM      9  C   UNL     1       8.658  10.204  -0.132  0.00  0.00    +0.073 A 
ATOM     10  C   UNL     1       7.396   9.559  -0.134  0.00  0.00    +0.013 A 
ATOM     11  C   UNL     1       6.226  10.319  -0.233  0.00  0.00    +0.011 A 
ATOM     12  C   UNL     1       6.311  11.676  -0.332  0.00  0.00    +0.001 A 
ATOM     13  C   UNL     1       7.548  12.316  -0.335  0.00  0.00    +0.002 A 
ATOM     14  C   UNL     1       8.706  11.607  -0.231  0.00  0.00    +0.028 A 
BRANCH   7  15
ATOM     15  C   UNL     1      11.043   7.444   0.145  0.00  0.00    +0.153 A 
ATOM     16  C   UNL     1      12.282   8.009   0.141  0.00  0.00    +0.051 A 
ATOM     17  C   UNL     1      13.209   6.955   0.252  0.00  0.00    +0.042 A 
ATOM     18  C   UNL     1      12.500   5.809   0.309  0.00  0.00    +0.196 A 
ATOM     19  O   UNL     1      11.193   6.108   0.244  0.00  0.00    -0.461 OA
ENDBRANCH   7  15
ENDBRANCH   2   5
BRANCH   1  22
ATOM     20  C   UNL     1       4.834   3.979  -0.053  0.00  0.00    +0.267 C 
ATOM     21  O   UNL     1       5.884   3.365  -0.079  0.00  0.00    -0.268 OA
ATOM     22  N   UNL     1       4.842   5.326  -0.031  0.00  0.00    -0.230 N 
ATOM     23  H   UNL     1       4.005   5.816  -0.010  0.00  0.00    +0.173 HD
BRANCH  20  31
ATOM     24  C   UNL     1      -1.250   3.137   0.029  0.00  0.00    +0.001 A 
ATOM     25  C   UNL     1      -1.216   1.749   0.001  0.00  0.00    +0.004 A 
ATOM     26  C   UNL     1      -0.013   1.076  -0.023  0.00  0.00    +0.047 A 
ATOM     27  C   UNL     1       1.182   1.788  -0.030  0.00  0.00    +0.139 A 
ATOM     28  C   UNL     1       1.145   3.194  -0.007  0.00  0.00    +0.018 A 
ATOM     29  C   UNL     1      -0.091   3.857   0.023  0.00  0.00    +0.011 A 
ATOM     30  C   UNL     1       2.353   3.936  -0.015  0.00  0.00    +0.031 A 
ATOM     31  C   UNL     1       3.555   3.250  -0.045  0.00  0.00    +0.123 A 
ATOM     32  C   UNL     1       3.531   1.783  -0.068  0.00  0.00    +0.350 A 
ATOM     33  O   UNL     1       4.575   1.159  -0.094  0.00  0.00    -0.244 OA
ATOM     34  O   UNL     1       2.359   1.127  -0.059  0.00  0.00    -0.422 OA
ENDBRANCH  20  31
ENDBRANCH   1  22
TORSDOF 4
