REMARK  Name = ZINC64502922
REMARK  4 active torsions:
REMARK  status: ('A' for Active; 'I' for Inactive)
REMARK    1  A    between atoms: C_1  and  C_2
REMARK    2  A    between atoms: C_5  and  N_8
REMARK    3  A    between atoms: C_13  and  N_16
REMARK    4  A    between atoms: C_23  and  C_25
REMARK                            x       y       z     vdW  Elec       q    Type
REMARK                         _______ _______ _______ _____ _____    ______ ____
ROOT
ATOM      1  N   UNL     1      -0.072  -7.678   2.986  0.00  0.00    -0.281 NA
ATOM      2  C   UNL     1      -0.043  -6.949   4.252  0.00  0.00    +0.088 C 
ATOM      3  C   UNL     1      -0.374  -7.902   5.380  0.00  0.00    +0.034 C 
ATOM      4  C   UNL     1       0.924  -8.496   5.953  0.00  0.00    +0.109 C 
ATOM      5  N   UNL     1       1.889  -8.811   4.881  0.00  0.00    -0.298 N 
ATOM      6  C   UNL     1       1.489  -9.422   3.629  0.00  0.00    +0.123 C 
ATOM      7  C   UNL     1       1.129  -8.321   2.603  0.00  0.00    +0.105 C 
ATOM      8  C   UNL     1       3.190  -8.520   5.074  0.00  0.00    +0.242 C 
ATOM      9  O   UNL     1       3.988  -8.681   4.174  0.00  0.00    -0.273 OA
ENDROOT
BRANCH   8  10
ATOM     10  C   UNL     1       3.655  -7.992   6.407  0.00  0.00    +0.190 C 
ATOM     11  C   UNL     1       3.500  -6.489   6.456  0.00  0.00    +0.016 C 
ATOM     12  C   UNL     1       4.743  -5.990   6.642  0.00  0.00    -0.002 A 
ATOM     13  C   UNL     1       5.255  -4.621   6.772  0.00  0.00    +0.029 A 
ATOM     14  C   UNL     1       6.583  -4.431   6.956  0.00  0.00    +0.042 A 
ATOM     15  C   UNL     1       7.478  -5.509   7.024  0.00  0.00    +0.022 A 
ATOM     16  C   UNL     1       7.082  -6.794   6.913  0.00  0.00    +0.027 A 
ATOM     17  C   UNL     1       5.709  -7.109   6.718  0.00  0.00    +0.043 A 
ATOM     18  N   UNL     1       5.087  -8.257   6.584  0.00  0.00    -0.370 N 
ATOM     19 CL   UNL     1       7.193  -2.813   7.110  0.00  0.00    -0.084 Cl
ATOM     20  H   UNL     1       5.503  -9.133   6.599  0.00  0.00    +0.161 HD
ENDBRANCH   8  10
BRANCH   1  26
ATOM     21  N   UNL     1      -2.424  -5.474   1.345  0.00  0.00    -0.200 N 
ATOM     22  C   UNL     1      -2.471  -5.978   0.096  0.00  0.00    +0.257 C 
ATOM     23  O   UNL     1      -3.058  -5.385  -0.789  0.00  0.00    -0.269 OA
ATOM     24  C   UNL     1      -1.797  -7.262  -0.180  0.00  0.00    +0.068 C 
ATOM     25  C   UNL     1      -0.878  -7.683   0.694  0.00  0.00    +0.014 C 
ATOM     26  C   UNL     1      -0.583  -6.829   1.901  0.00  0.00    +0.166 C 
ATOM     27  N   UNL     1      -1.800  -6.152   2.348  0.00  0.00    -0.212 NA
ATOM     28  H   UNL     1      -2.430  -6.804   2.791  0.00  0.00    +0.147 HD
BRANCH  21  33
ATOM     29  C   UNL     1      -4.836  -0.457   2.434  0.00  0.00    +0.044 C 
ATOM     30  C   UNL     1      -4.195  -1.790   2.145  0.00  0.00    -0.050 A 
ATOM     31  C   UNL     1      -3.346  -1.927   1.062  0.00  0.00    +0.005 A 
ATOM     32  C   UNL     1      -2.757  -3.147   0.794  0.00  0.00    +0.025 A 
ATOM     33  C   UNL     1      -3.018  -4.237   1.614  0.00  0.00    +0.053 A 
ATOM     34  C   UNL     1      -3.871  -4.096   2.701  0.00  0.00    +0.025 A 
ATOM     35  C   UNL     1      -4.453  -2.872   2.966  0.00  0.00    +0.005 A 
ENDBRANCH  21  33
ENDBRANCH   1  26
TORSDOF 3
