REMARK  Name = ZINC20281809
REMARK  10 active torsions:
REMARK  status: ('A' for Active; 'I' for Inactive)
REMARK    1  A    between atoms: C_1  and  C_2
REMARK    2  A    between atoms: C_2  and  C_3
REMARK    3  A    between atoms: C_2  and  O_4
REMARK    4  A    between atoms: O_4  and  C_5
REMARK    5  A    between atoms: C_8  and  C_11
REMARK    6  A    between atoms: C_11  and  C_13
REMARK    7  A    between atoms: N_17  and  C_27
REMARK    8  A    between atoms: C_18  and  C_20
REMARK    9  A    between atoms: C_27  and  C_28
REMARK   10  A    between atoms: C_28  and  N_29
REMARK                            x       y       z     vdW  Elec       q    Type
REMARK                         _______ _______ _______ _____ _____    ______ ____
ROOT
ATOM      1  C   UNL     1      -3.191   1.103  -1.326  0.00  0.00    +0.076 C 
ATOM      2  C   UNL     1      -4.396   1.645  -1.033  0.00  0.00    +0.249 C 
ATOM      3  C   UNL     1      -4.453   1.951   0.412  0.00  0.00    +0.288 C 
ATOM      4  O   UNL     1      -5.404   2.445   0.983  0.00  0.00    -0.266 OA
ATOM      5  N   UNL     1      -3.295   1.601   1.001  0.00  0.00    -0.282 N 
ATOM      6  C   UNL     1      -2.414   1.044  -0.032  0.00  0.00    +0.145 C 
ATOM      7  O   UNL     1      -5.391   1.871  -1.922  0.00  0.00    -0.282 OA
ENDROOT
BRANCH   6   8
ATOM      8  C   UNL     1      -1.159   1.871  -0.143  0.00  0.00    -0.022 A 
ATOM      9  C   UNL     1       0.078   1.254  -0.140  0.00  0.00    +0.007 A 
ATOM     10  C   UNL     1       1.229   2.011  -0.247  0.00  0.00    +0.015 A 
ATOM     11  C   UNL     1       1.143   3.388  -0.353  0.00  0.00    +0.018 A 
ATOM     12  C   UNL     1      -0.094   4.005  -0.351  0.00  0.00    +0.015 A 
ATOM     13  C   UNL     1      -1.245   3.247  -0.244  0.00  0.00    +0.007 A 
ATOM     14 BR   UNL     1       2.718   4.425  -0.501  0.00  0.00    -0.050 Br
ENDBRANCH   6   8
BRANCH   1  15
ATOM     15  C   UNL     1      -2.729   0.659  -2.645  0.00  0.00    +0.195 C 
ATOM     16  O   UNL     1      -2.554   1.472  -3.534  0.00  0.00    -0.287 OA
BRANCH  15  20
ATOM     17  C   UNL     1      -2.004  -3.463  -3.364  0.00  0.00    +0.121 A 
ATOM     18  C   UNL     1      -1.692  -2.524  -4.340  0.00  0.00    +0.046 A 
ATOM     19  C   UNL     1      -1.925  -1.187  -4.112  0.00  0.00    +0.015 A 
ATOM     20  C   UNL     1      -2.477  -0.774  -2.895  0.00  0.00    +0.022 A 
ATOM     21  C   UNL     1      -2.784  -1.721  -1.913  0.00  0.00    +0.015 A 
ATOM     22  C   UNL     1      -2.553  -3.057  -2.153  0.00  0.00    +0.046 A 
BRANCH  17  23
ATOM     23  O   UNL     1      -1.772  -4.780  -3.594  0.00  0.00    -0.489 OA
BRANCH  23  25
ATOM     24  C   UNL     1      -0.507  -6.467  -4.775  0.00  0.00    +0.051 C 
ATOM     25  C   UNL     1      -1.250  -5.133  -4.876  0.00  0.00    +0.167 C 
ATOM     26  C   UNL     1      -2.399  -5.264  -5.877  0.00  0.00    +0.051 C 
ENDBRANCH  23  25
ENDBRANCH  17  23
ENDBRANCH  15  20
ENDBRANCH   1  15
BRANCH   5  27
ATOM     27  C   UNL     1      -2.972   1.748   2.422  0.00  0.00    +0.124 C 
BRANCH  27  28
ATOM     28  C   UNL     1      -2.329   3.117   2.659  0.00  0.00    +0.103 C 
BRANCH  28  29
ATOM     29  N   UNL     1      -2.005   3.265   4.084  0.00  0.00    -0.304 NA
ATOM     30  C   UNL     1      -1.343   2.059   4.602  0.00  0.00    +0.065 C 
ATOM     31  C   UNL     1      -1.095   2.222   6.104  0.00  0.00    -0.067 C 
ATOM     32  N   UNL     1      -0.267   3.414   6.334  0.00  0.00    +0.381 N 
ATOM     33  C   UNL     1      -0.929   4.619   5.816  0.00  0.00    -0.067 C 
ATOM     34  C   UNL     1      -1.177   4.457   4.315  0.00  0.00    +0.065 C 
ATOM     35  H   UNL     1      -0.097   3.539   7.414  0.00  0.00    -0.086 HD
ATOM     36  H   UNL     1       0.700   3.294   5.823  0.00  0.00    -0.086 HD
ENDBRANCH  28  29
ENDBRANCH  27  28
ENDBRANCH   5  27
TORSDOF 8
