REMARK  Name = ZINC33932205
REMARK  6 active torsions:
REMARK  status: ('A' for Active; 'I' for Inactive)
REMARK    1  A    between atoms: C_1  and  C_2
REMARK    2  A    between atoms: C_2  and  C_32
REMARK    3  A    between atoms: C_3  and  N_29
REMARK    4  A    between atoms: C_5  and  C_22
REMARK    5  A    between atoms: C_8  and  C_15
REMARK    6  A    between atoms: C_10  and  N_12
REMARK                            x       y       z     vdW  Elec       q    Type
REMARK                         _______ _______ _______ _____ _____    ______ ____
ROOT
ATOM      1  C   UNL     1       1.238   1.870   1.020  0.00  0.00    +0.015 C 
ATOM      2  C   UNL     1       0.269   0.813   0.485  0.00  0.00    +0.023 C 
ATOM      3  C   UNL     1       0.392   0.731  -1.039  0.00  0.00    +0.199 C 
ATOM      4  C   UNL     1       1.810   0.292  -1.409  0.00  0.00    +0.115 C 
ATOM      5  N   UNL     1       2.092  -1.017  -0.806  0.00  0.00    -0.299 NA
ATOM      6  C   UNL     1       2.027  -0.952   0.659  0.00  0.00    +0.115 C 
ATOM      7  C   UNL     1       0.615  -0.550   1.091  0.00  0.00    +0.199 C 
ATOM      8  C   UNL     1      -1.163   1.193   0.865  0.00  0.00    +0.015 C 
ATOM      9  H   UNL     1       1.466  -1.722  -1.165  0.00  0.00    +0.123 HD
ENDROOT
BRANCH   6  10
ATOM     10  C   UNL     1       2.364  -2.302   1.237  0.00  0.00    -0.027 A 
ATOM     11  C   UNL     1       2.273  -3.434   0.448  0.00  0.00    +0.005 A 
ATOM     12  C   UNL     1       2.582  -4.673   0.978  0.00  0.00    +0.001 A 
ATOM     13  C   UNL     1       2.981  -4.781   2.297  0.00  0.00    +0.015 A 
ATOM     14  C   UNL     1       3.072  -3.649   3.087  0.00  0.00    +0.018 A 
ATOM     15  C   UNL     1       2.768  -2.409   2.555  0.00  0.00    +0.020 A 
ATOM     16 BR   UNL     1       3.617  -3.796   4.891  0.00  0.00    -0.050 Br
ENDBRANCH   6  10
BRANCH   4  17
ATOM     17  C   UNL     1       1.930   0.191  -2.908  0.00  0.00    -0.027 A 
ATOM     18  C   UNL     1       2.035  -1.049  -3.510  0.00  0.00    +0.005 A 
ATOM     19  C   UNL     1       2.145  -1.143  -4.885  0.00  0.00    +0.001 A 
ATOM     20  C   UNL     1       2.149   0.003  -5.658  0.00  0.00    +0.015 A 
ATOM     21  C   UNL     1       2.042   1.244  -5.056  0.00  0.00    +0.018 A 
ATOM     22  C   UNL     1       1.928   1.337  -3.680  0.00  0.00    +0.020 A 
ATOM     23 BR   UNL     1       2.048   2.812  -6.113  0.00  0.00    -0.050 Br
ENDBRANCH   4  17
BRANCH   7  24
ATOM     24  N   UNL     1      -0.344  -1.552   0.620  0.00  0.00    +0.028 N 
ATOM     25  O   UNL     1      -0.073  -2.249  -0.330  0.00  0.00    -0.131 OA
ATOM     26  O   UNL     1      -1.407  -1.682   1.181  0.00  0.00    -0.131 OA
ENDBRANCH   7  24
BRANCH   3  27
ATOM     27  N   UNL     1      -0.573  -0.243  -1.555  0.00  0.00    +0.028 N 
ATOM     28  O   UNL     1      -1.706  -0.253  -1.135  0.00  0.00    -0.131 OA
ATOM     29  O   UNL     1      -0.235  -1.038  -2.402  0.00  0.00    -0.131 OA
ENDBRANCH   3  27
TORSDOF 4
