REMARK  Name = ZINC58914991
REMARK  13 active torsions:
REMARK  status: ('A' for Active; 'I' for Inactive)
REMARK    1  A    between atoms: C_1  and  C_2
REMARK    2  A    between atoms: C_5  and  N_8
REMARK    3  A    between atoms: N_8  and  C_9
REMARK    4  A    between atoms: N_8  and  S_30
REMARK    5  A    between atoms: C_9  and  C_10
REMARK    6  A    between atoms: N_12  and  N_13
REMARK    7  A    between atoms: C_14  and  C_15
REMARK    8  A    between atoms: C_17  and  C_29
REMARK    9  A    between atoms: N_18  and  C_21
REMARK   10  A    between atoms: C_19  and  C_20
REMARK   11  A    between atoms: C_22  and  C_28
REMARK   12  A    between atoms: C_26  and  C_27
REMARK   13  A    between atoms: S_30  and  C_33
REMARK                            x       y       z     vdW  Elec       q    Type
REMARK                         _______ _______ _______ _____ _____    ______ ____
ROOT
ATOM      1  C   UNL     1       2.235  -4.717  -0.943  0.00  0.00    +0.251 C 
ATOM      2  O   UNL     1       2.680  -4.098   0.001  0.00  0.00    -0.272 OA
ATOM      3  N   UNL     1       3.073  -5.277  -1.837  0.00  0.00    -0.206 N 
ATOM      4  H   UNL     1       2.717  -5.772  -2.591  0.00  0.00    +0.177 HD
ENDROOT
BRANCH   3   5
ATOM      5  N   UNL     1       4.458  -5.145  -1.677  0.00  0.00    -0.188 NA
ATOM      6  C   UNL     1       5.266  -5.684  -2.539  0.00  0.00    +0.140 C 
BRANCH   6   7
ATOM      7  C   UNL     1       6.723  -5.545  -2.370  0.00  0.00    +0.016 A 
ATOM      8  C   UNL     1       7.766  -6.083  -3.250  0.00  0.00    +0.032 A 
ATOM      9  C   UNL     1       8.945  -5.716  -2.717  0.00  0.00    +0.022 A 
ATOM     10  N   UNL     1       8.712  -4.995  -1.581  0.00  0.00    -0.317 N 
ATOM     11  C   UNL     1       7.373  -4.883  -1.368  0.00  0.00    +0.030 A 
ATOM     12  C   UNL     1       6.719  -4.156  -0.221  0.00  0.00    +0.064 C 
ATOM     13  C   UNL     1      10.303  -6.047  -3.282  0.00  0.00    +0.064 C 
BRANCH  10  14
ATOM     14  C   UNL     1       9.705  -4.447  -0.758  0.00  0.00    +0.052 A 
ATOM     15  C   UNL     1      10.226  -5.189   0.293  0.00  0.00    -0.026 A 
ATOM     16  C   UNL     1      11.205  -4.646   1.102  0.00  0.00    +0.005 A 
ATOM     17  C   UNL     1      11.667  -3.364   0.865  0.00  0.00    +0.001 A 
ATOM     18  C   UNL     1      11.150  -2.622  -0.181  0.00  0.00    +0.005 A 
ATOM     19  C   UNL     1      10.175  -3.162  -0.997  0.00  0.00    -0.026 A 
ATOM     20  C   UNL     1       9.617  -2.355  -2.141  0.00  0.00    +0.046 C 
ATOM     21  C   UNL     1       9.723  -6.585   0.552  0.00  0.00    +0.046 C 
ENDBRANCH  10  14
ENDBRANCH   6   7
ENDBRANCH   3   5
BRANCH   1  22
ATOM     22  C   UNL     1       0.744  -4.860  -1.115  0.00  0.00    +0.228 C 
BRANCH  22  23
ATOM     23  N   UNL     1       0.058  -4.167  -0.021  0.00  0.00    -0.194 N 
BRANCH  23  28
ATOM     24  C   UNL     1      -0.980   1.395  -0.394  0.00  0.00    +0.044 C 
ATOM     25  C   UNL     1      -0.704  -0.083  -0.295  0.00  0.00    -0.050 A 
ATOM     26  C   UNL     1      -1.242  -0.950  -1.229  0.00  0.00    +0.005 A 
ATOM     27  C   UNL     1      -0.991  -2.305  -1.141  0.00  0.00    +0.025 A 
ATOM     28  C   UNL     1      -0.197  -2.797  -0.113  0.00  0.00    +0.052 A 
ATOM     29  C   UNL     1       0.341  -1.924   0.823  0.00  0.00    +0.025 A 
ATOM     30  C   UNL     1       0.091  -0.570   0.726  0.00  0.00    +0.005 A 
ENDBRANCH  23  28
BRANCH  23  31
ATOM     31  S   UNL     1      -0.415  -5.009   1.325  0.00  0.00    +0.075 S 
ATOM     32  O   UNL     1       0.406  -6.168   1.388  0.00  0.00    -0.150 OA
ATOM     33  O   UNL     1      -0.488  -4.069   2.387  0.00  0.00    -0.150 OA
BRANCH  31  34
ATOM     34  C   UNL     1      -2.059  -5.572   1.036  0.00  0.00    +0.109 A 
ATOM     35  C   UNL     1      -3.134  -4.781   1.398  0.00  0.00    +0.029 A 
ATOM     36  C   UNL     1      -4.424  -5.222   1.172  0.00  0.00    +0.002 A 
ATOM     37  C   UNL     1      -4.640  -6.454   0.583  0.00  0.00    +0.000 A 
ATOM     38  C   UNL     1      -3.566  -7.244   0.220  0.00  0.00    +0.002 A 
ATOM     39  C   UNL     1      -2.275  -6.801   0.442  0.00  0.00    +0.029 A 
ENDBRANCH  31  34
ENDBRANCH  23  31
ENDBRANCH  22  23
ENDBRANCH   1  22
TORSDOF 8
