REMARK  Name = ZINC12140157
REMARK  11 active torsions:
REMARK  status: ('A' for Active; 'I' for Inactive)
REMARK    1  A    between atoms: C_1  and  C_2
REMARK    2  A    between atoms: C_2  and  O_3
REMARK    3  A    between atoms: O_3  and  C_4
REMARK    4  A    between atoms: C_4  and  C_6
REMARK    5  A    between atoms: C_11  and  C_12
REMARK    6  A    between atoms: C_11  and  N_71
REMARK    7  A    between atoms: C_12  and  C_14
REMARK    8  A    between atoms: C_12  and  O_32
REMARK    9  A    between atoms: C_14  and  O_15
REMARK   10  A    between atoms: O_15  and  C_16
REMARK   11  A    between atoms: C_19  and  C_22
REMARK                            x       y       z     vdW  Elec       q    Type
REMARK                         _______ _______ _______ _____ _____    ______ ____
ROOT
ATOM      1  C   UNL     1      -1.004   5.560   9.002  0.00  0.00    +0.258 C 
ENDROOT
BRANCH   1   2
ATOM      2  C   UNL     1      -0.742   5.080   7.573  0.00  0.00    +0.135 C 
BRANCH   2   3
ATOM      3  O   UNL     1      -1.535   5.842   6.661  0.00  0.00    -0.390 OA
ATOM      4  H   UNL     1      -2.487   5.774   6.815  0.00  0.00    +0.210 HD
ENDBRANCH   2   3
BRANCH   2   5
ATOM      5  C   UNL     1      -1.113   3.600   7.457  0.00  0.00    -0.044 C 
BRANCH   5  11
ATOM      6  C   UNL     1       0.185   1.289   4.101  0.00  0.00    +0.094 C 
ATOM      7  C   UNL     1      -1.313   1.510   4.331  0.00  0.00    -0.004 C 
ATOM      8  C   UNL     1      -1.549   1.896   5.793  0.00  0.00    -0.078 C 
ATOM      9  C   UNL     1       0.643   2.920   5.935  0.00  0.00    -0.078 C 
ATOM     10  C   UNL     1       0.944   2.564   4.478  0.00  0.00    -0.004 C 
ATOM     11  N   UNL     1      -0.811   3.144   6.084  0.00  0.00    +0.381 N 
ATOM     12  H   UNL     1      -1.106   3.868   5.420  0.00  0.00    -0.082 HD
BRANCH   6  13
ATOM     13  C   UNL     1       0.429   0.967   2.650  0.00  0.00    +0.310 C 
ATOM     14  O   UNL     1       1.139   1.683   1.983  0.00  0.00    -0.251 OA
BRANCH  13  15
ATOM     15  O   UNL     1      -0.140  -0.115   2.097  0.00  0.00    -0.465 OA
BRANCH  15  17
ATOM     16  C   UNL     1      -0.591  -1.631   0.245  0.00  0.00    +0.048 C 
ATOM     17  C   UNL     1       0.140  -0.364   0.694  0.00  0.00    +0.229 C 
ENDBRANCH  15  17
ENDBRANCH  13  15
ENDBRANCH   6  13
ENDBRANCH   5  11
ENDBRANCH   2   5
ENDBRANCH   1   2
BRANCH   1  18
ATOM     18  O   UNL     1      -0.550   6.908   9.142  0.00  0.00    -0.489 OA
BRANCH  18  19
ATOM     19  C   UNL     1      -0.710   7.489  10.360  0.00  0.00    +0.121 A 
ATOM     20  C   UNL     1      -1.297   6.779  11.397  0.00  0.00    +0.046 A 
ATOM     21  C   UNL     1      -1.454   7.371  12.636  0.00  0.00    +0.008 A 
ATOM     22  C   UNL     1      -1.035   8.673  12.839  0.00  0.00    -0.041 A 
ATOM     23  C   UNL     1      -0.455   9.385  11.805  0.00  0.00    +0.008 A 
ATOM     24  C   UNL     1      -0.292   8.796  10.566  0.00  0.00    +0.046 A 
BRANCH  22  25
ATOM     25  C   UNL     1      -1.212   9.318  14.189  0.00  0.00    -0.003 C 
ATOM     26  C   UNL     1      -2.098  10.558  14.050  0.00  0.00    +0.015 C 
ATOM     27  C   UNL     1      -2.278  11.212  15.421  0.00  0.00    -0.010 C 
ATOM     28  C   UNL     1      -2.939  10.218  16.378  0.00  0.00    +0.007 C 
ATOM     29  C   UNL     1      -2.053   8.979  16.518  0.00  0.00    -0.010 C 
ATOM     30  C   UNL     1      -1.873   8.324  15.146  0.00  0.00    +0.015 C 
ATOM     31  C   UNL     1      -0.686   9.388  17.071  0.00  0.00    +0.007 C 
ATOM     32  C   UNL     1      -0.026  10.382  16.113  0.00  0.00    -0.010 C 
ATOM     33  C   UNL     1      -0.911  11.621  15.975  0.00  0.00    +0.007 C 
ATOM     34  C   UNL     1       0.154   9.727  14.742  0.00  0.00    +0.015 C 
ENDBRANCH  22  25
ENDBRANCH  18  19
ENDBRANCH   1  18
TORSDOF 10
