REMARK  Name = ZINC12879146
REMARK  5 active torsions:
REMARK  status: ('A' for Active; 'I' for Inactive)
REMARK    1  A    between atoms: C_1  and  C_2
REMARK    2  A    between atoms: C_17  and  C_19
REMARK    3  A    between atoms: C_19  and  C_20
REMARK    4  A    between atoms: N_25  and  C_28
REMARK    5  A    between atoms: C_31  and  C_34
REMARK                            x       y       z     vdW  Elec       q    Type
REMARK                         _______ _______ _______ _____ _____    ______ ____
ROOT
ATOM      1  C   UNL     1      -1.299  -0.748   0.153  0.00  0.00    +0.044 C 
ATOM      2  C   UNL     1      -0.050   0.078   0.329  0.00  0.00    -0.049 A 
ATOM      3  C   UNL     1      -0.108   1.456   0.215  0.00  0.00    +0.008 A 
ATOM      4  C   UNL     1       1.033   2.209   0.375  0.00  0.00    -0.026 A 
ATOM      5  C   UNL     1       2.253   1.599   0.652  0.00  0.00    +0.054 A 
ATOM      6  C   UNL     1       2.303   0.211   0.766  0.00  0.00    +0.063 A 
ATOM      7  C   UNL     1       1.156  -0.540   0.605  0.00  0.00    +0.025 A 
ATOM      8 CL   UNL     1       3.811  -0.575   1.113  0.00  0.00    -0.082 Cl
ATOM      9  N   UNL     1       3.259   2.562   0.769  0.00  0.00    -0.285 N 
ATOM     10  C   UNL     1       2.790   3.811   0.583  0.00  0.00    +0.211 C 
ATOM     11  O   UNL     1       3.433   4.839   0.622  0.00  0.00    -0.277 OA
ATOM     12  C   UNL     1       1.315   3.684   0.316  0.00  0.00    +0.050 C 
ATOM     13  C   UNL     1       0.937   4.275  -1.047  0.00  0.00    +0.088 C 
ATOM     14  C   UNL     1      -0.464   4.910  -0.823  0.00  0.00    +0.074 C 
ATOM     15  C   UNL     1      -0.796   4.627   0.657  0.00  0.00    -0.049 C 
ATOM     16  C   UNL     1      -0.211   6.389  -1.006  0.00  0.00    +0.228 C 
ATOM     17  O   UNL     1      -1.048   7.260  -0.907  0.00  0.00    -0.275 OA
ATOM     18  N   UNL     1       1.080   6.586  -1.295  0.00  0.00    -0.210 N 
ATOM     19  C   UNL     1       1.816   5.470  -1.345  0.00  0.00    +0.229 C 
ATOM     20  O   UNL     1       3.002   5.423  -1.589  0.00  0.00    -0.275 OA
ATOM     21  H   UNL     1       4.186   2.355   0.962  0.00  0.00    +0.155 HD
ATOM     22  N   UNL     1       0.513   4.416   1.281  0.00  0.00    +0.394 N 
ATOM     23  H   UNL     1       0.953   5.319   1.496  0.00  0.00    -0.083 HD
ATOM     24  H   UNL     1       0.410   3.871   2.145  0.00  0.00    -0.083 HD
ENDROOT
BRANCH  18  25
ATOM     25  C   UNL     1       1.617   7.856  -1.527  0.00  0.00    +0.044 A 
ATOM     26  C   UNL     1       2.080   8.193  -2.794  0.00  0.00    +0.025 A 
ATOM     27  C   UNL     1       2.604   9.445  -3.028  0.00  0.00    +0.015 A 
ATOM     28  C   UNL     1       2.682  10.373  -1.986  0.00  0.00    +0.037 A 
ATOM     29  C   UNL     1       2.221  10.029  -0.713  0.00  0.00    +0.015 A 
ATOM     30  C   UNL     1       1.693   8.777  -0.488  0.00  0.00    +0.025 A 
BRANCH  28  31
ATOM     31  C   UNL     1       3.249  11.714  -2.231  0.00  0.00    +0.242 C 
ATOM     32  O   UNL     1       3.316  12.521  -1.323  0.00  0.00    -0.270 OA
ATOM     33  N   UNL     1       3.693  12.044  -3.460  0.00  0.00    -0.325 N 
ATOM     34  H   UNL     1       3.639  11.401  -4.184  0.00  0.00    +0.145 HD
ATOM     35  H   UNL     1       4.065  12.925  -3.620  0.00  0.00    +0.145 HD
ENDBRANCH  28  31
ENDBRANCH  18  25
BRANCH  15  36
ATOM     36  C   UNL     1      -1.523   5.822   1.277  0.00  0.00    +0.080 C 
BRANCH  36  37
ATOM     37  C   UNL     1      -1.880   5.506   2.707  0.00  0.00    +0.209 C 
ATOM     38  O   UNL     1      -1.581   4.431   3.183  0.00  0.00    -0.276 OA
ATOM     39  N   UNL     1      -2.530   6.418   3.457  0.00  0.00    -0.329 N 
ATOM     40  H   UNL     1      -2.769   7.277   3.076  0.00  0.00    +0.145 HD
ATOM     41  H   UNL     1      -2.760   6.215   4.377  0.00  0.00    +0.145 HD
ENDBRANCH  36  37
ENDBRANCH  15  36
TORSDOF 4
