REMARK  Name = ZINC58912083
REMARK  13 active torsions:
REMARK  status: ('A' for Active; 'I' for Inactive)
REMARK    1  A    between atoms: C_1  and  C_2
REMARK    2  A    between atoms: C_4  and  C_16
REMARK    3  A    between atoms: C_5  and  C_15
REMARK    4  A    between atoms: N_6  and  C_7
REMARK    5  A    between atoms: N_17  and  N_18
REMARK    6  A    between atoms: C_19  and  C_21
REMARK    7  A    between atoms: N_23  and  C_24
REMARK    8  A    between atoms: C_24  and  C_25
REMARK    9  A    between atoms: C_25  and  C_26
REMARK   10  A    between atoms: C_29  and  O_34
REMARK   11  A    between atoms: C_30  and  O_32
REMARK   12  A    between atoms: O_32  and  C_33
REMARK   13  A    between atoms: O_34  and  C_35
REMARK                            x       y       z     vdW  Elec       q    Type
REMARK                         _______ _______ _______ _____ _____    ______ ____
ROOT
ATOM      1  N   UNL     1       0.071  -5.711  -1.694  0.00  0.00    -0.199 N 
ATOM      2  C   UNL     1       0.090  -6.927  -1.114  0.00  0.00    +0.318 C 
ATOM      3  O   UNL     1       0.096  -7.022   0.097  0.00  0.00    -0.263 OA
ATOM      4  H   UNL     1       0.066  -5.636  -2.662  0.00  0.00    +0.178 HD
ENDROOT
BRANCH   2   5
ATOM      5  C   UNL     1       0.102  -8.157  -1.958  0.00  0.00    +0.301 C 
ATOM      6  O   UNL     1       0.096  -8.062  -3.168  0.00  0.00    -0.265 OA
ATOM      7  N   UNL     1       0.121  -9.373  -1.377  0.00  0.00    -0.307 N 
ATOM      8  H   UNL     1       0.126  -9.448  -0.410  0.00  0.00    +0.149 HD
BRANCH   7   9
ATOM      9  C   UNL     1       0.134 -10.580  -2.206  0.00  0.00    +0.109 C 
BRANCH   9  10
ATOM     10  C   UNL     1       0.154 -11.817  -1.306  0.00  0.00    +0.054 C 
BRANCH  10  11
ATOM     11  C   UNL     1       0.167 -13.059  -2.159  0.00  0.00    -0.042 A 
ATOM     12  C   UNL     1      -1.026 -13.641  -2.549  0.00  0.00    +0.007 A 
ATOM     13  C   UNL     1      -1.019 -14.780  -3.332  0.00  0.00    +0.049 A 
ATOM     14  C   UNL     1       0.184 -15.342  -3.727  0.00  0.00    +0.161 A 
ATOM     15  C   UNL     1       1.384 -14.757  -3.334  0.00  0.00    +0.162 A 
ATOM     16  C   UNL     1       1.370 -13.612  -2.554  0.00  0.00    +0.053 A 
BRANCH  15  17
ATOM     17  O   UNL     1       2.567 -15.305  -3.720  0.00  0.00    -0.491 OA
ATOM     18  C   UNL     1       3.759 -14.651  -3.280  0.00  0.00    +0.277 C 
ENDBRANCH  15  17
BRANCH  14  19
ATOM     19  O   UNL     1       0.192 -16.464  -4.496  0.00  0.00    -0.491 OA
ATOM     20  C   UNL     1      -1.077 -17.010  -4.861  0.00  0.00    +0.277 C 
ENDBRANCH  14  19
ENDBRANCH  10  11
ENDBRANCH   9  10
ENDBRANCH   7   9
ENDBRANCH   2   5
BRANCH   1  22
ATOM     21  C   UNL     1       0.042  -3.384  -1.462  0.00  0.00    +0.140 C 
ATOM     22  N   UNL     1       0.059  -4.556  -0.901  0.00  0.00    -0.187 NA
BRANCH  21  26
ATOM     23  C   UNL     1      -0.018   1.503   0.010  0.00  0.00    +0.064 C 
ATOM     24  C   UNL     1       0.002  -0.004   0.002  0.00  0.00    +0.022 A 
ATOM     25  C   UNL     1       0.008  -0.780  -1.097  0.00  0.00    +0.032 A 
ATOM     26  C   UNL     1       0.029  -2.170  -0.628  0.00  0.00    +0.016 A 
ATOM     27  C   UNL     1       0.034  -2.112   0.738  0.00  0.00    +0.030 A 
ATOM     28  N   UNL     1       0.024  -0.804   1.109  0.00  0.00    -0.317 N 
ATOM     29  C   UNL     1       0.054  -3.295   1.671  0.00  0.00    +0.064 C 
BRANCH  28  30
ATOM     30  C   UNL     1       0.030  -0.344   2.433  0.00  0.00    +0.048 A 
ATOM     31  C   UNL     1       1.133  -0.576   3.244  0.00  0.00    +0.027 A 
ATOM     32  C   UNL     1       1.139  -0.122   4.548  0.00  0.00    +0.023 A 
ATOM     33  C   UNL     1       0.045   0.564   5.048  0.00  0.00    +0.059 A 
ATOM     34  C   UNL     1      -1.056   0.796   4.242  0.00  0.00    +0.061 A 
ATOM     35  C   UNL     1      -1.063   0.348   2.934  0.00  0.00    +0.047 A 
ATOM     36 CL   UNL     1      -2.427   1.656   4.872  0.00  0.00    -0.082 Cl
ATOM     37 CL   UNL     1       0.055   1.133   6.688  0.00  0.00    -0.082 Cl
ENDBRANCH  28  30
ENDBRANCH  21  26
ENDBRANCH   1  22
TORSDOF 9
