REMARK  Name = ZINC11634243
REMARK  10 active torsions:
REMARK  status: ('A' for Active; 'I' for Inactive)
REMARK    1  A    between atoms: C_1  and  C_2
REMARK    2  A    between atoms: C_2  and  N_3
REMARK    3  A    between atoms: C_7  and  C_33
REMARK    4  A    between atoms: N_12  and  C_13
REMARK    5  A    between atoms: C_13  and  C_15
REMARK    6  A    between atoms: C_18  and  S_21
REMARK    7  A    between atoms: S_21  and  N_24
REMARK    8  A    between atoms: N_24  and  C_25
REMARK    9  A    between atoms: N_24  and  C_26
REMARK   10  A    between atoms: C_26  and  C_27
REMARK                            x       y       z     vdW  Elec       q    Type
REMARK                         _______ _______ _______ _____ _____    ______ ____
ROOT
ATOM      1  C   UNL     1       2.274   2.544  -5.060  0.00  0.00    +0.039 A 
ATOM      2  C   UNL     1       1.226   3.310  -5.572  0.00  0.00    +0.015 A 
ATOM      3  C   UNL     1       0.565   4.203  -4.755  0.00  0.00    +0.029 A 
ATOM      4  C   UNL     1       0.939   4.341  -3.430  0.00  0.00    +0.106 A 
ATOM      5  C   UNL     1       1.981   3.588  -2.918  0.00  0.00    +0.029 A 
ATOM      6  C   UNL     1       2.646   2.687  -3.724  0.00  0.00    +0.015 A 
ENDROOT
BRANCH   4   7
ATOM      7  S   UNL     1       0.090   5.484  -2.392  0.00  0.00    +0.061 S 
ATOM      8  O   UNL     1      -0.384   6.524  -3.237  0.00  0.00    -0.153 OA
ATOM      9  O   UNL     1       0.941   5.733  -1.282  0.00  0.00    -0.153 OA
BRANCH   7  10
ATOM     10  N   UNL     1      -1.247   4.708  -1.800  0.00  0.00    -0.175 NA
ATOM     11  C   UNL     1      -1.188   4.035  -0.500  0.00  0.00    +0.132 C 
BRANCH  10  12
ATOM     12  C   UNL     1      -2.490   4.695  -2.575  0.00  0.00    +0.144 C 
BRANCH  12  13
ATOM     13  C   UNL     1      -3.425   5.751  -2.045  0.00  0.00    -0.032 A 
ATOM     14  C   UNL     1      -3.360   7.041  -2.538  0.00  0.00    +0.005 A 
ATOM     15  C   UNL     1      -4.218   8.010  -2.052  0.00  0.00    +0.000 A 
ATOM     16  C   UNL     1      -5.140   7.690  -1.073  0.00  0.00    +0.000 A 
ATOM     17  C   UNL     1      -5.200   6.401  -0.576  0.00  0.00    +0.000 A 
ATOM     18  C   UNL     1      -4.346   5.431  -1.066  0.00  0.00    +0.005 A 
ENDBRANCH  12  13
ENDBRANCH  10  12
ENDBRANCH   7  10
ENDBRANCH   4   7
BRANCH   1  19
ATOM     19  C   UNL     1       2.988   1.584  -5.933  0.00  0.00    +0.269 C 
ATOM     20  O   UNL     1       2.661   1.461  -7.100  0.00  0.00    -0.268 OA
BRANCH  19  30
ATOM     21  N   UNL     1       5.667  -0.833  -5.901  0.00  0.00    -0.321 N 
ATOM     22  C   UNL     1       6.210  -1.670  -6.859  0.00  0.00    +0.058 A 
ATOM     23  C   UNL     1       7.269  -2.580  -6.720  0.00  0.00    +0.027 A 
ATOM     24  C   UNL     1       7.686  -3.341  -7.786  0.00  0.00    +0.005 A 
ATOM     25  C   UNL     1       7.077  -3.236  -9.026  0.00  0.00    -0.049 A 
ATOM     26  C   UNL     1       6.030  -2.346  -9.191  0.00  0.00    +0.020 A 
ATOM     27  C   UNL     1       5.613  -1.584  -8.125  0.00  0.00    +0.039 A 
ATOM     28  S   UNL     1       4.346  -0.362  -7.896  0.00  0.00    -0.052 S 
ATOM     29  C   UNL     1       4.633  -0.011  -6.222  0.00  0.00    +0.167 A 
ATOM     30  N   UNL     1       3.992   0.851  -5.439  0.00  0.00    -0.152 NA
ATOM     31  C   UNL     1       7.549  -4.079 -10.182  0.00  0.00    +0.044 C 
BRANCH  21  33
ATOM     32  C   UNL     1       6.188   0.593  -3.983  0.00  0.00    +0.027 C 
ATOM     33  C   UNL     1       6.207  -0.833  -4.539  0.00  0.00    +0.121 C 
ENDBRANCH  21  33
ENDBRANCH  19  30
ENDBRANCH   1  19
TORSDOF 7
