REMARK  Name = ZINC08213977
REMARK  7 active torsions:
REMARK  status: ('A' for Active; 'I' for Inactive)
REMARK    1  A    between atoms: C_1  and  C_2
REMARK    2  A    between atoms: C_2  and  C_4
REMARK    3  A    between atoms: C_2  and  N_57
REMARK    4  A    between atoms: C_11  and  C_13
REMARK    5  A    between atoms: C_11  and  C_14
REMARK    6  A    between atoms: C_11  and  N_57
REMARK    7  A    between atoms: N_19  and  C_20
REMARK                            x       y       z     vdW  Elec       q    Type
REMARK                         _______ _______ _______ _____ _____    ______ ____
ROOT
ATOM      1  C   UNL     1      -1.164  -4.756  -1.179  0.00  0.00    +0.206 C 
ATOM      2  O   UNL     1      -2.160  -4.208  -0.758  0.00  0.00    -0.277 OA
ATOM      3  N   UNL     1      -1.239  -6.012  -1.661  0.00  0.00    -0.242 N 
ATOM      4  C   UNL     1      -2.421  -6.660  -1.674  0.00  0.00    +0.306 C 
ATOM      5  O   UNL     1      -3.419  -6.111  -1.251  0.00  0.00    -0.252 OA
ATOM      6  N   UNL     1      -2.495  -7.917  -2.156  0.00  0.00    -0.294 N 
ATOM      7  H   UNL     1      -0.442  -6.451  -1.998  0.00  0.00    +0.159 HD
ATOM      8  H   UNL     1      -1.698  -8.355  -2.493  0.00  0.00    +0.151 HD
ENDROOT
BRANCH   6   9
ATOM      9  C   UNL     1      -3.780  -8.621  -2.170  0.00  0.00    +0.037 C 
ATOM     10  C   UNL     1      -4.311  -8.741  -0.740  0.00  0.00    +0.029 C 
ATOM     11  C   UNL     1      -5.653  -9.476  -0.755  0.00  0.00    -0.008 C 
ATOM     12  C   UNL     1      -5.462 -10.874  -1.347  0.00  0.00    +0.007 C 
ATOM     13  C   UNL     1      -4.931 -10.754  -2.776  0.00  0.00    -0.008 C 
ATOM     14  C   UNL     1      -3.589 -10.018  -2.762  0.00  0.00    +0.029 C 
ATOM     15  C   UNL     1      -5.932  -9.971  -3.629  0.00  0.00    +0.007 C 
ATOM     16  C   UNL     1      -6.123  -8.573  -3.037  0.00  0.00    -0.008 C 
ATOM     17  C   UNL     1      -6.654  -8.693  -1.607  0.00  0.00    +0.007 C 
ATOM     18  C   UNL     1      -4.781  -7.838  -3.022  0.00  0.00    +0.029 C 
ENDBRANCH   6   9
BRANCH   1  19
ATOM     19  C   UNL     1       0.158  -4.032  -1.165  0.00  0.00    +0.014 C 
ATOM     20  C   UNL     1       0.689  -3.912  -2.595  0.00  0.00    -0.004 C 
BRANCH  19  21
ATOM     21  N   UNL     1      -0.035  -2.684  -0.597  0.00  0.00    +0.391 N 
ATOM     22  H   UNL     1      -0.345  -2.045  -1.338  0.00  0.00    -0.084 HD
ATOM     23  H   UNL     1      -0.749  -2.726   0.140  0.00  0.00    -0.084 HD
BRANCH  21  25
ATOM     24  C   UNL     1       1.375  -2.701   1.412  0.00  0.00    -0.009 C 
ATOM     25  C   UNL     1       1.228  -2.186  -0.021  0.00  0.00    -0.042 C 
BRANCH  25  26
ATOM     26  C   UNL     1       1.208  -0.679  -0.013  0.00  0.00    -0.043 A 
ATOM     27  C   UNL     1       0.002  -0.004   0.002  0.00  0.00    +0.003 A 
ATOM     28  C   UNL     1      -0.017   1.378   0.010  0.00  0.00    +0.000 A 
ATOM     29  C   UNL     1       1.171   2.086   0.002  0.00  0.00    +0.001 A 
ATOM     30  C   UNL     1       2.377   1.412  -0.013  0.00  0.00    +0.020 A 
ATOM     31  C   UNL     1       2.397   0.029  -0.021  0.00  0.00    +0.043 A 
ATOM     32 CL   UNL     1       3.912  -0.818  -0.039  0.00  0.00    -0.083 Cl
ENDBRANCH  25  26
ENDBRANCH  21  25
ENDBRANCH  19  21
ENDBRANCH   1  19
TORSDOF 5
