REMARK  Name = ZINC11416085
REMARK  8 active torsions:
REMARK  status: ('A' for Active; 'I' for Inactive)
REMARK    1  A    between atoms: C_1  and  C_2
REMARK    2  A    between atoms: C_2  and  C_4
REMARK    3  A    between atoms: C_2  and  N_58
REMARK    4  A    between atoms: C_7  and  S_16
REMARK    5  A    between atoms: N_8  and  C_9
REMARK    6  A    between atoms: S_16  and  C_17
REMARK    7  A    between atoms: C_17  and  C_18
REMARK    8  A    between atoms: C_21  and  C_23
REMARK                            x       y       z     vdW  Elec       q    Type
REMARK                         _______ _______ _______ _____ _____    ______ ____
ROOT
ATOM      1  C   UNL     1       6.416  10.983  -1.674  0.00  0.00    +0.125 A 
ATOM      2  N   UNL     1       6.302  10.711  -0.405  0.00  0.00    -0.135 NA
ATOM      3  N   UNL     1       5.755   9.558  -0.247  0.00  0.00    -0.122 NA
ATOM      4  C   UNL     1       5.496   9.022  -1.417  0.00  0.00    +0.197 A 
ATOM      5  N   UNL     1       5.906   9.917  -2.367  0.00  0.00    -0.275 N 
ENDROOT
BRANCH   5   6
ATOM      6  C   UNL     1       5.822   9.773  -3.760  0.00  0.00    +0.050 A 
ATOM      7  C   UNL     1       6.981   9.700  -4.522  0.00  0.00    +0.029 A 
ATOM      8  C   UNL     1       6.896   9.553  -5.893  0.00  0.00    +0.040 A 
ATOM      9  C   UNL     1       5.657   9.489  -6.508  0.00  0.00    +0.124 A 
ATOM     10  C   UNL     1       4.501   9.567  -5.750  0.00  0.00    +0.040 A 
ATOM     11  C   UNL     1       4.582   9.709  -4.379  0.00  0.00    +0.029 A 
ATOM     12  F   UNL     1       5.577   9.350  -7.850  0.00  0.00    -0.205 F 
ENDBRANCH   5   6
BRANCH   1  14
ATOM     13  C   UNL     1       8.524  12.201  -2.142  0.00  0.00    -0.005 C 
ATOM     14  C   UNL     1       7.000  12.238  -2.269  0.00  0.00    -0.002 C 
BRANCH  14  20
ATOM     15  C   UNL     1       5.009  13.423  -1.570  0.00  0.00    -0.078 C 
ATOM     16  C   UNL     1       4.498  14.571  -0.695  0.00  0.00    -0.019 C 
ATOM     17  C   UNL     1       5.046  15.897  -1.231  0.00  0.00    -0.004 C 
ATOM     18  C   UNL     1       6.576  15.838  -1.249  0.00  0.00    -0.019 C 
ATOM     19  C   UNL     1       7.026  14.653  -2.107  0.00  0.00    -0.078 C 
ATOM     20  N   UNL     1       6.486  13.406  -1.525  0.00  0.00    +0.386 N 
ATOM     21  H   UNL     1       6.789  13.338  -0.546  0.00  0.00    -0.081 HD
ENDBRANCH  14  20
ENDBRANCH   1  14
BRANCH   4  22
ATOM     22  S   UNL     1       4.752   7.452  -1.709  0.00  0.00    -0.076 S 
BRANCH  22  23
ATOM     23  C   UNL     1       4.510   6.897  -0.003  0.00  0.00    +0.175 C 
BRANCH  23  24
ATOM     24  C   UNL     1       3.868   5.534  -0.005  0.00  0.00    +0.228 A 
ATOM     25  N   UNL     1       4.491   4.389  -0.016  0.00  0.00    -0.111 NA
ATOM     26  N   UNL     1       3.632   3.431  -0.008  0.00  0.00    -0.107 NA
ATOM     27  C   UNL     1       2.421   3.936   0.000  0.00  0.00    +0.250 A 
ATOM     28  O   UNL     1       2.548   5.278   0.006  0.00  0.00    -0.419 OA
BRANCH  27  29
ATOM     29  C   UNL     1       1.153   3.175   0.008  0.00  0.00    +0.057 A 
ATOM     30  C   UNL     1       1.173   1.780   0.000  0.00  0.00    +0.015 A 
ATOM     31  C   UNL     1      -0.013   1.076   0.008  0.00  0.00    +0.001 A 
ATOM     32  C   UNL     1      -1.221   1.750   0.017  0.00  0.00    +0.001 A 
ATOM     33  C   UNL     1      -1.250   3.132   0.030  0.00  0.00    +0.021 A 
ATOM     34  C   UNL     1      -0.069   3.850   0.022  0.00  0.00    +0.053 A 
ATOM     35 CL   UNL     1      -0.106   5.585   0.031  0.00  0.00    -0.083 Cl
ENDBRANCH  27  29
ENDBRANCH  23  24
ENDBRANCH  22  23
ENDBRANCH   4  22
TORSDOF 7
