REMARK  Name = ZINC09259389
REMARK  9 active torsions:
REMARK  status: ('A' for Active; 'I' for Inactive)
REMARK    1  A    between atoms: C_1  and  C_2
REMARK    2  A    between atoms: C_4  and  C_19
REMARK    3  A    between atoms: C_5  and  C_18
REMARK    4  A    between atoms: N_6  and  C_7
REMARK    5  A    between atoms: C_9  and  N_15
REMARK    6  A    between atoms: C_12  and  O_13
REMARK    7  A    between atoms: O_13  and  C_14
REMARK    8  A    between atoms: N_23  and  C_30
REMARK    9  A    between atoms: N_26  and  C_29
REMARK                            x       y       z     vdW  Elec       q    Type
REMARK                         _______ _______ _______ _____ _____    ______ ____
ROOT
ATOM      1  C   UNL     1      -0.148  -7.551   0.363  0.00  0.00    +0.064 C 
ATOM      2  C   UNL     1      -0.107  -6.377   1.307  0.00  0.00    +0.022 A 
ATOM      3  C   UNL     1      -0.028  -5.087   0.941  0.00  0.00    +0.031 A 
ATOM      4  C   UNL     1      -0.013  -4.302   2.185  0.00  0.00    -0.003 A 
ATOM      5  C   UNL     1      -0.096  -5.226   3.216  0.00  0.00    +0.028 A 
ATOM      6  N   UNL     1      -0.150  -6.456   2.672  0.00  0.00    -0.314 N 
ATOM      7  C   UNL     1      -0.120  -4.908   4.689  0.00  0.00    +0.064 C 
ENDROOT
BRANCH   4   8
ATOM      8  C   UNL     1       0.063  -2.894   2.304  0.00  0.00    +0.028 C 
ATOM      9  C   UNL     1       0.972  -2.182   1.538  0.00  0.00    +0.100 C 
ATOM     10  C   UNL     1       2.003  -2.865   0.735  0.00  0.00    +0.257 C 
ATOM     11  O   UNL     1       2.084  -4.079   0.724  0.00  0.00    -0.269 OA
ATOM     12  N   UNL     1       2.854  -2.107   0.014  0.00  0.00    -0.252 N 
ATOM     13  C   UNL     1       2.773  -0.769   0.013  0.00  0.00    +0.148 C 
ATOM     14  S   UNL     1       3.892   0.111  -0.938  0.00  0.00    -0.018 S 
ATOM     15  N   UNL     1       1.866  -0.083   0.723  0.00  0.00    -0.252 N 
ATOM     16  C   UNL     1       0.950  -0.709   1.490  0.00  0.00    +0.257 C 
ATOM     17  O   UNL     1       0.129  -0.074   2.126  0.00  0.00    -0.269 OA
ATOM     18  C   UNL     1       1.865   1.381   0.658  0.00  0.00    +0.140 C 
ATOM     19  C   UNL     1       3.887  -2.761  -0.793  0.00  0.00    +0.140 C 
ENDBRANCH   4   8
BRANCH   6  20
ATOM     20  C   UNL     1      -0.239  -7.650   3.401  0.00  0.00    +0.091 A 
ATOM     21  C   UNL     1      -1.481  -8.174   3.729  0.00  0.00    +0.062 A 
ATOM     22  C   UNL     1      -1.566  -9.352   4.448  0.00  0.00    +0.128 A 
ATOM     23  C   UNL     1      -0.416 -10.011   4.841  0.00  0.00    +0.036 A 
ATOM     24  C   UNL     1       0.825  -9.494   4.519  0.00  0.00    +0.050 A 
ATOM     25  C   UNL     1       0.919  -8.317   3.794  0.00  0.00    +0.144 A 
BRANCH  22  26
ATOM     26  N   UNL     1      -2.892  -9.909   4.797  0.00  0.00    +0.056 N 
ATOM     27  O   UNL     1      -3.907  -9.331   4.451  0.00  0.00    -0.126 OA
ATOM     28  O   UNL     1      -2.969 -10.947   5.430  0.00  0.00    -0.126 OA
ENDBRANCH  22  26
BRANCH  25  29
ATOM     29  O   UNL     1       2.139  -7.811   3.471  0.00  0.00    -0.493 OA
ATOM     30  C   UNL     1       3.283  -8.548   3.906  0.00  0.00    +0.277 C 
ENDBRANCH  25  29
ENDBRANCH   6  20
TORSDOF 4
