REMARK  Name = ZINC39447058
REMARK  4 active torsions:
REMARK  status: ('A' for Active; 'I' for Inactive)
REMARK    1  A    between atoms: C_1  and  C_2
REMARK    2  A    between atoms: C_2  and  C_3
REMARK    3  A    between atoms: N_9  and  C_11
REMARK    4  A    between atoms: C_16  and  C_21
REMARK                            x       y       z     vdW  Elec       q    Type
REMARK                         _______ _______ _______ _____ _____    ______ ____
ROOT
ATOM      1  C   UNL     1       0.718  -0.497  -1.257  0.00  0.00    +0.157 C 
ATOM      2  C   UNL     1       0.704  -2.001  -1.324  0.00  0.00    -0.007 C 
ATOM      3  C   UNL     1       1.995  -2.358  -1.294  0.00  0.00    +0.067 C 
ATOM      4  C   UNL     1       2.427  -3.808  -1.340  0.00  0.00    +0.073 C 
ATOM      5  C   UNL     1       1.208  -4.677  -1.007  0.00  0.00    +0.096 C 
ATOM      6  N   UNL     1       0.062  -4.268  -1.832  0.00  0.00    -0.247 NA
ATOM      7  C   UNL     1      -0.453  -2.951  -1.412  0.00  0.00    +0.124 C 
ATOM      8  N   UNL     1       2.777  -1.263  -1.218  0.00  0.00    -0.158 NA
ATOM      9  N   UNL     1       2.160  -0.186  -1.195  0.00  0.00    -0.180 NA
ENDROOT
BRANCH   6  10
ATOM     10  C   UNL     1      -0.999  -5.283  -1.800  0.00  0.00    +0.341 C 
ATOM     11  N   UNL     1      -2.047  -4.950  -2.773  0.00  0.00    -0.294 N 
ATOM     12  C   UNL     1      -3.228  -4.778  -2.035  0.00  0.00    +0.073 A 
ATOM     13  C   UNL     1      -4.516  -4.457  -2.439  0.00  0.00    +0.030 A 
ATOM     14  C   UNL     1      -5.527  -4.343  -1.503  0.00  0.00    -0.048 A 
ATOM     15  C   UNL     1      -5.255  -4.551  -0.164  0.00  0.00    +0.007 A 
ATOM     16  C   UNL     1      -3.975  -4.872   0.245  0.00  0.00    +0.048 A 
ATOM     17  C   UNL     1      -2.952  -4.987  -0.688  0.00  0.00    +0.145 A 
ATOM     18  O   UNL     1      -1.635  -5.289  -0.519  0.00  0.00    -0.456 OA
ATOM     19  C   UNL     1      -6.925  -3.994  -1.943  0.00  0.00    +0.044 C 
ATOM     20  H   UNL     1      -1.944  -4.865  -3.734  0.00  0.00    +0.151 HD
ENDBRANCH   6  10
BRANCH   1  22
ATOM     21  C   UNL     1      -0.019   1.526   0.010  0.00  0.00    +0.006 C 
ATOM     22  C   UNL     1       0.002  -0.004   0.002  0.00  0.00    +0.030 C 
ENDBRANCH   1  22
TORSDOF 2
