REMARK  Name = ZINC16230298
REMARK  7 active torsions:
REMARK  status: ('A' for Active; 'I' for Inactive)
REMARK    1  A    between atoms: C_1  and  C_2
REMARK    2  A    between atoms: C_5  and  C_8
REMARK    3  A    between atoms: N_15  and  C_18
REMARK    4  A    between atoms: C_18  and  C_19
REMARK    5  A    between atoms: C_19  and  C_20
REMARK    6  A    between atoms: N_22  and  N_23
REMARK    7  A    between atoms: C_24  and  C_26
REMARK                            x       y       z     vdW  Elec       q    Type
REMARK                         _______ _______ _______ _____ _____    ______ ____
ROOT
ATOM      1  C   UNL     1       1.062   3.985   1.455  0.00  0.00    +0.119 C 
ENDROOT
BRANCH   1   2
ATOM      2  C   UNL     1       0.995   5.491   1.463  0.00  0.00    +0.231 C 
ATOM      3  O   UNL     1       0.958   6.102   0.416  0.00  0.00    -0.274 OA
ATOM      4  N   UNL     1       0.976   6.158   2.634  0.00  0.00    -0.234 N 
ATOM      5  H   UNL     1       1.005   5.669   3.472  0.00  0.00    +0.173 HD
BRANCH   4   6
ATOM      6  N   UNL     1       0.913   7.558   2.642  0.00  0.00    -0.231 N 
ATOM      7  C   UNL     1       0.894   8.225   3.813  0.00  0.00    +0.273 C 
ATOM      8  O   UNL     1       0.931   7.614   4.860  0.00  0.00    -0.270 OA
ATOM      9  H   UNL     1       0.884   8.046   1.804  0.00  0.00    +0.173 HD
BRANCH   7  10
ATOM     10  C   UNL     1       0.827   9.730   3.821  0.00  0.00    +0.297 C 
ATOM     11  C   UNL     1      -0.516  10.192   3.238  0.00  0.00    +0.283 C 
ATOM     12  O   UNL     1      -0.552  11.623   3.274  0.00  0.00    -0.484 OA
ATOM     13  C   UNL     1      -0.156  12.216   4.434  0.00  0.00    +0.162 A 
ATOM     14  C   UNL     1      -0.494  13.540   4.671  0.00  0.00    +0.049 A 
ATOM     15  C   UNL     1      -0.094  14.158   5.840  0.00  0.00    +0.004 A 
ATOM     16  C   UNL     1       0.643  13.459   6.777  0.00  0.00    +0.004 A 
ATOM     17  C   UNL     1       0.982  12.139   6.548  0.00  0.00    +0.049 A 
ATOM     18  C   UNL     1       0.583  11.512   5.377  0.00  0.00    +0.163 A 
ATOM     19  O   UNL     1       0.922  10.211   5.166  0.00  0.00    -0.472 OA
ENDBRANCH   7  10
ENDBRANCH   4   6
ENDBRANCH   1   2
BRANCH   1  20
ATOM     20  C   UNL     1       1.072   3.483   0.010  0.00  0.00    +0.135 C 
BRANCH  20  28
ATOM     21  C   UNL     1       3.556  -0.896  -0.037  0.00  0.00    +0.004 A 
ATOM     22  C   UNL     1       3.360  -2.237  -0.042  0.00  0.00    +0.056 A 
ATOM     23  S   UNL     1       1.585  -2.394  -0.026  0.00  0.00    -0.076 S 
ATOM     24  C   UNL     1       1.151  -0.674  -0.013  0.00  0.00    +0.116 A 
ATOM     25  C   UNL     1       2.393  -0.018  -0.021  0.00  0.00    +0.080 A 
ATOM     26  C   UNL     1       2.338   1.413  -0.013  0.00  0.00    +0.263 A 
ATOM     27  O   UNL     1       3.364   2.071  -0.019  0.00  0.00    -0.267 OA
ATOM     28  N   UNL     1       1.137   2.019   0.002  0.00  0.00    -0.298 N 
ATOM     29  C   UNL     1      -0.016   1.302   0.009  0.00  0.00    +0.203 A 
ATOM     30  N   UNL     1       0.002  -0.004   0.002  0.00  0.00    -0.230 NA
BRANCH  21  35
ATOM     31  C   UNL     1       8.884   1.289  -0.075  0.00  0.00    +0.044 C 
ATOM     32  C   UNL     1       7.489   0.717  -0.065  0.00  0.00    -0.050 A 
ATOM     33  C   UNL     1       7.153  -0.262   0.853  0.00  0.00    +0.004 A 
ATOM     34  C   UNL     1       5.878  -0.789   0.867  0.00  0.00    +0.009 A 
ATOM     35  C   UNL     1       4.928  -0.334  -0.046  0.00  0.00    -0.017 A 
ATOM     36  C   UNL     1       5.274   0.650  -0.972  0.00  0.00    +0.009 A 
ATOM     37  C   UNL     1       6.551   1.173  -0.973  0.00  0.00    +0.004 A 
ENDBRANCH  21  35
ENDBRANCH  20  28
ENDBRANCH   1  20
TORSDOF 6
