REMARK  Name = ZINC12209066
REMARK  7 active torsions:
REMARK  status: ('A' for Active; 'I' for Inactive)
REMARK    1  A    between atoms: C_1  and  C_2
REMARK    2  A    between atoms: C_5  and  N_9
REMARK    3  A    between atoms: C_7  and  C_8
REMARK    4  A    between atoms: N_9  and  S_10
REMARK    5  A    between atoms: S_10  and  C_13
REMARK    6  A    between atoms: C_15  and  N_20
REMARK    7  A    between atoms: C_18  and  C_19
REMARK                            x       y       z     vdW  Elec       q    Type
REMARK                         _______ _______ _______ _____ _____    ______ ____
ROOT
ATOM      1  C   UNL     1      -0.205   4.644   0.498  0.00  0.00    +0.113 A 
ATOM      2  C   UNL     1      -0.686   5.877   0.100  0.00  0.00    +0.053 A 
ATOM      3  C   UNL     1       0.170   6.794  -0.496  0.00  0.00    +0.053 A 
ATOM      4  C   UNL     1       1.504   6.464  -0.701  0.00  0.00    +0.025 A 
ATOM      5  C   UNL     1       1.976   5.228  -0.306  0.00  0.00    +0.007 A 
ATOM      6  C   UNL     1       1.123   4.319   0.292  0.00  0.00    -0.024 A 
ATOM      7  C   UNL     1       1.642   2.971   0.722  0.00  0.00    +0.046 C 
ENDROOT
BRANCH   3   8
ATOM      8  N   UNL     1      -0.311   8.044  -0.894  0.00  0.00    -0.207 N 
ATOM      9  C   UNL     1      -1.448   8.159  -1.819  0.00  0.00    +0.131 C 
ATOM     10  C   UNL     1      -2.557   8.981  -1.164  0.00  0.00    +0.022 C 
ATOM     11  C   UNL     1      -2.094  10.416  -0.922  0.00  0.00    +0.026 C 
ATOM     12  C   UNL     1      -1.046  10.440   0.198  0.00  0.00    +0.189 C 
ATOM     13  S   UNL     1       0.380   9.449  -0.330  0.00  0.00    +0.045 S 
ATOM     14  O   UNL     1       1.151   9.055   0.796  0.00  0.00    -0.155 OA
ATOM     15  O   UNL     1       0.996  10.039  -1.466  0.00  0.00    -0.155 OA
ENDBRANCH   3   8
BRANCH   1  16
ATOM     16  S   UNL     1      -1.288   3.482   1.260  0.00  0.00    +0.073 S 
ATOM     17  O   UNL     1      -2.583   4.068   1.253  0.00  0.00    -0.150 OA
ATOM     18  O   UNL     1      -0.651   3.058   2.457  0.00  0.00    -0.150 OA
BRANCH  16  19
ATOM     19  N   UNL     1      -1.362   2.158   0.269  0.00  0.00    -0.216 N 
ATOM     20  H   UNL     1      -1.055   1.295   0.588  0.00  0.00    +0.174 HD
BRANCH  19  25
ATOM     21  C   UNL     1      -3.420   2.653  -4.992  0.00  0.00    +0.044 C 
ATOM     22  C   UNL     1      -2.872   2.523  -3.595  0.00  0.00    -0.047 A 
ATOM     23  C   UNL     1      -3.547   3.098  -2.533  0.00  0.00    +0.005 A 
ATOM     24  C   UNL     1      -3.048   2.981  -1.251  0.00  0.00    +0.025 A 
ATOM     25  C   UNL     1      -1.867   2.284  -1.028  0.00  0.00    +0.048 A 
ATOM     26  C   UNL     1      -1.192   1.708  -2.096  0.00  0.00    +0.028 A 
ATOM     27  C   UNL     1      -1.696   1.829  -3.376  0.00  0.00    -0.046 A 
ATOM     28  C   UNL     1      -0.965   1.205  -4.536  0.00  0.00    +0.044 C 
ENDBRANCH  19  25
ENDBRANCH  16  19
ENDBRANCH   1  16
TORSDOF 4
