REMARK  Name = ZINC08667027
REMARK  11 active torsions:
REMARK  status: ('A' for Active; 'I' for Inactive)
REMARK    1  A    between atoms: C_1  and  C_2
REMARK    2  A    between atoms: C_5  and  C_8
REMARK    3  A    between atoms: C_8  and  C_10
REMARK    4  A    between atoms: C_8  and  N_19
REMARK    5  A    between atoms: N_12  and  C_13
REMARK    6  A    between atoms: C_13  and  C_14
REMARK    7  A    between atoms: N_19  and  C_20
REMARK    8  A    between atoms: C_25  and  C_26
REMARK    9  A    between atoms: C_27  and  C_29
REMARK   10  A    between atoms: C_29  and  N_30
REMARK   11  A    between atoms: C_31  and  C_33
REMARK                            x       y       z     vdW  Elec       q    Type
REMARK                         _______ _______ _______ _____ _____    ______ ____
ROOT
ATOM      1  N   UNL     1       0.014  -5.351   0.786  0.00  0.00    -0.254 N 
ATOM      2  C   UNL     1      -1.032  -6.175   0.579  0.00  0.00    +0.238 C 
ATOM      3  O   UNL     1      -1.742  -6.021  -0.392  0.00  0.00    -0.274 OA
ENDROOT
BRANCH   1   4
ATOM      4  C   UNL     1       0.834  -5.529   1.906  0.00  0.00    +0.040 A 
ATOM      5  C   UNL     1       0.487  -4.950   3.121  0.00  0.00    +0.024 A 
ATOM      6  C   UNL     1       1.298  -5.128   4.224  0.00  0.00    +0.002 A 
ATOM      7  C   UNL     1       2.454  -5.880   4.122  0.00  0.00    +0.000 A 
ATOM      8  C   UNL     1       2.802  -6.457   2.914  0.00  0.00    +0.005 A 
ATOM      9  C   UNL     1       1.992  -6.288   1.808  0.00  0.00    -0.029 A 
ATOM     10  C   UNL     1       2.368  -6.923   0.494  0.00  0.00    +0.045 C 
ENDBRANCH   1   4
BRANCH   1  11
ATOM     11  C   UNL     1       0.293  -4.269  -0.161  0.00  0.00    +0.197 C 
BRANCH  11  16
ATOM     12  C   UNL     1      -4.191  -0.627  -0.297  0.00  0.00    +0.044 C 
ATOM     13  C   UNL     1      -3.021  -1.576  -0.262  0.00  0.00    -0.050 A 
ATOM     14  C   UNL     1      -2.529  -2.111  -1.438  0.00  0.00    +0.004 A 
ATOM     15  C   UNL     1      -1.456  -2.982  -1.405  0.00  0.00    +0.006 A 
ATOM     16  C   UNL     1      -0.876  -3.318  -0.197  0.00  0.00    -0.018 A 
ATOM     17  C   UNL     1      -1.367  -2.784   0.979  0.00  0.00    +0.006 A 
ATOM     18  C   UNL     1      -2.438  -1.909   0.946  0.00  0.00    +0.004 A 
ENDBRANCH  11  16
BRANCH  11  19
ATOM     19  C   UNL     1       1.531  -3.527   0.274  0.00  0.00    +0.239 C 
ATOM     20  O   UNL     1       1.703  -3.271   1.446  0.00  0.00    -0.273 OA
ATOM     21  N   UNL     1       2.446  -3.149  -0.641  0.00  0.00    -0.306 N 
ATOM     22  H   UNL     1       2.308  -3.355  -1.579  0.00  0.00    +0.149 HD
BRANCH  21  23
ATOM     23  C   UNL     1       3.649  -2.428  -0.218  0.00  0.00    +0.178 C 
BRANCH  23  24
ATOM     24  C   UNL     1       4.502  -2.125  -1.423  0.00  0.00    +0.122 A 
ATOM     25  C   UNL     1       4.428  -1.015  -2.179  0.00  0.00    +0.046 A 
ATOM     26  C   UNL     1       5.404  -1.146  -3.195  0.00  0.00    +0.041 A 
ATOM     27  C   UNL     1       6.015  -2.328  -2.998  0.00  0.00    +0.195 A 
ATOM     28  O   UNL     1       5.469  -2.913  -1.920  0.00  0.00    -0.466 OA
ENDBRANCH  23  24
ENDBRANCH  21  23
ENDBRANCH  11  19
ENDBRANCH   1  11
BRANCH   2  29
ATOM     29  C   UNL     1      -1.319  -7.288   1.554  0.00  0.00    +0.201 C 
BRANCH  29  30
ATOM     30  N   UNL     1      -2.498  -8.035   1.109  0.00  0.00    -0.302 N 
ATOM     31  C   UNL     1      -2.944  -9.083   1.830  0.00  0.00    +0.251 C 
ATOM     32  O   UNL     1      -2.367  -9.408   2.851  0.00  0.00    -0.270 OA
ATOM     33  H   UNL     1      -2.958  -7.776   0.295  0.00  0.00    +0.150 HD
BRANCH  31  34
ATOM     34  C   UNL     1      -4.124  -9.830   1.384  0.00  0.00    +0.074 A 
ATOM     35  C   UNL     1      -4.742 -10.921   1.976  0.00  0.00    +0.021 A 
ATOM     36  C   UNL     1      -5.843 -11.413   1.317  0.00  0.00    +0.008 A 
ATOM     37  C   UNL     1      -6.243 -10.818   0.166  0.00  0.00    +0.046 A 
ATOM     38  S   UNL     1      -5.142  -9.568  -0.055  0.00  0.00    -0.092 S 
ENDBRANCH  31  34
ENDBRANCH  29  30
ENDBRANCH   2  29
TORSDOF 9
