REMARK  Name = ZINC09475840
REMARK  11 active torsions:
REMARK  status: ('A' for Active; 'I' for Inactive)
REMARK    1  A    between atoms: C_1  and  C_2
REMARK    2  A    between atoms: C_5  and  S_8
REMARK    3  A    between atoms: S_8  and  C_11
REMARK    4  A    between atoms: C_11  and  C_12
REMARK    5  A    between atoms: C_12  and  C_13
REMARK    6  A    between atoms: C_13  and  C_14
REMARK    7  A    between atoms: C_14  and  N_16
REMARK    8  A    between atoms: N_18  and  C_30
REMARK    9  A    between atoms: C_22  and  S_26
REMARK   10  A    between atoms: S_26  and  N_29
REMARK   11  A    between atoms: C_30  and  C_31
REMARK                            x       y       z     vdW  Elec       q    Type
REMARK                         _______ _______ _______ _____ _____    ______ ____
ROOT
ATOM      1  N   UNL     1      -0.254   1.232  -2.252  0.00  0.00    -0.156 NA
ATOM      2  C   UNL     1      -1.000   0.609  -3.162  0.00  0.00    +0.167 A 
ATOM      3  N   UNL     1      -2.308   0.251  -3.077  0.00  0.00    -0.317 N 
ATOM      4  C   UNL     1      -2.921  -0.392  -4.136  0.00  0.00    +0.058 A 
ATOM      5  C   UNL     1      -4.251  -0.832  -4.237  0.00  0.00    +0.029 A 
ATOM      6  C   UNL     1      -4.698  -1.464  -5.372  0.00  0.00    +0.030 A 
ATOM      7  C   UNL     1      -3.855  -1.688  -6.449  0.00  0.00    +0.106 A 
ATOM      8  C   UNL     1      -2.540  -1.265  -6.376  0.00  0.00    +0.045 A 
ATOM      9  C   UNL     1      -2.092  -0.631  -5.241  0.00  0.00    +0.041 A 
ATOM     10  S   UNL     1      -0.534   0.054  -4.737  0.00  0.00    -0.052 S 
ENDROOT
BRANCH   7  11
ATOM     11  S   UNL     1      -4.452  -2.501  -7.893  0.00  0.00    +0.056 S 
ATOM     12  O   UNL     1      -3.320  -3.071  -8.536  0.00  0.00    -0.153 OA
ATOM     13  O   UNL     1      -5.570  -3.279  -7.489  0.00  0.00    -0.153 OA
BRANCH  11  14
ATOM     14  N   UNL     1      -5.033  -1.330  -8.910  0.00  0.00    -0.204 NA
ATOM     15  H   UNL     1      -5.003  -1.462  -9.870  0.00  0.00    +0.144 HD
ATOM     16  H   UNL     1      -5.404  -0.511  -8.545  0.00  0.00    +0.144 HD
ENDBRANCH  11  14
ENDBRANCH   7  11
BRANCH   1  17
ATOM     17  C   UNL     1      -0.821   1.741  -1.163  0.00  0.00    +0.238 C 
ATOM     18  O   UNL     1      -1.663   2.613  -1.267  0.00  0.00    -0.274 OA
BRANCH  17  19
ATOM     19  C   UNL     1      -0.421   1.239   0.200  0.00  0.00    +0.099 C 
BRANCH  19  20
ATOM     20  C   UNL     1      -1.218   1.985   1.272  0.00  0.00    +0.032 C 
BRANCH  20  21
ATOM     21  C   UNL     1      -0.811   1.474   2.657  0.00  0.00    +0.172 C 
BRANCH  21  22
ATOM     22  S   UNL     1      -1.756   2.359   3.928  0.00  0.00    -0.003 S 
ATOM     23  O   UNL     1      -1.362   3.724   3.969  0.00  0.00    -0.169 OA
ATOM     24  O   UNL     1      -3.130   2.003   3.853  0.00  0.00    -0.169 OA
BRANCH  22  29
ATOM     25  C   UNL     1       0.150   0.048   9.166  0.00  0.00    +0.044 C 
ATOM     26  C   UNL     1      -0.326   0.625   7.857  0.00  0.00    -0.050 A 
ATOM     27  C   UNL     1       0.313   1.724   7.313  0.00  0.00    +0.005 A 
ATOM     28  C   UNL     1      -0.123   2.253   6.113  0.00  0.00    +0.027 A 
ATOM     29  C   UNL     1      -1.199   1.684   5.457  0.00  0.00    +0.088 A 
ATOM     30  C   UNL     1      -1.841   0.589   6.004  0.00  0.00    +0.027 A 
ATOM     31  C   UNL     1      -1.401   0.056   7.201  0.00  0.00    +0.005 A 
ENDBRANCH  22  29
ENDBRANCH  21  22
ENDBRANCH  20  21
ENDBRANCH  19  20
ENDBRANCH  17  19
ENDBRANCH   1  17
BRANCH   3  32
ATOM     32  C   UNL     1      -3.071   0.550  -1.862  0.00  0.00    +0.151 C 
BRANCH  32  33
ATOM     33  C   UNL     1      -3.851   1.824  -2.060  0.00  0.00    -0.013 C 
ATOM     34  C   UNL     1      -5.153   1.824  -1.913  0.00  0.00    +0.005 C 
ENDBRANCH  32  33
ENDBRANCH   3  32
TORSDOF 10
