REMARK  Name = ZINC11448432
REMARK  6 active torsions:
REMARK  status: ('A' for Active; 'I' for Inactive)
REMARK    1  A    between atoms: C_1  and  C_2
REMARK    2  A    between atoms: C_5  and  C_8
REMARK    3  A    between atoms: N_14  and  C_15
REMARK    4  A    between atoms: C_15  and  C_16
REMARK    5  A    between atoms: C_16  and  C_17
REMARK    6  A    between atoms: C_26  and  C_30
REMARK                            x       y       z     vdW  Elec       q    Type
REMARK                         _______ _______ _______ _____ _____    ______ ____
ROOT
ATOM      1  C   UNL     1       2.230  -9.023  -0.636  0.00  0.00    +0.135 C 
ENDROOT
BRANCH   1   8
ATOM      2  C   UNL     1       3.855 -10.960  -0.463  0.00  0.00    +0.163 A 
ATOM      3  N   UNL     1       3.800 -12.209  -0.093  0.00  0.00    -0.153 NA
ATOM      4  N   UNL     1       2.481 -12.493   0.283  0.00  0.00    -0.254 N 
ATOM      5  H   UNL     1       2.146 -13.347   0.599  0.00  0.00    +0.191 HD
ATOM      6  C   UNL     1       1.762 -11.362   0.127  0.00  0.00    +0.176 A 
ATOM      7  S   UNL     1       0.091 -11.174   0.450  0.00  0.00    -0.011 S 
ATOM      8  N   UNL     1       2.597 -10.407  -0.329  0.00  0.00    -0.303 N 
BRANCH   2  13
ATOM      9  C   UNL     1       8.554  -8.209  -2.328  0.00  0.00    +0.044 C 
ATOM     10  C   UNL     1       7.324  -8.929  -1.839  0.00  0.00    -0.050 A 
ATOM     11  C   UNL     1       7.266 -10.310  -1.897  0.00  0.00    +0.004 A 
ATOM     12  C   UNL     1       6.142 -10.975  -1.452  0.00  0.00    +0.012 A 
ATOM     13  C   UNL     1       5.063 -10.253  -0.942  0.00  0.00    +0.019 A 
ATOM     14  C   UNL     1       5.125  -8.860  -0.892  0.00  0.00    +0.012 A 
ATOM     15  C   UNL     1       6.257  -8.207  -1.335  0.00  0.00    +0.004 A 
ENDBRANCH   2  13
ENDBRANCH   1   8
BRANCH   1  16
ATOM     16  C   UNL     1       2.307  -8.180   0.638  0.00  0.00    +0.118 C 
BRANCH  16  17
ATOM     17  C   UNL     1       1.930  -6.755   0.323  0.00  0.00    +0.220 C 
ATOM     18  O   UNL     1       1.630  -6.445  -0.811  0.00  0.00    -0.275 OA
ATOM     19  N   UNL     1       1.927  -5.827   1.299  0.00  0.00    -0.265 N 
ATOM     20  C   UNL     1       1.580  -4.513   1.008  0.00  0.00    +0.165 A 
ATOM     21  N   UNL     1       1.227  -3.986  -0.147  0.00  0.00    -0.229 NA
ATOM     22  C   UNL     1       0.919  -2.698  -0.274  0.00  0.00    +0.054 A 
ATOM     23  C   UNL     1       0.988  -1.954   0.861  0.00  0.00    +0.015 A 
ATOM     24  S   UNL     1       1.498  -3.142   2.074  0.00  0.00    -0.057 S 
ATOM     25  C   UNL     1       0.700  -0.500   1.020  0.00  0.00    +0.047 C 
ATOM     26  C   UNL     1      -0.048  -0.017  -0.233  0.00  0.00    -0.009 C 
ATOM     27  C   UNL     1       0.684  -0.537  -1.473  0.00  0.00    +0.010 C 
ATOM     28  C   UNL     1       0.509  -2.052  -1.592  0.00  0.00    +0.056 C 
ATOM     29  C   UNL     1      -0.075   1.512  -0.256  0.00  0.00    +0.008 C 
ATOM     30  H   UNL     1       2.167  -6.075   2.206  0.00  0.00    +0.157 HD
ENDBRANCH  16  17
ENDBRANCH   1  16
TORSDOF 4
