REMARK  Name = ZINC25060621
REMARK  12 active torsions:
REMARK  status: ('A' for Active; 'I' for Inactive)
REMARK    1  A    between atoms: C_1  and  C_2
REMARK    2  A    between atoms: C_3  and  C_17
REMARK    3  A    between atoms: C_5  and  C_7
REMARK    4  A    between atoms: C_10  and  O_15
REMARK    5  A    between atoms: C_11  and  O_13
REMARK    6  A    between atoms: O_13  and  C_14
REMARK    7  A    between atoms: O_15  and  C_16
REMARK    8  A    between atoms: N_19  and  C_20
REMARK    9  A    between atoms: C_22  and  C_25
REMARK   10  A    between atoms: C_25  and  N_26
REMARK   11  A    between atoms: C_28  and  C_35
REMARK   12  A    between atoms: C_31  and  C_34
REMARK                            x       y       z     vdW  Elec       q    Type
REMARK                         _______ _______ _______ _____ _____    ______ ____
ROOT
ATOM      1  C   UNL     1       5.029   2.519   7.016  0.00  0.00    +0.288 C 
ATOM      2  O   UNL     1       5.619   1.456   7.067  0.00  0.00    -0.265 OA
ATOM      3  N   UNL     1       4.428   2.903   5.873  0.00  0.00    -0.182 NA
ENDROOT
BRANCH   1   6
ATOM      4  C   UNL     1       6.285   1.940   9.800  0.00  0.00    +0.067 C 
ATOM      5  C   UNL     1       5.508   3.187   9.466  0.00  0.00    +0.059 A 
ATOM      6  C   UNL     1       4.973   3.382   8.198  0.00  0.00    +0.101 A 
ATOM      7  S   UNL     1       4.190   4.974   8.414  0.00  0.00    -0.062 S 
ATOM      8  C   UNL     1       4.631   5.221  10.075  0.00  0.00    +0.109 A 
ATOM      9  N   UNL     1       5.320   4.123  10.356  0.00  0.00    -0.243 NA
BRANCH   8  10
ATOM     10  C   UNL     1       4.319   6.366  10.954  0.00  0.00    +0.011 A 
ATOM     11  C   UNL     1       4.770   6.378  12.275  0.00  0.00    +0.014 A 
ATOM     12  C   UNL     1       4.478   7.448  13.094  0.00  0.00    +0.050 A 
ATOM     13  C   UNL     1       3.736   8.515  12.608  0.00  0.00    +0.162 A 
ATOM     14  C   UNL     1       3.283   8.510  11.290  0.00  0.00    +0.162 A 
ATOM     15  C   UNL     1       3.577   7.443  10.463  0.00  0.00    +0.060 A 
BRANCH  14  16
ATOM     16  O   UNL     1       2.556   9.558  10.817  0.00  0.00    -0.491 OA
ATOM     17  C   UNL     1       2.124   9.486   9.457  0.00  0.00    +0.277 C 
ENDBRANCH  14  16
BRANCH  13  18
ATOM     18  O   UNL     1       3.451   9.568  13.419  0.00  0.00    -0.491 OA
ATOM     19  C   UNL     1       3.946   9.508  14.758  0.00  0.00    +0.277 C 
ENDBRANCH  13  18
ENDBRANCH   8  10
ENDBRANCH   1   6
BRANCH   3  20
ATOM     20  C   UNL     1       4.481   2.085   4.752  0.00  0.00    +0.196 A 
ATOM     21  N   UNL     1       3.962   2.283   3.556  0.00  0.00    -0.228 NA
ATOM     22  C   UNL     1       4.107   1.394   2.592  0.00  0.00    +0.034 A 
ATOM     23  C   UNL     1       4.801   0.261   2.858  0.00  0.00    +0.070 A 
ATOM     24  S   UNL     1       5.248   0.538   4.566  0.00  0.00    -0.056 S 
BRANCH  22  25
ATOM     25  C   UNL     1       3.509   1.631   1.229  0.00  0.00    -0.022 C 
BRANCH  25  26
ATOM     26  N   UNL     1       2.108   1.189   1.226  0.00  0.00    +0.387 N 
ATOM     27  C   UNL     1       1.423   1.617  -0.003  0.00  0.00    -0.047 C 
ATOM     28  C   UNL     1      -0.013   1.086   0.008  0.00  0.00    +0.099 C 
ATOM     29  O   UNL     1      -0.677   1.548   1.187  0.00  0.00    -0.378 OA
ATOM     30  C   UNL     1      -0.038   1.149   2.402  0.00  0.00    +0.099 C 
ATOM     31  C   UNL     1       1.398   1.680   2.416  0.00  0.00    -0.047 C 
ATOM     32  C   UNL     1      -0.018  -0.378   2.493  0.00  0.00    +0.036 C 
ATOM     33  C   UNL     1      -0.754   1.593  -1.230  0.00  0.00    +0.036 C 
ATOM     34  H   UNL     1       2.102   0.089   1.255  0.00  0.00    -0.081 HD
ENDBRANCH  25  26
ENDBRANCH  22  25
ENDBRANCH   3  20
TORSDOF 7
