REMARK  Name = ZINC40172710
REMARK  11 active torsions:
REMARK  status: ('A' for Active; 'I' for Inactive)
REMARK    1  A    between atoms: C_1  and  C_2
REMARK    2  A    between atoms: C_3  and  C_30
REMARK    3  A    between atoms: C_5  and  N_9
REMARK    4  A    between atoms: C_6  and  C_7
REMARK    5  A    between atoms: C_10  and  C_12
REMARK    6  A    between atoms: C_12  and  C_14
REMARK    7  A    between atoms: C_12  and  N_15
REMARK    8  A    between atoms: C_19  and  S_20
REMARK    9  A    between atoms: S_20  and  C_21
REMARK   10  A    between atoms: C_21  and  C_22
REMARK   11  A    between atoms: C_22  and  C_23
REMARK                            x       y       z     vdW  Elec       q    Type
REMARK                         _______ _______ _______ _____ _____    ______ ____
ROOT
ATOM      1  N   UNL     1       0.106  -6.803   2.251  0.00  0.00    -0.279 N 
ATOM      2  C   UNL     1      -0.845  -7.319   1.417  0.00  0.00    +0.216 A 
ATOM      3  N   UNL     1      -0.480  -8.534   1.089  0.00  0.00    -0.113 NA
ATOM      4  N   UNL     1       0.736  -8.808   1.727  0.00  0.00    -0.121 NA
ATOM      5  C   UNL     1       1.078  -7.749   2.421  0.00  0.00    +0.194 A 
ATOM      6  N   UNL     1      -1.997  -6.669   0.992  0.00  0.00    -0.328 N 
ATOM      7  H   UNL     1      -2.182  -5.765   1.291  0.00  0.00    +0.145 HD
ATOM      8  H   UNL     1      -2.616  -7.120   0.397  0.00  0.00    +0.145 HD
ENDROOT
BRANCH   1   9
ATOM      9  C   UNL     1       0.091  -5.467   2.853  0.00  0.00    +0.175 C 
ATOM     10  C   UNL     1      -1.156  -5.316   3.726  0.00  0.00    +0.041 C 
BRANCH   9  12
ATOM     11  N   UNL     1       0.055  -3.116   2.084  0.00  0.00    -0.277 N 
ATOM     12  C   UNL     1       0.072  -4.426   1.764  0.00  0.00    +0.240 C 
ATOM     13  O   UNL     1       0.071  -4.765   0.600  0.00  0.00    -0.273 OA
ATOM     14  H   UNL     1       0.056  -2.845   3.015  0.00  0.00    +0.155 HD
BRANCH  11  19
ATOM     15  C   UNL     1      -0.018   1.503   0.010  0.00  0.00    +0.046 C 
ATOM     16  C   UNL     1       0.002  -0.004   0.002  0.00  0.00    -0.021 A 
ATOM     17  C   UNL     1       0.006  -0.713  -1.143  0.00  0.00    -0.007 A 
ATOM     18  S   UNL     1       0.033  -2.401  -0.579  0.00  0.00    -0.077 S 
ATOM     19  C   UNL     1       0.037  -2.157   1.081  0.00  0.00    +0.090 A 
ATOM     20  C   UNL     1       0.025  -0.778   1.222  0.00  0.00    +0.083 A 
ATOM     21  C   UNL     1      -0.008  -0.201  -2.560  0.00  0.00    +0.052 C 
BRANCH  20  22
ATOM     22  C   UNL     1       0.028  -0.152   2.510  0.00  0.00    +0.102 C 
ATOM     23  N   UNL     1       0.031   0.344   3.532  0.00  0.00    -0.191 NA
ENDBRANCH  20  22
ENDBRANCH  11  19
ENDBRANCH   9  12
ENDBRANCH   1   9
BRANCH   5  24
ATOM     24  S   UNL     1       2.531  -7.578   3.402  0.00  0.00    -0.086 S 
BRANCH  24  25
ATOM     25  C   UNL     1       3.384  -9.166   3.204  0.00  0.00    +0.082 C 
BRANCH  25  26
ATOM     26  C   UNL     1       4.681  -9.153   4.015  0.00  0.00    +0.046 C 
BRANCH  26  27
ATOM     27  C   UNL     1       5.390 -10.473   3.850  0.00  0.00    -0.047 A 
ATOM     28  C   UNL     1       5.123 -11.514   4.719  0.00  0.00    +0.003 A 
ATOM     29  C   UNL     1       5.773 -12.725   4.568  0.00  0.00    +0.000 A 
ATOM     30  C   UNL     1       6.690 -12.894   3.548  0.00  0.00    +0.000 A 
ATOM     31  C   UNL     1       6.957 -11.853   2.679  0.00  0.00    +0.000 A 
ATOM     32  C   UNL     1       6.304 -10.644   2.827  0.00  0.00    +0.003 A 
ENDBRANCH  26  27
ENDBRANCH  25  26
ENDBRANCH  24  25
ENDBRANCH   5  24
TORSDOF 8
