REMARK  Name = ZINC12659390
REMARK  5 active torsions:
REMARK  status: ('A' for Active; 'I' for Inactive)
REMARK    1  A    between atoms: C_5  and  C_7
REMARK    2  A    between atoms: N_9  and  C_10
REMARK    3  A    between atoms: C_10  and  C_21
REMARK    4  A    between atoms: C_11  and  C_12
REMARK    5  A    between atoms: C_16  and  N_18
REMARK                            x       y       z     vdW  Elec       q    Type
REMARK                         _______ _______ _______ _____ _____    ______ ____
ROOT
ATOM      1  C   UNL     1      -1.255   5.928  -0.049  0.00  0.00    +0.097 C 
ATOM      2  C   UNL     1      -0.148   5.168  -0.218  0.00  0.00    +0.036 C 
ENDROOT
BRANCH   1   3
ATOM      3  C   UNL     1      -1.155   7.394  -0.101  0.00  0.00    +0.261 C 
ATOM      4  O   UNL     1      -0.974   8.028   0.922  0.00  0.00    -0.269 OA
ATOM      5  N   UNL     1      -1.262   8.036  -1.281  0.00  0.00    -0.292 N 
ATOM      6  C   UNL     1      -1.560   7.299  -2.520  0.00  0.00    +0.136 C 
ATOM      7  C   UNL     1      -2.735   7.998  -3.222  0.00  0.00    +0.179 C 
ATOM      8  O   UNL     1      -2.434   9.388  -3.368  0.00  0.00    -0.377 OA
ATOM      9  C   UNL     1      -2.272  10.085  -2.130  0.00  0.00    +0.179 C 
ATOM     10  C   UNL     1      -1.079   9.493  -1.371  0.00  0.00    +0.136 C 
ENDBRANCH   1   3
BRANCH   2  11
ATOM     11  C   UNL     1      -0.243   3.702  -0.135  0.00  0.00    -0.021 A 
ATOM     12  C   UNL     1      -1.285   3.105   0.582  0.00  0.00    +0.008 A 
ATOM     13  C   UNL     1      -1.370   1.730   0.650  0.00  0.00    +0.003 A 
ATOM     14  C   UNL     1      -0.422   0.942   0.021  0.00  0.00    +0.033 A 
ATOM     15  C   UNL     1       0.612   1.526  -0.690  0.00  0.00    +0.127 A 
ATOM     16  C   UNL     1       0.708   2.899  -0.772  0.00  0.00    +0.040 A 
BRANCH  15  17
ATOM     17  N   UNL     1       1.617   0.674  -1.364  0.00  0.00    +0.056 N 
ATOM     18  O   UNL     1       1.533  -0.539  -1.293  0.00  0.00    -0.126 OA
ATOM     19  O   UNL     1       2.527   1.186  -1.991  0.00  0.00    -0.126 OA
ENDBRANCH  15  17
ENDBRANCH   2  11
BRANCH   1  22
ATOM     20  C   UNL     1      -3.229   5.665   1.249  0.00  0.00    +0.249 C 
ATOM     21  O   UNL     1      -2.865   6.575   1.969  0.00  0.00    -0.270 OA
ATOM     22  N   UNL     1      -2.493   5.320   0.174  0.00  0.00    -0.277 N 
ATOM     23  H   UNL     1      -2.823   4.649  -0.444  0.00  0.00    +0.155 HD
BRANCH  20  28
ATOM     24  C   UNL     1      -6.009   3.145   1.088  0.00  0.00    +0.001 A 
ATOM     25  C   UNL     1      -6.820   3.572   2.125  0.00  0.00    +0.001 A 
ATOM     26  C   UNL     1      -6.467   4.676   2.878  0.00  0.00    +0.016 A 
ATOM     27  C   UNL     1      -5.301   5.362   2.599  0.00  0.00    +0.030 A 
ATOM     28  C   UNL     1      -4.478   4.936   1.554  0.00  0.00    +0.051 A 
ATOM     29  C   UNL     1      -4.844   3.823   0.795  0.00  0.00    +0.014 A 
ATOM     30 BR   UNL     1      -4.820   6.873   3.630  0.00  0.00    -0.050 Br
ENDBRANCH  20  28
ENDBRANCH   1  22
TORSDOF 5
