REMARK  Name = ZINC37034407
REMARK  1 active torsions:
REMARK  status: ('A' for Active; 'I' for Inactive)
REMARK    1  A    between atoms: C_2  and  N_9
REMARK                            x       y       z     vdW  Elec       q    Type
REMARK                         _______ _______ _______ _____ _____    ______ ____
ROOT
ATOM      1  C   UNL     1      -0.016   1.361   0.009  0.00  0.00    +0.067 A 
ATOM      2  C   UNL     1       1.206   2.079   0.002  0.00  0.00    +0.080 A 
ATOM      3  C   UNL     1       2.432   1.365  -0.014  0.00  0.00    +0.044 A 
ATOM      4  C   UNL     1       2.419   0.001  -0.021  0.00  0.00    +0.023 A 
ATOM      5  C   UNL     1       1.213  -0.690  -0.013  0.00  0.00    +0.053 A 
ATOM      6  C   UNL     1       0.002  -0.004   0.002  0.00  0.00    +0.126 A 
ATOM      7  F   UNL     1      -1.161  -0.692   0.009  0.00  0.00    -0.205 F 
ATOM      8 BR   UNL     1       4.050  -0.955  -0.042  0.00  0.00    -0.050 Br
ENDROOT
BRANCH   2   9
ATOM      9  N   UNL     1       1.204   3.404   0.008  0.00  0.00    -0.168 NA
ATOM     10  C   UNL     1       2.285   4.031   0.002  0.00  0.00    +0.240 C 
ATOM     11  O   UNL     1       3.330   4.637  -0.005  0.00  0.00    -0.210 OA
ENDBRANCH   2   9
TORSDOF 1
