REMARK  Name = ZINC20702113
REMARK  11 active torsions:
REMARK  status: ('A' for Active; 'I' for Inactive)
REMARK    1  A    between atoms: C_1  and  C_2
REMARK    2  A    between atoms: C_5  and  N_9
REMARK    3  A    between atoms: C_7  and  C_8
REMARK    4  A    between atoms: N_9  and  S_10
REMARK    5  A    between atoms: S_10  and  C_13
REMARK    6  A    between atoms: C_26  and  C_29
REMARK    7  A    between atoms: C_32  and  O_37
REMARK    8  A    between atoms: C_33  and  O_35
REMARK    9  A    between atoms: O_35  and  C_36
REMARK   10  A    between atoms: O_37  and  C_38
REMARK   11  A    between atoms: C_38  and  C_40
REMARK                            x       y       z     vdW  Elec       q    Type
REMARK                         _______ _______ _______ _____ _____    ______ ____
ROOT
ATOM      1  C   UNL     1      -0.293  -2.045  -2.615  0.00  0.00    +0.109 A 
ATOM      2  C   UNL     1       0.736  -1.508  -3.366  0.00  0.00    +0.030 A 
ATOM      3  C   UNL     1       1.416  -0.396  -2.916  0.00  0.00    +0.025 A 
ATOM      4  C   UNL     1       1.074   0.194  -1.705  0.00  0.00    +0.031 A 
ATOM      5  C   UNL     1       0.040  -0.362  -0.943  0.00  0.00    -0.018 A 
ATOM      6  C   UNL     1      -0.638  -1.470  -1.405  0.00  0.00    +0.034 A 
ATOM      7  C   UNL     1      -0.279   0.281   0.349  0.00  0.00    +0.049 C 
ATOM      8  C   UNL     1      -1.629   0.194   0.962  0.00  0.00    -0.023 C 
ATOM      9  C   UNL     1      -1.850   1.301   1.660  0.00  0.00    -0.030 C 
ATOM     10  C   UNL     1      -0.653   2.245   1.537  0.00  0.00    +0.033 C 
ATOM     11  C   UNL     1      -0.058   1.815   0.189  0.00  0.00    +0.029 C 
ATOM     12  C   UNL     1       1.439   1.991   0.006  0.00  0.00    +0.105 C 
ATOM     13  N   UNL     1       1.764   1.335  -1.279  0.00  0.00    -0.336 N 
ATOM     14  H   UNL     1       2.561   1.742  -1.919  0.00  0.00    +0.147 HD
ENDROOT
BRANCH  12  15
ATOM     15  C   UNL     1       2.183   1.324   1.134  0.00  0.00    -0.023 A 
ATOM     16  C   UNL     1       2.589   0.008   1.010  0.00  0.00    +0.009 A 
ATOM     17  C   UNL     1       3.277  -0.607   2.039  0.00  0.00    +0.050 A 
ATOM     18  C   UNL     1       3.551   0.092   3.204  0.00  0.00    +0.173 A 
ATOM     19  C   UNL     1       3.138   1.415   3.332  0.00  0.00    +0.163 A 
ATOM     20  C   UNL     1       2.454   2.027   2.293  0.00  0.00    +0.055 A 
BRANCH  19  21
ATOM     21  O   UNL     1       3.405   2.105   4.472  0.00  0.00    -0.491 OA
ATOM     22  C   UNL     1       2.950   3.459   4.533  0.00  0.00    +0.277 C 
ENDBRANCH  19  21
BRANCH  18  23
ATOM     23  O   UNL     1       4.223  -0.513   4.220  0.00  0.00    -0.422 OA
BRANCH  23  24
ATOM     24  C   UNL     1       3.485  -1.075   5.189  0.00  0.00    +0.309 C 
ATOM     25  O   UNL     1       2.281  -1.112   5.088  0.00  0.00    -0.251 OA
ATOM     26  C   UNL     1       4.156  -1.661   6.404  0.00  0.00    +0.136 C 
ENDBRANCH  23  24
ENDBRANCH  18  23
ENDBRANCH  12  15
BRANCH   1  27
ATOM     27  S   UNL     1      -1.166  -3.460  -3.198  0.00  0.00    +0.072 S 
ATOM     28  O   UNL     1      -2.441  -3.438  -2.571  0.00  0.00    -0.150 OA
ATOM     29  O   UNL     1      -1.012  -3.478  -4.611  0.00  0.00    -0.150 OA
BRANCH  27  30
ATOM     30  N   UNL     1      -0.376  -4.795  -2.620  0.00  0.00    -0.216 N 
ATOM     31  H   UNL     1       0.114  -5.490  -3.318  0.00  0.00    +0.174 HD
BRANCH  30  36
ATOM     32  C   UNL     1      -0.193  -5.786   2.961  0.00  0.00    +0.044 C 
ATOM     33  C   UNL     1      -0.242  -5.522   1.478  0.00  0.00    -0.047 A 
ATOM     34  C   UNL     1      -1.432  -5.147   0.882  0.00  0.00    +0.005 A 
ATOM     35  C   UNL     1      -1.480  -4.904  -0.476  0.00  0.00    +0.025 A 
ATOM     36  C   UNL     1      -0.331  -5.039  -1.245  0.00  0.00    +0.048 A 
ATOM     37  C   UNL     1       0.862  -5.422  -0.645  0.00  0.00    +0.028 A 
ATOM     38  C   UNL     1       0.904  -5.657   0.716  0.00  0.00    -0.046 A 
ATOM     39  C   UNL     1       2.199  -6.067   1.369  0.00  0.00    +0.044 C 
ENDBRANCH  30  36
ENDBRANCH  27  30
ENDBRANCH   1  27
TORSDOF 7
