REMARK  Name = ZINC08437704
REMARK  7 active torsions:
REMARK  status: ('A' for Active; 'I' for Inactive)
REMARK    1  A    between atoms: C_1  and  C_2
REMARK    2  A    between atoms: C_5  and  N_9
REMARK    3  A    between atoms: C_15  and  C_17
REMARK    4  A    between atoms: C_15  and  C_18
REMARK    5  A    between atoms: N_26  and  C_29
REMARK    6  A    between atoms: C_30  and  C_33
REMARK    7  A    between atoms: C_31  and  N_32
REMARK                            x       y       z     vdW  Elec       q    Type
REMARK                         _______ _______ _______ _____ _____    ______ ____
ROOT
ATOM      1  N   UNL     1       0.037  -4.165  -0.024  0.00  0.00    -0.260 N 
ATOM      2  C   UNL     1       0.150  -4.842   1.162  0.00  0.00    +0.026 C 
ATOM      3  C   UNL     1      -0.182  -6.149   1.242  0.00  0.00    +0.037 C 
ATOM      4  C   UNL     1      -0.050  -6.857   2.449  0.00  0.00    +0.163 C 
ATOM      5  O   UNL     1      -0.362  -8.031   2.488  0.00  0.00    -0.292 OA
ATOM      6  C   UNL     1       0.471  -6.191   3.693  0.00  0.00    +0.086 C 
ATOM      7  C   UNL     1       1.411  -5.050   3.292  0.00  0.00    -0.023 C 
ATOM      8  C   UNL     1       0.649  -4.093   2.373  0.00  0.00    +0.058 C 
ATOM      9  C   UNL     1       1.874  -4.301   4.543  0.00  0.00    +0.011 C 
ATOM     10  C   UNL     1       2.623  -5.618   2.550  0.00  0.00    +0.011 C 
ATOM     11  C   UNL     1      -0.710  -6.884   0.038  0.00  0.00    +0.141 C 
ATOM     12  C   UNL     1      -2.185  -7.110   0.169  0.00  0.00    -0.001 A 
ATOM     13  C   UNL     1      -3.239  -6.225   0.253  0.00  0.00    +0.007 A 
ATOM     14  C   UNL     1      -4.512  -6.771   0.370  0.00  0.00    +0.000 A 
ATOM     15  C   UNL     1      -4.709  -8.137   0.400  0.00  0.00    +0.002 A 
ATOM     16  C   UNL     1      -3.654  -9.032   0.315  0.00  0.00    +0.024 A 
ATOM     17  C   UNL     1      -2.370  -8.497   0.197  0.00  0.00    +0.041 A 
ATOM     18  N   UNL     1      -1.153  -9.147   0.095  0.00  0.00    -0.273 N 
ATOM     19  C   UNL     1      -0.123  -8.281  -0.002  0.00  0.00    +0.240 C 
ATOM     20  O   UNL     1       1.051  -8.566  -0.103  0.00  0.00    -0.274 OA
ATOM     21  C   UNL     1      -1.000 -10.604   0.094  0.00  0.00    +0.138 C 
ATOM     22  C   UNL     1      -0.391  -6.158  -1.234  0.00  0.00    +0.089 C 
ATOM     23  C   UNL     1      -0.043  -4.846  -1.218  0.00  0.00    +0.108 C 
ENDROOT
BRANCH   1  28
ATOM     24  C   UNL     1      -0.126   1.507  -0.013  0.00  0.00    +0.045 C 
ATOM     25  C   UNL     1      -0.083   0.001  -0.016  0.00  0.00    -0.032 A 
ATOM     26  C   UNL     1       1.124  -0.655  -0.177  0.00  0.00    +0.006 A 
ATOM     27  C   UNL     1       1.167  -2.035  -0.180  0.00  0.00    +0.024 A 
ATOM     28  C   UNL     1      -0.004  -2.766  -0.021  0.00  0.00    +0.041 A 
ATOM     29  C   UNL     1      -1.215  -2.106   0.142  0.00  0.00    +0.044 A 
ATOM     30  C   UNL     1      -1.251  -0.724   0.149  0.00  0.00    +0.046 A 
ATOM     31 CL   UNL     1      -2.762   0.103   0.359  0.00  0.00    -0.083 Cl
ENDBRANCH   1  28
BRANCH  23  32
ATOM     32  N   UNL     1       0.235  -4.197  -2.397  0.00  0.00    -0.345 N 
ATOM     33  H   UNL     1       0.572  -3.288  -2.383  0.00  0.00    +0.144 HD
ATOM     34  H   UNL     1       0.094  -4.649  -3.244  0.00  0.00    +0.144 HD
ENDBRANCH  23  32
BRANCH  22  35
ATOM     35  C   UNL     1      -0.460  -6.856  -2.483  0.00  0.00    +0.100 C 
ATOM     36  N   UNL     1      -0.514  -7.410  -3.473  0.00  0.00    -0.191 NA
ENDBRANCH  22  35
TORSDOF 3
