REMARK  Name = ZINC12070394
REMARK  14 active torsions:
REMARK  status: ('A' for Active; 'I' for Inactive)
REMARK    1  A    between atoms: C_1  and  C_2
REMARK    2  A    between atoms: C_2  and  O_3
REMARK    3  A    between atoms: O_3  and  C_4
REMARK    4  A    between atoms: C_4  and  C_5
REMARK    5  A    between atoms: C_5  and  N_6
REMARK    6  A    between atoms: C_10  and  S_31
REMARK    7  A    between atoms: N_15  and  C_16
REMARK    8  A    between atoms: C_16  and  C_18
REMARK    9  A    between atoms: C_18  and  C_19
REMARK   10  A    between atoms: C_22  and  S_25
REMARK   11  A    between atoms: S_25  and  C_28
REMARK   12  A    between atoms: C_28  and  C_29
REMARK   13  A    between atoms: C_28  and  C_30
REMARK   14  A    between atoms: S_31  and  N_34
REMARK                            x       y       z     vdW  Elec       q    Type
REMARK                         _______ _______ _______ _____ _____    ______ ____
ROOT
ATOM      1  N   UNL     1     -10.505  -0.516   3.815  0.00  0.00    -0.319 N 
ATOM      2  C   UNL     1     -11.099  -0.002   4.952  0.00  0.00    +0.058 A 
ATOM      3  C   UNL     1     -12.415  -0.183   5.405  0.00  0.00    +0.029 A 
ATOM      4  C   UNL     1     -12.846   0.407   6.569  0.00  0.00    +0.030 A 
ATOM      5  C   UNL     1     -11.999   1.195   7.331  0.00  0.00    +0.106 A 
ATOM      6  C   UNL     1     -10.696   1.390   6.908  0.00  0.00    +0.045 A 
ATOM      7  C   UNL     1     -10.264   0.801   5.743  0.00  0.00    +0.041 A 
ATOM      8  S   UNL     1      -8.724   0.778   4.862  0.00  0.00    -0.052 S 
ATOM      9  C   UNL     1      -9.205  -0.231   3.536  0.00  0.00    +0.166 A 
ATOM     10  N   UNL     1      -8.476  -0.633   2.498  0.00  0.00    -0.156 NA
ENDROOT
BRANCH   5  11
ATOM     11  S   UNL     1     -12.574   1.941   8.820  0.00  0.00    +0.056 S 
ATOM     12  O   UNL     1     -11.744   3.070   9.055  0.00  0.00    -0.153 OA
ATOM     13  O   UNL     1     -13.986   2.045   8.702  0.00  0.00    -0.153 OA
BRANCH  11  14
ATOM     14  N   UNL     1     -12.279   0.872  10.049  0.00  0.00    -0.204 NA
ATOM     15  H   UNL     1     -12.103   1.199  10.945  0.00  0.00    +0.144 HD
ATOM     16  H   UNL     1     -12.282  -0.082   9.873  0.00  0.00    +0.144 HD
ENDBRANCH  11  14
ENDBRANCH   5  11
BRANCH  10  17
ATOM     17  C   UNL     1      -7.208  -0.251   2.388  0.00  0.00    +0.243 C 
ATOM     18  O   UNL     1      -6.714   0.467   3.236  0.00  0.00    -0.273 OA
BRANCH  17  19
ATOM     19  C   UNL     1      -6.383  -0.707   1.213  0.00  0.00    +0.133 C 
BRANCH  19  20
ATOM     20  C   UNL     1      -4.991  -0.138   1.326  0.00  0.00    -0.038 A 
ATOM     21  C   UNL     1      -4.008  -0.844   1.994  0.00  0.00    +0.006 A 
ATOM     22  C   UNL     1      -2.732  -0.323   2.097  0.00  0.00    +0.027 A 
ATOM     23  C   UNL     1      -2.438   0.903   1.530  0.00  0.00    +0.088 A 
ATOM     24  C   UNL     1      -3.423   1.611   0.866  0.00  0.00    +0.027 A 
ATOM     25  C   UNL     1      -4.698   1.088   0.760  0.00  0.00    +0.006 A 
BRANCH  23  26
ATOM     26  S   UNL     1      -0.812   1.567   1.661  0.00  0.00    -0.001 S 
ATOM     27  O   UNL     1      -0.275   0.982   2.840  0.00  0.00    -0.169 OA
ATOM     28  O   UNL     1      -0.986   2.974   1.566  0.00  0.00    -0.169 OA
BRANCH  26  29
ATOM     29  C   UNL     1       0.065   0.945   0.200  0.00  0.00    +0.130 C 
ATOM     30  C   UNL     1       1.504   1.464   0.209  0.00  0.00    +0.032 C 
ATOM     31  C   UNL     1      -0.645   1.431  -1.066  0.00  0.00    +0.032 C 
ENDBRANCH  26  29
ENDBRANCH  23  26
ENDBRANCH  19  20
ENDBRANCH  17  19
ENDBRANCH  10  17
BRANCH   1  32
ATOM     32  C   UNL     1     -11.276  -1.370   2.909  0.00  0.00    +0.152 C 
BRANCH  32  33
ATOM     33  C   UNL     1     -10.871  -1.076   1.463  0.00  0.00    +0.181 C 
BRANCH  33  34
ATOM     34  O   UNL     1     -11.716  -1.809   0.573  0.00  0.00    -0.378 OA
BRANCH  34  36
ATOM     35  C   UNL     1     -12.381  -2.433  -1.665  0.00  0.00    +0.034 C 
ATOM     36  C   UNL     1     -11.420  -1.604  -0.810  0.00  0.00    +0.156 C 
ENDBRANCH  34  36
ENDBRANCH  33  34
ENDBRANCH  32  33
ENDBRANCH   1  32
TORSDOF 11
