REMARK  Name = ZINC09347453
REMARK  14 active torsions:
REMARK  status: ('A' for Active; 'I' for Inactive)
REMARK    1  A    between atoms: C_1  and  C_2
REMARK    2  A    between atoms: C_2  and  C_3
REMARK    3  A    between atoms: C_3  and  C_4
REMARK    4  A    between atoms: C_3  and  C_6
REMARK    5  A    between atoms: C_4  and  C_5
REMARK    6  A    between atoms: C_12  and  S_14
REMARK    7  A    between atoms: S_14  and  C_15
REMARK    8  A    between atoms: C_15  and  C_17
REMARK    9  A    between atoms: C_15  and  C_18
REMARK   10  A    between atoms: N_20  and  C_21
REMARK   11  A    between atoms: C_22  and  C_30
REMARK   12  A    between atoms: C_30  and  O_32
REMARK   13  A    between atoms: O_32  and  C_33
REMARK   14  A    between atoms: C_33  and  C_34
REMARK                            x       y       z     vdW  Elec       q    Type
REMARK                         _______ _______ _______ _____ _____    ______ ____
ROOT
ATOM      1  C   UNL     1      -0.349   0.650  -0.396  0.00  0.00    +0.231 C 
ATOM      2  O   UNL     1      -0.404  -0.562  -0.384  0.00  0.00    -0.274 OA
ATOM      3  N   UNL     1       0.845   1.270  -0.474  0.00  0.00    -0.278 N 
ATOM      4  H   UNL     1       0.889   2.239  -0.483  0.00  0.00    +0.155 HD
ENDROOT
BRANCH   3   5
ATOM      5  C   UNL     1       2.010   0.522  -0.539  0.00  0.00    +0.086 A 
ATOM      6  C   UNL     1       3.321   0.974  -0.629  0.00  0.00    +0.091 A 
ATOM      7  C   UNL     1       4.373  -0.028  -0.681  0.00  0.00    -0.021 A 
ATOM      8  C   UNL     1       3.950  -1.310  -0.646  0.00  0.00    -0.004 A 
ATOM      9  S   UNL     1       2.186  -1.201  -0.538  0.00  0.00    -0.077 S 
ATOM     10  C   UNL     1       4.798  -2.543  -0.690  0.00  0.00    +0.043 C 
ATOM     11  C   UNL     1       6.206  -2.145  -1.158  0.00  0.00    +0.005 C 
ATOM     12  C   UNL     1       6.665  -0.924  -0.356  0.00  0.00    +0.005 C 
ATOM     13  C   UNL     1       5.857   0.306  -0.773  0.00  0.00    +0.037 C 
BRANCH   6  14
ATOM     14  C   UNL     1       3.631   2.404  -0.665  0.00  0.00    +0.342 C 
ATOM     15  O   UNL     1       3.828   3.010   0.371  0.00  0.00    -0.245 OA
BRANCH  14  16
ATOM     16  O   UNL     1       3.699   3.050  -1.848  0.00  0.00    -0.461 OA
BRANCH  16  17
ATOM     17  C   UNL     1       4.011   4.467  -1.808  0.00  0.00    +0.229 C 
ATOM     18  C   UNL     1       4.043   5.022  -3.233  0.00  0.00    +0.048 C 
ENDBRANCH  16  17
ENDBRANCH  14  16
ENDBRANCH   6  14
ENDBRANCH   3   5
BRANCH   1  19
ATOM     19  C   UNL     1      -1.617   1.462  -0.330  0.00  0.00    +0.136 C 
ATOM     20  C   UNL     1      -2.059   1.832  -1.748  0.00  0.00    +0.029 C 
BRANCH  19  21
ATOM     21  S   UNL     1      -2.918   0.488   0.474  0.00  0.00    -0.084 S 
BRANCH  21  28
ATOM     22  C   UNL     1      -7.968   4.887   0.902  0.00  0.00    +0.222 C 
ATOM     23  O   UNL     1      -7.072   5.566   0.448  0.00  0.00    -0.275 OA
ATOM     24  N   UNL     1      -7.736   3.603   1.239  0.00  0.00    -0.263 N 
ATOM     25  C   UNL     1      -6.497   3.025   0.969  0.00  0.00    +0.189 A 
ATOM     26  N   UNL     1      -5.423   3.545   0.399  0.00  0.00    -0.125 NA
ATOM     27  N   UNL     1      -4.366   2.877   0.232  0.00  0.00    -0.133 NA
ATOM     28  C   UNL     1      -4.270   1.610   0.607  0.00  0.00    +0.161 A 
ATOM     29  S   UNL     1      -5.905   1.367   1.296  0.00  0.00    -0.024 S 
ATOM     30  H   UNL     1      -8.431   3.080   1.669  0.00  0.00    +0.157 HD
BRANCH  22  31
ATOM     31  C   UNL     1      -9.341   5.478   1.090  0.00  0.00    +0.075 C 
BRANCH  31  33
ATOM     32  C   UNL     1     -10.833   6.695   2.683  0.00  0.00    +0.004 C 
ATOM     33  C   UNL     1      -9.405   6.202   2.437  0.00  0.00    +0.009 C 
ENDBRANCH  31  33
BRANCH  31  34
ATOM     34  C   UNL     1      -9.627   6.473  -0.037  0.00  0.00    +0.009 C 
ATOM     35  C   UNL     1      -9.697   5.726  -1.371  0.00  0.00    +0.004 C 
ENDBRANCH  31  34
ENDBRANCH  22  31
ENDBRANCH  21  28
ENDBRANCH  19  21
ENDBRANCH   1  19
TORSDOF 10
