REMARK  Name = ZINC38775135
REMARK  8 active torsions:
REMARK  status: ('A' for Active; 'I' for Inactive)
REMARK    1  A    between atoms: C_1  and  C_2
REMARK    2  A    between atoms: C_4  and  C_12
REMARK    3  A    between atoms: C_12  and  C_14
REMARK    4  A    between atoms: C_14  and  C_16
REMARK    5  A    between atoms: C_14  and  O_17
REMARK    6  A    between atoms: O_17  and  C_18
REMARK    7  A    between atoms: C_18  and  C_20
REMARK    8  A    between atoms: N_22  and  C_27
REMARK                            x       y       z     vdW  Elec       q    Type
REMARK                         _______ _______ _______ _____ _____    ______ ____
ROOT
ATOM      1  O   UNL     1      -4.727  -0.331  -1.600  0.00  0.00    -0.449 OA
ENDROOT
BRANCH   1   2
ATOM      2  C   UNL     1      -3.787  -0.953  -0.721  0.00  0.00    +0.244 C 
ATOM      3  C   UNL     1      -3.714  -2.450  -1.030  0.00  0.00    +0.061 C 
BRANCH   2   4
ATOM      4  C   UNL     1      -2.428  -0.333  -0.919  0.00  0.00    +0.202 C 
ATOM      5  O   UNL     1      -2.209   0.349  -1.899  0.00  0.00    -0.288 OA
BRANCH   4   8
ATOM      6  C   UNL     1      -0.019   1.526   0.010  0.00  0.00    +0.035 C 
ATOM      7  C   UNL     1       0.002  -0.004   0.002  0.00  0.00    +0.111 C 
ATOM      8  C   UNL     1      -1.411  -0.544   0.036  0.00  0.00    +0.030 C 
ATOM      9  C   UNL     1      -1.496  -1.289   1.198  0.00  0.00    +0.007 A 
ATOM     10  C   UNL     1      -2.543  -2.035   1.788  0.00  0.00    +0.010 A 
ATOM     11  C   UNL     1      -2.344  -2.680   2.960  0.00  0.00    +0.001 A 
ATOM     12  C   UNL     1      -1.116  -2.646   3.640  0.00  0.00    +0.002 A 
ATOM     13  C   UNL     1      -0.053  -1.963   3.162  0.00  0.00    +0.026 A 
ATOM     14  C   UNL     1      -0.185  -1.232   1.891  0.00  0.00    +0.043 A 
ATOM     15  N   UNL     1       0.660  -0.506   1.212  0.00  0.00    -0.377 N 
ATOM     16  H   UNL     1       1.578  -0.327   1.468  0.00  0.00    +0.160 HD
ENDBRANCH   4   8
ENDBRANCH   2   4
ENDBRANCH   1   2
BRANCH   1  17
ATOM     17  C   UNL     1      -6.008  -0.271  -1.183  0.00  0.00    +0.356 C 
ATOM     18  O   UNL     1      -6.318  -0.735  -0.102  0.00  0.00    -0.244 OA
BRANCH  17  19
ATOM     19  C   UNL     1      -7.027   0.353  -2.032  0.00  0.00    +0.144 C 
ATOM     20  N   UNL     1      -6.688   0.840  -3.186  0.00  0.00    -0.175 NA
ATOM     21  N   UNL     1      -7.632   1.444  -4.021  0.00  0.00    -0.188 N 
ATOM     22  C   UNL     1      -8.805   1.881  -3.521  0.00  0.00    +0.235 C 
ATOM     23  O   UNL     1      -9.618   2.408  -4.250  0.00  0.00    -0.274 OA
ATOM     24  C   UNL     1      -9.102   1.712  -2.053  0.00  0.00    +0.104 C 
ATOM     25  C   UNL     1      -8.454   0.414  -1.556  0.00  0.00    +0.073 C 
BRANCH  21  26
ATOM     26  C   UNL     1      -7.345   1.603  -5.449  0.00  0.00    +0.124 C 
ATOM     27  C   UNL     1      -7.080   0.227  -6.082  0.00  0.00    +0.049 C 
ATOM     28  C   UNL     1      -6.469   0.404  -7.492  0.00  0.00    +0.168 C 
ATOM     29  S   UNL     1      -5.597   2.017  -7.356  0.00  0.00    -0.029 S 
ATOM     30  O   UNL     1      -6.189   2.941  -8.259  0.00  0.00    -0.174 OA
ATOM     31  O   UNL     1      -4.195   1.791  -7.405  0.00  0.00    -0.174 OA
ATOM     32  C   UNL     1      -6.070   2.475  -5.635  0.00  0.00    +0.190 C 
ENDBRANCH  21  26
ENDBRANCH  17  19
ENDBRANCH   1  17
TORSDOF 6
