REMARK  Name = ZINC11690959
REMARK  9 active torsions:
REMARK  status: ('A' for Active; 'I' for Inactive)
REMARK    1  A    between atoms: C_1  and  C_2
REMARK    2  A    between atoms: C_2  and  C_3
REMARK    3  A    between atoms: C_3  and  N_4
REMARK    4  A    between atoms: C_8  and  C_18
REMARK    5  A    between atoms: N_10  and  C_11
REMARK    6  A    between atoms: C_11  and  C_13
REMARK    7  A    between atoms: C_18  and  O_20
REMARK    8  A    between atoms: O_20  and  C_21
REMARK    9  A    between atoms: C_21  and  C_22
REMARK                            x       y       z     vdW  Elec       q    Type
REMARK                         _______ _______ _______ _____ _____    ______ ____
ROOT
ATOM      1  N   UNL     1       5.732   2.601  -0.050  0.00  0.00    -0.311 N 
ATOM      2  C   UNL     1       7.009   2.263   0.318  0.00  0.00    +0.150 A 
ATOM      3  C   UNL     1       7.358   0.901   0.487  0.00  0.00    +0.083 A 
ATOM      4  C   UNL     1       6.405  -0.100   0.287  0.00  0.00    +0.035 A 
ATOM      5  C   UNL     1       5.109   0.262  -0.081  0.00  0.00    +0.100 A 
ATOM      6  C   UNL     1       4.785   1.632  -0.245  0.00  0.00    +0.142 A 
ATOM      7  N   UNL     1       3.551   1.979  -0.596  0.00  0.00    -0.158 NA
ATOM      8  C   UNL     1       8.732   0.580   0.874  0.00  0.00    +0.268 A 
ATOM      9  O   UNL     1       9.087  -0.574   1.035  0.00  0.00    -0.267 OA
ATOM     10  N   UNL     1       9.596   1.607   1.048  0.00  0.00    -0.268 N 
ATOM     11  C   UNL     1      10.882   1.336   1.409  0.00  0.00    +0.096 A 
ATOM     12  C   UNL     1      11.775   2.335   1.592  0.00  0.00    +0.018 A 
ATOM     13  C   UNL     1      11.382   3.668   1.412  0.00  0.00    +0.005 A 
ATOM     14  C   UNL     1      10.098   3.949   1.052  0.00  0.00    +0.047 A 
ATOM     15  C   UNL     1       9.181   2.897   0.865  0.00  0.00    +0.143 A 
ATOM     16  N   UNL     1       7.930   3.194   0.513  0.00  0.00    -0.211 NA
ENDROOT
BRANCH   7  17
ATOM     17  C   UNL     1       2.703   1.054  -1.067  0.00  0.00    +0.276 C 
ATOM     18  O   UNL     1       2.984   0.426  -2.075  0.00  0.00    -0.267 OA
BRANCH  17  19
ATOM     19  C   UNL     1       1.435   0.796  -0.370  0.00  0.00    +0.076 A 
ATOM     20  C   UNL     1       0.432  -0.105  -0.687  0.00  0.00    +0.021 A 
ATOM     21  C   UNL     1      -0.664  -0.139   0.141  0.00  0.00    +0.008 A 
ATOM     22  C   UNL     1      -0.707   0.689   1.217  0.00  0.00    +0.046 A 
ATOM     23  S   UNL     1       0.786   1.562   1.105  0.00  0.00    -0.092 S 
ENDBRANCH  17  19
ENDBRANCH   7  17
BRANCH   5  24
ATOM     24  C   UNL     1       4.088  -0.770  -0.298  0.00  0.00    +0.343 C 
ATOM     25  O   UNL     1       3.100  -0.806   0.411  0.00  0.00    -0.245 OA
BRANCH  24  26
ATOM     26  O   UNL     1       4.244  -1.678  -1.283  0.00  0.00    -0.461 OA
BRANCH  26  27
ATOM     27  C   UNL     1       3.194  -2.669  -1.439  0.00  0.00    +0.229 C 
ATOM     28  C   UNL     1       3.545  -3.605  -2.597  0.00  0.00    +0.048 C 
ENDBRANCH  26  27
ENDBRANCH  24  26
ENDBRANCH   5  24
BRANCH   1  29
ATOM     29  C   UNL     1       5.377   4.011  -0.231  0.00  0.00    +0.125 C 
BRANCH  29  31
ATOM     30  C   UNL     1       5.122   6.209   0.928  0.00  0.00    +0.005 C 
ATOM     31  C   UNL     1       5.615   4.768   1.077  0.00  0.00    +0.018 C 
ENDBRANCH  29  31
ENDBRANCH   1  29
TORSDOF 7
