REMARK  Name = ZINC37398449
REMARK  9 active torsions:
REMARK  status: ('A' for Active; 'I' for Inactive)
REMARK    1  A    between atoms: C_2  and  C_3
REMARK    2  A    between atoms: C_3  and  N_4
REMARK    3  A    between atoms: C_5  and  C_30
REMARK    4  A    between atoms: C_8  and  S_9
REMARK    5  A    between atoms: S_9  and  C_10
REMARK    6  A    between atoms: C_10  and  C_11
REMARK    7  A    between atoms: C_14  and  C_17
REMARK    8  A    between atoms: N_19  and  C_20
REMARK    9  A    between atoms: C_20  and  C_21
REMARK                            x       y       z     vdW  Elec       q    Type
REMARK                         _______ _______ _______ _____ _____    ______ ____
ROOT
ATOM      1  C   UNL     1       1.387  -6.160   0.356  0.00  0.00    -0.037 A 
ATOM      2  C   UNL     1       2.767  -6.138   0.254  0.00  0.00    +0.005 A 
ATOM      3  C   UNL     1       3.539  -6.853   1.146  0.00  0.00    +0.013 A 
ATOM      4  C   UNL     1       2.926  -7.600   2.153  0.00  0.00    +0.037 A 
ATOM      5  C   UNL     1       1.533  -7.618   2.251  0.00  0.00    +0.013 A 
ATOM      6  C   UNL     1       0.773  -6.894   1.356  0.00  0.00    +0.005 A 
ENDROOT
BRANCH   4   7
ATOM      7  C   UNL     1       3.747  -8.369   3.112  0.00  0.00    +0.244 C 
ATOM      8  O   UNL     1       4.959  -8.352   3.025  0.00  0.00    -0.270 OA
ATOM      9  N   UNL     1       3.152  -9.089   4.083  0.00  0.00    -0.307 N 
ATOM     10  H   UNL     1       2.184  -9.103   4.153  0.00  0.00    +0.149 HD
BRANCH   9  11
ATOM     11  C   UNL     1       3.966  -9.851   5.033  0.00  0.00    +0.140 C 
BRANCH  11  12
ATOM     12  C   UNL     1       3.064 -10.563   6.009  0.00  0.00    -0.027 A 
ATOM     13  C   UNL     1       2.686  -9.936   7.182  0.00  0.00    +0.009 A 
ATOM     14  C   UNL     1       1.859 -10.585   8.080  0.00  0.00    +0.050 A 
ATOM     15  C   UNL     1       1.407 -11.865   7.807  0.00  0.00    +0.166 A 
ATOM     16  C   UNL     1       1.788 -12.497   6.625  0.00  0.00    +0.167 A 
ATOM     17  C   UNL     1       2.613 -11.839   5.727  0.00  0.00    +0.054 A 
ATOM     18  O   UNL     1       1.219 -13.737   6.590  0.00  0.00    -0.453 OA
ATOM     19  C   UNL     1       0.819 -14.015   7.945  0.00  0.00    +0.466 C 
ATOM     20  O   UNL     1       0.599 -12.710   8.512  0.00  0.00    -0.453 OA
ENDBRANCH  11  12
ENDBRANCH   9  11
ENDBRANCH   4   7
BRANCH   1  21
ATOM     21  C   UNL     1       0.550  -5.376  -0.621  0.00  0.00    +0.112 C 
BRANCH  21  22
ATOM     22  S   UNL     1       0.276  -3.703   0.023  0.00  0.00    -0.081 S 
BRANCH  22  27
ATOM     23  N   UNL     1      -1.174  -1.642  -1.192  0.00  0.00    -0.298 N 
ATOM     24  C   UNL     1      -1.877  -1.481  -2.364  0.00  0.00    +0.167 A 
ATOM     25  N   UNL     1      -1.810  -2.620  -3.013  0.00  0.00    -0.128 NA
ATOM     26  N   UNL     1      -1.124  -3.470  -2.337  0.00  0.00    -0.122 NA
ATOM     27  C   UNL     1      -0.705  -2.924  -1.217  0.00  0.00    +0.192 A 
BRANCH  24  28
ATOM     28  C   UNL     1      -2.576  -0.256  -2.808  0.00  0.00    +0.038 A 
ATOM     29  C   UNL     1      -3.432   0.418  -1.935  0.00  0.00    +0.013 A 
ATOM     30  C   UNL     1      -4.081   1.560  -2.355  0.00  0.00    +0.001 A 
ATOM     31  C   UNL     1      -3.886   2.039  -3.639  0.00  0.00    +0.001 A 
ATOM     32  C   UNL     1      -3.040   1.376  -4.510  0.00  0.00    +0.021 A 
ATOM     33  C   UNL     1      -2.380   0.234  -4.100  0.00  0.00    +0.052 A 
ATOM     34 CL   UNL     1      -1.313  -0.593  -5.192  0.00  0.00    -0.083 Cl
ENDBRANCH  24  28
BRANCH  23  35
ATOM     35  C   UNL     1      -0.967  -0.644  -0.140  0.00  0.00    +0.152 C 
BRANCH  35  37
ATOM     36  C   UNL     1       0.211   1.462  -0.511  0.00  0.00    +0.005 C 
ATOM     37  C   UNL     1       0.274   0.155  -0.442  0.00  0.00    -0.013 C 
ENDBRANCH  35  37
ENDBRANCH  23  35
ENDBRANCH  22  27
ENDBRANCH  21  22
ENDBRANCH   1  21
TORSDOF 9
