REMARK  Name = ZINC59350382
REMARK  15 active torsions:
REMARK  status: ('A' for Active; 'I' for Inactive)
REMARK    1  A    between atoms: C_1  and  C_2
REMARK    2  A    between atoms: C_2  and  C_3
REMARK    3  A    between atoms: C_3  and  C_4
REMARK    4  A    between atoms: C_4  and  N_5
REMARK    5  A    between atoms: N_5  and  C_6
REMARK    6  A    between atoms: C_7  and  N_19
REMARK    7  A    between atoms: N_8  and  C_15
REMARK    8  A    between atoms: C_15  and  C_16
REMARK    9  A    between atoms: C_16  and  C_17
REMARK   10  A    between atoms: C_16  and  C_18
REMARK   11  A    between atoms: C_20  and  C_22
REMARK   12  A    between atoms: C_22  and  N_23
REMARK   13  A    between atoms: N_23  and  C_24
REMARK   14  A    between atoms: N_23  and  C_31
REMARK   15  A    between atoms: C_24  and  C_25
REMARK                            x       y       z     vdW  Elec       q    Type
REMARK                         _______ _______ _______ _____ _____    ______ ____
ROOT
ATOM      1  N   UNL     1      -2.814  -3.061   0.197  0.00  0.00    -0.266 N 
ATOM      2  C   UNL     1      -2.998  -3.510   1.456  0.00  0.00    +0.203 C 
ATOM      3  O   UNL     1      -3.473  -4.610   1.645  0.00  0.00    -0.277 OA
ENDROOT
BRANCH   1   4
ATOM      4  C   UNL     1      -3.269  -3.826  -0.898  0.00  0.00    +0.140 A 
ATOM      5  C   UNL     1      -2.371  -4.388  -1.782  0.00  0.00    +0.127 A 
ATOM      6  N   UNL     1      -2.845  -5.128  -2.840  0.00  0.00    -0.280 N 
ATOM      7  C   UNL     1      -4.168  -5.303  -3.011  0.00  0.00    +0.331 A 
ATOM      8  O   UNL     1      -4.567  -5.960  -3.953  0.00  0.00    -0.246 OA
ATOM      9  N   UNL     1      -5.058  -4.763  -2.159  0.00  0.00    -0.273 N 
ATOM     10  H   UNL     1      -6.006  -4.903  -2.304  0.00  0.00    +0.173 HD
ATOM     11  C   UNL     1      -4.646  -4.034  -1.104  0.00  0.00    +0.277 A 
ATOM     12  O   UNL     1      -5.461  -3.553  -0.334  0.00  0.00    -0.266 OA
BRANCH   5  13
ATOM     13  N   UNL     1      -1.020  -4.209  -1.609  0.00  0.00    -0.343 N 
ATOM     14  H   UNL     1      -0.694  -3.639  -0.895  0.00  0.00    +0.144 HD
ATOM     15  H   UNL     1      -0.392  -4.653  -2.200  0.00  0.00    +0.144 HD
ENDBRANCH   5  13
BRANCH   6  16
ATOM     16  C   UNL     1      -1.903  -5.731  -3.787  0.00  0.00    +0.131 C 
BRANCH  16  17
ATOM     17  C   UNL     1      -1.523  -7.132  -3.306  0.00  0.00    +0.003 C 
ATOM     18  C   UNL     1      -0.638  -7.809  -4.355  0.00  0.00    +0.009 C 
ATOM     19  C   UNL     1      -0.758  -7.028  -1.985  0.00  0.00    +0.009 C 
ENDBRANCH  16  17
ENDBRANCH   6  16
ENDBRANCH   1   4
BRANCH   1  20
ATOM     20  C   UNL     1      -2.143  -1.779  -0.033  0.00  0.00    +0.114 C 
BRANCH  20  21
ATOM     21  C   UNL     1      -3.191  -0.673  -0.172  0.00  0.00    +0.019 C 
BRANCH  21  23
ATOM     22  C   UNL     1      -3.537   1.772  -0.552  0.00  0.00    +0.004 C 
ATOM     23  C   UNL     1      -2.490   0.666  -0.413  0.00  0.00    -0.002 C 
ENDBRANCH  21  23
ENDBRANCH  20  21
ENDBRANCH   1  20
BRANCH   2  24
ATOM     24  C   UNL     1      -2.613  -2.644   2.628  0.00  0.00    +0.020 C 
BRANCH  24  25
ATOM     25  N   UNL     1      -3.087  -3.265   3.872  0.00  0.00    +0.390 N 
ATOM     26  H   UNL     1      -2.976  -4.266   3.812  0.00  0.00    -0.080 HD
BRANCH  25  27
ATOM     27  C   UNL     1      -4.506  -2.941   4.071  0.00  0.00    -0.067 C 
ATOM     28  C   UNL     1      -5.323  -3.484   2.897  0.00  0.00    -0.015 C 
ATOM     29  C   UNL     1      -6.801  -3.146   3.103  0.00  0.00    -0.002 C 
ATOM     30  C   UNL     1      -6.971  -1.628   3.184  0.00  0.00    -0.000 C 
ATOM     31  C   UNL     1      -6.154  -1.085   4.359  0.00  0.00    -0.002 C 
ATOM     32  C   UNL     1      -4.676  -1.423   4.152  0.00  0.00    -0.015 C 
ENDBRANCH  25  27
BRANCH  25  33
ATOM     33  C   UNL     1      -2.305  -2.753   5.005  0.00  0.00    -0.042 C 
BRANCH  33  34
ATOM     34  C   UNL     1      -2.692  -3.493   6.259  0.00  0.00    -0.064 A 
ATOM     35  C   UNL     1      -3.750  -3.045   7.027  0.00  0.00    +0.002 A 
ATOM     36  C   UNL     1      -4.106  -3.724   8.178  0.00  0.00    +0.000 A 
ATOM     37  C   UNL     1      -3.403  -4.851   8.560  0.00  0.00    +0.000 A 
ATOM     38  C   UNL     1      -2.346  -5.300   7.791  0.00  0.00    +0.000 A 
ATOM     39  C   UNL     1      -1.993  -4.624   6.638  0.00  0.00    +0.002 A 
ENDBRANCH  33  34
ENDBRANCH  25  33
ENDBRANCH  24  25
ENDBRANCH   2  24
TORSDOF 12
