REMARK  Name = ZINC12452312
REMARK  10 active torsions:
REMARK  status: ('A' for Active; 'I' for Inactive)
REMARK    1  A    between atoms: C_1  and  C_2
REMARK    2  A    between atoms: C_7  and  C_19
REMARK    3  A    between atoms: C_15  and  O_18
REMARK    4  A    between atoms: C_19  and  N_20
REMARK    5  A    between atoms: N_20  and  C_21
REMARK    6  A    between atoms: C_21  and  C_22
REMARK    7  A    between atoms: C_22  and  C_23
REMARK    8  A    between atoms: C_23  and  N_24
REMARK    9  A    between atoms: C_30  and  C_32
REMARK   10  A    between atoms: C_35  and  C_37
REMARK                            x       y       z     vdW  Elec       q    Type
REMARK                         _______ _______ _______ _____ _____    ______ ____
ROOT
ATOM      1  C   UNL     1     -12.431   5.490  -5.441  0.00  0.00    +0.044 C 
ATOM      2  C   UNL     1     -11.274   4.542  -5.254  0.00  0.00    -0.048 A 
ATOM      3  C   UNL     1     -10.087   4.763  -5.949  0.00  0.00    +0.004 A 
ATOM      4  C   UNL     1      -9.024   3.925  -5.801  0.00  0.00    +0.010 A 
ATOM      5  C   UNL     1      -9.124   2.823  -4.937  0.00  0.00    -0.001 A 
ATOM      6  C   UNL     1      -8.044   1.936  -4.753  0.00  0.00    +0.018 A 
ATOM      7  C   UNL     1      -8.209   0.885  -3.904  0.00  0.00    +0.008 A 
ATOM      8  C   UNL     1      -9.428   0.714  -3.232  0.00  0.00    +0.104 A 
ATOM      9  C   UNL     1     -10.330   2.596  -4.229  0.00  0.00    +0.048 A 
ATOM     10  C   UNL     1     -11.405   3.484  -4.408  0.00  0.00    +0.029 A 
ATOM     11  N   UNL     1      -9.580  -0.359  -2.366  0.00  0.00    -0.314 N 
ATOM     12  C   UNL     1      -9.223   0.018  -0.993  0.00  0.00    +0.106 C 
ATOM     13  C   UNL     1      -9.262  -1.221  -0.095  0.00  0.00    +0.021 C 
ATOM     14  C   UNL     1     -10.668  -1.825  -0.129  0.00  0.00    +0.034 C 
ATOM     15  C   UNL     1     -11.034  -2.165  -1.577  0.00  0.00    +0.132 C 
ATOM     16  C   UNL     1     -10.944  -0.898  -2.431  0.00  0.00    +0.137 C 
ATOM     17  N   UNL     1     -10.498   1.536  -3.365  0.00  0.00    -0.343 N 
ATOM     18  H   UNL     1     -11.376   1.380  -2.856  0.00  0.00    +0.167 HD
ENDROOT
BRANCH  15  19
ATOM     19  O   UNL     1     -12.367  -2.678  -1.623  0.00  0.00    -0.390 OA
ATOM     20  H   UNL     1     -12.497  -3.483  -1.103  0.00  0.00    +0.210 HD
ENDBRANCH  15  19
BRANCH   7  21
ATOM     21  C   UNL     1      -7.081  -0.090  -3.681  0.00  0.00    +0.146 C 
BRANCH  21  22
ATOM     22  N   UNL     1      -5.943   0.278  -4.527  0.00  0.00    -0.293 N 
ATOM     23  C   UNL     1      -5.870  -0.176  -5.794  0.00  0.00    +0.254 C 
ATOM     24  O   UNL     1      -4.880   0.047  -6.464  0.00  0.00    -0.269 OA
BRANCH  23  25
ATOM     25  C   UNL     1      -6.984  -0.940  -6.364  0.00  0.00    +0.074 A 
ATOM     26  C   UNL     1      -7.065  -1.586  -7.587  0.00  0.00    +0.021 A 
ATOM     27  C   UNL     1      -8.240  -2.235  -7.876  0.00  0.00    +0.011 A 
ATOM     28  C   UNL     1      -9.249  -2.214  -6.967  0.00  0.00    -0.013 A 
ATOM     29  S   UNL     1      -8.587  -1.286  -5.661  0.00  0.00    -0.089 S 
ATOM     30  C   UNL     1     -10.612  -2.849  -7.067  0.00  0.00    +0.051 C 
ENDBRANCH  23  25
BRANCH  22  31
ATOM     31  C   UNL     1      -4.885   1.140  -3.996  0.00  0.00    +0.110 C 
BRANCH  31  32
ATOM     32  C   UNL     1      -3.798   0.276  -3.352  0.00  0.00    +0.038 C 
BRANCH  32  33
ATOM     33  C   UNL     1      -2.693   1.177  -2.797  0.00  0.00    +0.109 C 
BRANCH  33  34
ATOM     34  N   UNL     1      -1.653   0.349  -2.181  0.00  0.00    -0.301 N 
ATOM     35  C   UNL     1      -1.646  -0.058  -0.771  0.00  0.00    +0.108 C 
ATOM     36  C   UNL     1      -0.196  -0.518  -0.480  0.00  0.00    +0.028 C 
ATOM     37  C   UNL     1       0.286  -0.936  -1.889  0.00  0.00    +0.097 C 
ATOM     38  C   UNL     1      -0.582  -0.134  -2.834  0.00  0.00    +0.216 C 
ATOM     39  O   UNL     1      -0.345   0.046  -4.010  0.00  0.00    -0.276 OA
ENDBRANCH  33  34
ENDBRANCH  32  33
ENDBRANCH  31  32
ENDBRANCH  22  31
ENDBRANCH  21  22
ENDBRANCH   7  21
TORSDOF 8
