REMARK  Name = ZINC20106823
REMARK  9 active torsions:
REMARK  status: ('A' for Active; 'I' for Inactive)
REMARK    1  A    between atoms: C_1  and  C_2
REMARK    2  A    between atoms: C_2  and  C_3
REMARK    3  A    between atoms: C_2  and  C_4
REMARK    4  A    between atoms: C_7  and  N_10
REMARK    5  A    between atoms: C_11  and  C_13
REMARK    6  A    between atoms: N_24  and  C_36
REMARK    7  A    between atoms: C_25  and  C_27
REMARK    8  A    between atoms: N_29  and  C_30
REMARK    9  A    between atoms: C_36  and  C_37
REMARK                            x       y       z     vdW  Elec       q    Type
REMARK                         _______ _______ _______ _____ _____    ______ ____
ROOT
ATOM      1  C   UNL     1       1.806   0.836   1.172  0.00  0.00    +0.123 C 
ATOM      2  C   UNL     1       1.506   1.744  -0.065  0.00  0.00    +0.155 C 
ATOM      3  C   UNL     1       1.919   0.951  -1.310  0.00  0.00    +0.004 C 
ATOM      4  C   UNL     1       1.010  -0.016  -1.487  0.00  0.00    +0.009 C 
ATOM      5  C   UNL     1       0.079   0.162  -0.342  0.00  0.00    +0.127 C 
ATOM      6  C   UNL     1       0.830  -0.333   0.950  0.00  0.00    +0.128 C 
ATOM      7  C   UNL     1      -0.307  -0.403   1.930  0.00  0.00    +0.224 C 
ATOM      8  O   UNL     1      -0.201  -0.310   3.135  0.00  0.00    -0.275 OA
ATOM      9  N   UNL     1      -1.470  -0.587   1.256  0.00  0.00    -0.282 N 
ATOM     10  C   UNL     1      -1.247  -0.519  -0.208  0.00  0.00    +0.199 C 
ATOM     11  O   UNL     1       0.041   1.600  -0.135  0.00  0.00    -0.358 OA
ENDROOT
BRANCH   1  13
ATOM     12  N   UNL     1       4.242   1.233   1.331  0.00  0.00    -0.285 N 
ATOM     13  C   UNL     1       3.235   0.356   1.153  0.00  0.00    +0.224 C 
ATOM     14  O   UNL     1       3.477  -0.820   0.979  0.00  0.00    -0.275 OA
ATOM     15  H   UNL     1       4.029   2.309   1.402  0.00  0.00    +0.155 HD
BRANCH  12  19
ATOM     16  C   UNL     1       8.168  -0.135   1.609  0.00  0.00    -0.045 A 
ATOM     17  C   UNL     1       7.904   1.091   1.027  0.00  0.00    +0.006 A 
ATOM     18  C   UNL     1       6.604   1.548   0.933  0.00  0.00    +0.023 A 
ATOM     19  C   UNL     1       5.561   0.773   1.424  0.00  0.00    +0.033 A 
ATOM     20  C   UNL     1       5.830  -0.455   2.014  0.00  0.00    +0.023 A 
ATOM     21  C   UNL     1       7.132  -0.908   2.100  0.00  0.00    +0.006 A 
BRANCH  16  23
ATOM     22  C   UNL     1       9.950  -0.845   3.181  0.00  0.00    +0.012 C 
ATOM     23  C   UNL     1       9.588  -0.629   1.710  0.00  0.00    +0.013 C 
ATOM     24  C   UNL     1       9.722  -1.952   0.952  0.00  0.00    +0.012 C 
ENDBRANCH  16  23
ENDBRANCH  12  19
ENDBRANCH   1  13
BRANCH  10  25
ATOM     25  C   UNL     1      -1.190  -1.905  -0.798  0.00  0.00    +0.237 C 
ATOM     26  O   UNL     1      -1.055  -2.868  -0.073  0.00  0.00    -0.274 OA
ATOM     27  N   UNL     1      -1.290  -2.074  -2.132  0.00  0.00    -0.311 N 
ATOM     28  H   UNL     1      -1.412  -1.201  -2.789  0.00  0.00    +0.149 HD
BRANCH  27  29
ATOM     29  C   UNL     1      -1.235  -3.421  -2.705  0.00  0.00    +0.073 C 
ATOM     30  C   UNL     1       0.226  -3.829  -2.910  0.00  0.00    +0.022 C 
ATOM     31  C   UNL     1       0.283  -5.236  -3.509  0.00  0.00    +0.002 C 
ATOM     32  C   UNL     1      -0.443  -5.247  -4.856  0.00  0.00    +0.000 C 
ATOM     33  C   UNL     1      -1.903  -4.839  -4.651  0.00  0.00    +0.002 C 
ATOM     34  C   UNL     1      -1.961  -3.432  -4.052  0.00  0.00    +0.022 C 
ENDBRANCH  27  29
ENDBRANCH  10  25
BRANCH   9  35
ATOM     35  C   UNL     1      -2.771  -0.820   1.889  0.00  0.00    +0.143 C 
BRANCH  35  36
ATOM     36  C   UNL     1      -2.978  -2.301   2.078  0.00  0.00    -0.030 A 
ATOM     37  C   UNL     1      -3.592  -3.045   1.088  0.00  0.00    +0.005 A 
ATOM     38  C   UNL     1      -3.779  -4.404   1.259  0.00  0.00    +0.000 A 
ATOM     39  C   UNL     1      -3.360  -5.017   2.425  0.00  0.00    +0.000 A 
ATOM     40  C   UNL     1      -2.751  -4.272   3.417  0.00  0.00    +0.000 A 
ATOM     41  C   UNL     1      -2.560  -2.914   3.244  0.00  0.00    +0.005 A 
ENDBRANCH  35  36
ENDBRANCH   9  35
TORSDOF 7
