REMARK  Name = ZINC12329177
REMARK  8 active torsions:
REMARK  status: ('A' for Active; 'I' for Inactive)
REMARK    1  A    between atoms: C_1  and  C_2
REMARK    2  A    between atoms: C_8  and  O_33
REMARK    3  A    between atoms: C_17  and  C_18
REMARK    4  A    between atoms: C_17  and  N_63
REMARK    5  A    between atoms: C_18  and  C_20
REMARK    6  A    between atoms: C_18  and  O_32
REMARK    7  A    between atoms: C_21  and  C_31
REMARK    8  A    between atoms: C_28  and  C_30
REMARK                            x       y       z     vdW  Elec       q    Type
REMARK                         _______ _______ _______ _____ _____    ______ ____
ROOT
ATOM      1  C   UNL     1       3.760   9.217  -5.685  0.00  0.00    +0.044 C 
ATOM      2  C   UNL     1       3.712   7.735  -5.414  0.00  0.00    -0.050 A 
ATOM      3  C   UNL     1       4.686   7.144  -4.631  0.00  0.00    +0.007 A 
ATOM      4  C   UNL     1       4.641   5.787  -4.383  0.00  0.00    +0.046 A 
ATOM      5  C   UNL     1       3.619   5.011  -4.918  0.00  0.00    +0.127 A 
ATOM      6  C   UNL     1       2.644   5.606  -5.700  0.00  0.00    +0.023 A 
ATOM      7  C   UNL     1       2.695   6.968  -5.947  0.00  0.00    +0.013 A 
ATOM      8  C   UNL     1       1.514   4.803  -6.294  0.00  0.00    +0.152 C 
ATOM      9  C   UNL     1       1.878   3.316  -6.283  0.00  0.00    +0.084 C 
ATOM     10  C   UNL     1       2.401   2.958  -4.888  0.00  0.00    +0.110 C 
ATOM     11  O   UNL     1       3.611   3.678  -4.655  0.00  0.00    -0.485 OA
ATOM     12  C   UNL     1       2.670   1.454  -4.815  0.00  0.00    +0.029 C 
ATOM     13  C   UNL     1       3.129   1.089  -3.401  0.00  0.00    -0.075 C 
ATOM     14  C   UNL     1       1.857   2.920  -2.452  0.00  0.00    -0.075 C 
ATOM     15  C   UNL     1       1.358   3.341  -3.837  0.00  0.00    +0.029 C 
ATOM     16  N   UNL     1       2.066   1.457  -2.442  0.00  0.00    +0.382 N 
ATOM     17  H   UNL     1       1.193   0.994  -2.719  0.00  0.00    -0.082 HD
ENDROOT
BRANCH   8  18
ATOM     18  O   UNL     1       1.286   5.226  -7.640  0.00  0.00    -0.387 OA
ATOM     19  H   UNL     1       1.048   6.160  -7.723  0.00  0.00    +0.210 HD
ENDBRANCH   8  18
BRANCH  16  20
ATOM     20  C   UNL     1       2.436   1.010  -1.083  0.00  0.00    -0.042 C 
BRANCH  20  21
ATOM     21  C   UNL     1       1.386   1.513  -0.089  0.00  0.00    +0.130 C 
BRANCH  21  22
ATOM     22  C   UNL     1       1.734   1.032   1.296  0.00  0.00    +0.007 A 
ATOM     23  C   UNL     1       2.243   1.771   2.294  0.00  0.00    +0.019 A 
ATOM     24  N   UNL     1       2.425   0.994   3.405  0.00  0.00    -0.358 N 
ATOM     25  H   UNL     1       2.779   1.307   4.252  0.00  0.00    +0.166 HD
ATOM     26  C   UNL     1       2.037  -0.300   3.139  0.00  0.00    +0.047 A 
ATOM     27  C   UNL     1       1.587  -0.333   1.806  0.00  0.00    +0.005 A 
ATOM     28  C   UNL     1       1.127  -1.531   1.256  0.00  0.00    +0.010 A 
ATOM     29  C   UNL     1       1.116  -2.667   2.016  0.00  0.00    +0.004 A 
ATOM     30  C   UNL     1       1.558  -2.639   3.331  0.00  0.00    -0.048 A 
ATOM     31  C   UNL     1       2.016  -1.468   3.894  0.00  0.00    +0.029 A 
ATOM     32  C   UNL     1       1.537  -3.903   4.152  0.00  0.00    +0.044 C 
ATOM     33  C   UNL     1       2.563   3.241   2.204  0.00  0.00    +0.063 C 
ENDBRANCH  21  22
BRANCH  21  34
ATOM     34  O   UNL     1       0.101   1.011  -0.460  0.00  0.00    -0.389 OA
ATOM     35  H   UNL     1       0.066   0.049  -0.552  0.00  0.00    +0.210 HD
ENDBRANCH  21  34
ENDBRANCH  20  21
ENDBRANCH  16  20
TORSDOF 5
