REMARK  Name = ZINC39767320
REMARK  13 active torsions:
REMARK  status: ('A' for Active; 'I' for Inactive)
REMARK    1  A    between atoms: C_1  and  C_2
REMARK    2  A    between atoms: C_7  and  N_8
REMARK    3  A    between atoms: C_9  and  C_11
REMARK    4  A    between atoms: C_11  and  S_12
REMARK    5  A    between atoms: S_12  and  C_13
REMARK    6  A    between atoms: C_16  and  C_22
REMARK    7  A    between atoms: N_17  and  C_18
REMARK    8  A    between atoms: C_18  and  C_19
REMARK    9  A    between atoms: C_19  and  C_20
REMARK   10  A    between atoms: C_19  and  C_21
REMARK   11  A    between atoms: C_22  and  C_24
REMARK   12  A    between atoms: C_22  and  N_25
REMARK   13  A    between atoms: C_26  and  C_28
REMARK                            x       y       z     vdW  Elec       q    Type
REMARK                         _______ _______ _______ _____ _____    ______ ____
ROOT
ATOM      1  C   UNL     1      -0.384  -0.116   7.687  0.00  0.00    +0.192 A 
ATOM      2  N   UNL     1      -0.409   1.197   7.714  0.00  0.00    -0.122 NA
ATOM      3  N   UNL     1      -0.507   1.606   8.929  0.00  0.00    -0.132 NA
ATOM      4  C   UNL     1      -0.550   0.589   9.742  0.00  0.00    +0.154 A 
ATOM      5  N   UNL     1      -0.479  -0.545   8.979  0.00  0.00    -0.304 N 
ENDROOT
BRANCH   4   6
ATOM      6  C   UNL     1      -0.663   0.649  11.243  0.00  0.00    +0.138 C 
ATOM      7  C   UNL     1      -2.096   1.018  11.632  0.00  0.00    +0.036 C 
BRANCH   6   8
ATOM      8  N   UNL     1       0.259   1.662  11.762  0.00  0.00    -0.302 N 
ATOM      9  C   UNL     1       0.717   1.573  13.026  0.00  0.00    +0.245 C 
ATOM     10  O   UNL     1       0.364   0.651  13.737  0.00  0.00    -0.270 OA
ATOM     11  H   UNL     1       0.541   2.397  11.195  0.00  0.00    +0.150 HD
BRANCH   9  12
ATOM     12  C   UNL     1       1.647   2.595  13.550  0.00  0.00    +0.037 A 
ATOM     13  C   UNL     1       2.050   3.657  12.738  0.00  0.00    +0.014 A 
ATOM     14  C   UNL     1       2.918   4.608  13.232  0.00  0.00    +0.021 A 
ATOM     15  C   UNL     1       3.391   4.510  14.530  0.00  0.00    +0.041 A 
ATOM     16  C   UNL     1       2.995   3.458  15.340  0.00  0.00    +0.021 A 
ATOM     17  C   UNL     1       2.123   2.505  14.859  0.00  0.00    +0.014 A 
ATOM     18 CL   UNL     1       4.485   5.710  15.145  0.00  0.00    -0.084 Cl
ENDBRANCH   9  12
ENDBRANCH   6   8
ENDBRANCH   4   6
BRANCH   1  19
ATOM     19  S   UNL     1      -0.259  -1.131   6.252  0.00  0.00    -0.077 S 
BRANCH  19  20
ATOM     20  C   UNL     1      -0.168   0.054   4.882  0.00  0.00    +0.173 C 
BRANCH  20  22
ATOM     21  N   UNL     1       0.025  -0.014   2.417  0.00  0.00    -0.285 N 
ATOM     22  C   UNL     1      -0.056  -0.693   3.578  0.00  0.00    +0.227 C 
ATOM     23  O   UNL     1      -0.040  -1.906   3.574  0.00  0.00    -0.275 OA
ATOM     24  H   UNL     1       0.078   0.955   2.424  0.00  0.00    +0.155 HD
BRANCH  21  31
ATOM     25  C   UNL     1      -1.265   1.183   0.181  0.00  0.00    +0.045 C 
ATOM     26  C   UNL     1      -0.584  -0.158   0.084  0.00  0.00    -0.029 A 
ATOM     27  C   UNL     1      -0.569  -0.840  -1.117  0.00  0.00    +0.006 A 
ATOM     28  C   UNL     1       0.054  -2.070  -1.207  0.00  0.00    +0.020 A 
ATOM     29  C   UNL     1       0.667  -2.622  -0.095  0.00  0.00    +0.043 A 
ATOM     30  C   UNL     1       0.655  -1.944   1.109  0.00  0.00    +0.043 A 
ATOM     31  C   UNL     1       0.034  -0.706   1.201  0.00  0.00    +0.038 A 
ATOM     32 CL   UNL     1       1.449  -4.168  -0.213  0.00  0.00    -0.083 Cl
ENDBRANCH  21  31
ENDBRANCH  20  22
ENDBRANCH  19  20
ENDBRANCH   1  19
BRANCH   5  33
ATOM     33  C   UNL     1      -0.498  -1.931   9.452  0.00  0.00    +0.128 C 
BRANCH  33  34
ATOM     34  C   UNL     1       0.934  -2.395   9.729  0.00  0.00    +0.003 C 
ATOM     35  C   UNL     1       1.519  -1.581  10.885  0.00  0.00    +0.009 C 
ATOM     36  C   UNL     1       0.926  -3.878  10.103  0.00  0.00    +0.009 C 
ENDBRANCH  33  34
ENDBRANCH   5  33
TORSDOF 9
