REMARK  Name = ZINC10682417
REMARK  6 active torsions:
REMARK  status: ('A' for Active; 'I' for Inactive)
REMARK    1  A    between atoms: C_3  and  C_6
REMARK    2  A    between atoms: C_6  and  N_7
REMARK    3  A    between atoms: C_16  and  S_17
REMARK    4  A    between atoms: S_17  and  C_18
REMARK    5  A    between atoms: C_18  and  C_19
REMARK    6  A    between atoms: N_24  and  C_25
REMARK                            x       y       z     vdW  Elec       q    Type
REMARK                         _______ _______ _______ _____ _____    ______ ____
ROOT
ATOM      1  N   UNL     1      -0.260   0.242  11.223  0.00  0.00    -0.280 N 
ATOM      2  C   UNL     1       0.017  -0.661  12.182  0.00  0.00    +0.264 A 
ATOM      3  O   UNL     1      -0.058  -0.355  13.360  0.00  0.00    -0.267 OA
ATOM      4  C   UNL     1       0.401  -1.985  11.799  0.00  0.00    +0.076 A 
ATOM      5  C   UNL     1       0.743  -3.116  12.664  0.00  0.00    -0.023 A 
ATOM      6  C   UNL     1       1.074  -4.273  12.057  0.00  0.00    -0.004 A 
ATOM      7  S   UNL     1       0.952  -3.933  10.321  0.00  0.00    -0.073 S 
ATOM      8  C   UNL     1       0.456  -2.232  10.417  0.00  0.00    +0.117 A 
ATOM      9  N   UNL     1       0.164  -1.297   9.521  0.00  0.00    -0.216 NA
ATOM     10  C   UNL     1      -0.181  -0.083   9.900  0.00  0.00    +0.173 A 
ATOM     11  C   UNL     1       1.461  -5.564  12.712  0.00  0.00    +0.043 C 
ATOM     12  C   UNL     1       1.787  -5.281  14.185  0.00  0.00    +0.005 C 
ATOM     13  C   UNL     1       0.670  -4.418  14.779  0.00  0.00    +0.005 C 
ATOM     14  C   UNL     1       0.730  -3.010  14.187  0.00  0.00    +0.037 C 
ENDROOT
BRANCH   1  15
ATOM     15  C   UNL     1      -0.653   1.600  11.608  0.00  0.00    +0.201 C 
BRANCH  15  18
ATOM     16  C   UNL     1      -4.209   1.601  12.577  0.00  0.00    +0.041 A 
ATOM     17  C   UNL     1      -2.841   1.424  12.886  0.00  0.00    +0.046 A 
ATOM     18  C   UNL     1      -2.151   1.666  11.757  0.00  0.00    +0.125 A 
ATOM     19  O   UNL     1      -3.025   1.970  10.784  0.00  0.00    -0.466 OA
ATOM     20  C   UNL     1      -4.274   1.932  11.275  0.00  0.00    +0.195 A 
ENDBRANCH  15  18
ENDBRANCH   1  15
BRANCH  10  21
ATOM     21  S   UNL     1      -0.554   1.135   8.683  0.00  0.00    -0.078 S 
BRANCH  21  22
ATOM     22  C   UNL     1      -0.289   0.166   7.177  0.00  0.00    +0.173 C 
BRANCH  22  23
ATOM     23  C   UNL     1      -0.557   1.028   5.971  0.00  0.00    +0.231 C 
ATOM     24  O   UNL     1      -0.894   2.184   6.115  0.00  0.00    -0.274 OA
ATOM     25  N   UNL     1      -0.423   0.515   4.732  0.00  0.00    -0.239 N 
ATOM     26  C   UNL     1      -0.663   1.286   3.653  0.00  0.00    +0.306 C 
ATOM     27  O   UNL     1      -1.000   2.444   3.797  0.00  0.00    -0.252 OA
ATOM     28  N   UNL     1      -0.528   0.772   2.414  0.00  0.00    -0.296 N 
ATOM     29  H   UNL     1      -0.153  -0.410   4.617  0.00  0.00    +0.159 HD
ATOM     30  H   UNL     1      -0.258  -0.152   2.299  0.00  0.00    +0.151 HD
BRANCH  28  31
ATOM     31  C   UNL     1      -0.789   1.611   1.242  0.00  0.00    +0.074 C 
ATOM     32  C   UNL     1      -0.013   1.086   0.008  0.00  0.00    +0.022 C 
ATOM     33  C   UNL     1      -0.809   1.622  -1.200  0.00  0.00    +0.002 C 
ATOM     34  C   UNL     1      -2.243   1.875  -0.703  0.00  0.00    +0.002 C 
ATOM     35  C   UNL     1      -2.268   1.485   0.789  0.00  0.00    +0.022 C 
ENDBRANCH  28  31
ENDBRANCH  22  23
ENDBRANCH  21  22
ENDBRANCH  10  21
TORSDOF 6
