REMARK  Name = ZINC36628678
REMARK  10 active torsions:
REMARK  status: ('A' for Active; 'I' for Inactive)
REMARK    1  A    between atoms: C_1  and  C_2
REMARK    2  A    between atoms: C_4  and  C_37
REMARK    3  A    between atoms: C_6  and  S_8
REMARK    4  A    between atoms: S_8  and  C_9
REMARK    5  A    between atoms: C_9  and  C_10
REMARK    6  A    between atoms: C_13  and  C_16
REMARK    7  A    between atoms: N_18  and  N_19
REMARK    8  A    between atoms: C_20  and  C_22
REMARK    9  A    between atoms: C_22  and  C_23
REMARK   10  A    between atoms: C_23  and  N_24
REMARK                            x       y       z     vdW  Elec       q    Type
REMARK                         _______ _______ _______ _____ _____    ______ ____
ROOT
ATOM      1  C   UNL     1       0.097  -3.857   9.188  0.00  0.00    +0.260 C 
ATOM      2  O   UNL     1      -0.950  -4.120   9.747  0.00  0.00    -0.269 OA
ATOM      3  N   UNL     1       1.270  -4.107   9.801  0.00  0.00    -0.230 N 
ATOM      4  H   UNL     1       2.106  -3.897   9.355  0.00  0.00    +0.173 HD
ENDROOT
BRANCH   1   8
ATOM      5  C   UNL     1       0.056  -2.148   5.299  0.00  0.00    -0.037 A 
ATOM      6  C   UNL     1      -1.137  -2.447   5.933  0.00  0.00    +0.005 A 
ATOM      7  C   UNL     1      -1.131  -3.002   7.196  0.00  0.00    +0.013 A 
ATOM      8  C   UNL     1       0.083  -3.263   7.834  0.00  0.00    +0.038 A 
ATOM      9  C   UNL     1       1.283  -2.959   7.189  0.00  0.00    +0.013 A 
ATOM     10  C   UNL     1       1.262  -2.409   5.924  0.00  0.00    +0.005 A 
BRANCH   5  11
ATOM     11  C   UNL     1       0.041  -1.542   3.919  0.00  0.00    +0.112 C 
BRANCH  11  12
ATOM     12  S   UNL     1       0.053  -2.864   2.678  0.00  0.00    -0.081 S 
BRANCH  12  18
ATOM     13  C   UNL     1      -0.018   1.503   0.010  0.00  0.00    +0.066 C 
ATOM     14  C   UNL     1       0.002  -0.004   0.002  0.00  0.00    +0.043 A 
ATOM     15  C   UNL     1       0.006  -0.699  -1.198  0.00  0.00    +0.046 A 
ATOM     16  C   UNL     1       0.025  -2.084  -1.161  0.00  0.00    +0.043 A 
ATOM     17  N   UNL     1       0.039  -2.699   0.010  0.00  0.00    -0.227 NA
ATOM     18  C   UNL     1       0.035  -2.005   1.140  0.00  0.00    +0.189 A 
ATOM     19  N   UNL     1       0.022  -0.679   1.139  0.00  0.00    -0.227 NA
ATOM     20  C   UNL     1       0.029  -2.881  -2.440  0.00  0.00    +0.066 C 
ENDBRANCH  12  18
ENDBRANCH  11  12
ENDBRANCH   5  11
ENDBRANCH   1   8
BRANCH   3  21
ATOM     21  N   UNL     1       1.284  -4.670  11.084  0.00  0.00    -0.234 N 
ATOM     22  C   UNL     1       2.458  -4.921  11.698  0.00  0.00    +0.231 C 
ATOM     23  O   UNL     1       3.502  -4.658  11.140  0.00  0.00    -0.274 OA
ATOM     24  H   UNL     1       0.449  -4.880  11.530  0.00  0.00    +0.173 HD
BRANCH  22  25
ATOM     25  C   UNL     1       2.472  -5.527  13.078  0.00  0.00    +0.117 C 
BRANCH  25  26
ATOM     26  C   UNL     1       3.920  -5.706  13.540  0.00  0.00    +0.125 C 
BRANCH  26  27
ATOM     27  N   UNL     1       3.934  -6.295  14.882  0.00  0.00    -0.241 N 
ATOM     28  C   UNL     1       3.918  -5.554  16.023  0.00  0.00    +0.226 C 
ATOM     29  O   UNL     1       4.103  -4.360  16.120  0.00  0.00    -0.275 OA
ATOM     30  C   UNL     1       3.625  -6.513  17.132  0.00  0.00    +0.087 C 
ATOM     31  C   UNL     1       4.228  -6.285  18.498  0.00  0.00    +0.013 C 
ATOM     32  C   UNL     1       3.783  -7.464  19.382  0.00  0.00    +0.001 C 
ATOM     33  C   UNL     1       4.179  -8.810  18.785  0.00  0.00    +0.001 C 
ATOM     34  C   UNL     1       3.693  -8.959  17.329  0.00  0.00    +0.013 C 
ATOM     35  C   UNL     1       4.285  -7.803  16.559  0.00  0.00    +0.087 C 
ATOM     36  C   UNL     1       3.958  -7.636  15.108  0.00  0.00    +0.226 C 
ATOM     37  O   UNL     1       3.758  -8.516  14.299  0.00  0.00    -0.275 OA
ENDBRANCH  26  27
ENDBRANCH  25  26
ENDBRANCH  22  25
ENDBRANCH   3  21
TORSDOF 8
