REMARK  Name = ZINC40322030
REMARK  9 active torsions:
REMARK  status: ('A' for Active; 'I' for Inactive)
REMARK    1  A    between atoms: C_1  and  N_2
REMARK    2  A    between atoms: N_2  and  C_3
REMARK    3  A    between atoms: N_2  and  C_4
REMARK    4  A    between atoms: C_4  and  C_6
REMARK    5  A    between atoms: C_4  and  C_25
REMARK    6  A    between atoms: C_6  and  N_7
REMARK    7  A    between atoms: C_8  and  C_10
REMARK    8  A    between atoms: C_13  and  S_15
REMARK    9  A    between atoms: S_15  and  C_18
REMARK                            x       y       z     vdW  Elec       q    Type
REMARK                         _______ _______ _______ _____ _____    ______ ____
ROOT
ATOM      1  N   UNL     1       0.204  -2.151   0.754  0.00  0.00    -0.310 N 
ATOM      2  C   UNL     1       0.641  -3.421   0.866  0.00  0.00    +0.279 C 
ATOM      3  O   UNL     1       0.252  -4.269   0.083  0.00  0.00    -0.267 OA
ATOM      4  H   UNL     1       0.514  -1.475   1.378  0.00  0.00    +0.149 HD
ENDROOT
BRANCH   2   5
ATOM      5  C   UNL     1       1.583  -3.782   1.929  0.00  0.00    +0.192 A 
ATOM      6  C   UNL     1       2.106  -5.024   2.151  0.00  0.00    +0.056 A 
ATOM      7  C   UNL     1       2.956  -4.912   3.263  0.00  0.00    +0.070 A 
ATOM      8  C   UNL     1       2.915  -3.623   3.666  0.00  0.00    +0.246 A 
ATOM      9  O   UNL     1       2.091  -2.944   2.857  0.00  0.00    -0.433 OA
BRANCH   8  10
ATOM     10  S   UNL     1       3.803  -2.945   5.028  0.00  0.00    +0.058 S 
ATOM     11  O   UNL     1       3.090  -1.789   5.444  0.00  0.00    -0.161 OA
ATOM     12  O   UNL     1       4.082  -4.025   5.909  0.00  0.00    -0.161 OA
BRANCH  10  13
ATOM     13  C   UNL     1       5.355  -2.385   4.411  0.00  0.00    +0.097 A 
ATOM     14  C   UNL     1       6.440  -3.241   4.387  0.00  0.00    +0.029 A 
ATOM     15  C   UNL     1       7.657  -2.802   3.903  0.00  0.00    +0.022 A 
ATOM     16  C   UNL     1       7.791  -1.505   3.442  0.00  0.00    +0.041 A 
ATOM     17  C   UNL     1       6.705  -0.647   3.466  0.00  0.00    +0.022 A 
ATOM     18  C   UNL     1       5.487  -1.089   3.945  0.00  0.00    +0.029 A 
ATOM     19 CL   UNL     1       9.320  -0.952   2.834  0.00  0.00    -0.084 Cl
ENDBRANCH  10  13
ENDBRANCH   8  10
ENDBRANCH   2   5
BRANCH   1  20
ATOM     20  C   UNL     1      -0.737  -1.790  -0.308  0.00  0.00    +0.094 C 
BRANCH  20  21
ATOM     21  C   UNL     1      -1.168  -0.333  -0.135  0.00  0.00    -0.021 C 
BRANCH  21  22
ATOM     22  C   UNL     1      -1.945  -0.188   1.148  0.00  0.00    -0.059 A 
ATOM     23  C   UNL     1      -3.277  -0.556   1.194  0.00  0.00    +0.003 A 
ATOM     24  C   UNL     1      -3.990  -0.424   2.371  0.00  0.00    +0.020 A 
ATOM     25  C   UNL     1      -3.371   0.078   3.502  0.00  0.00    +0.041 A 
ATOM     26  C   UNL     1      -2.039   0.447   3.455  0.00  0.00    +0.020 A 
ATOM     27  C   UNL     1      -1.325   0.309   2.279  0.00  0.00    +0.003 A 
ATOM     28 CL   UNL     1      -4.267   0.246   4.980  0.00  0.00    -0.084 Cl
ENDBRANCH  21  22
BRANCH  21  30
ATOM     29  C   UNL     1      -2.469   1.450  -1.076  0.00  0.00    -0.096 C 
ATOM     30  N   UNL     1      -2.014   0.066  -1.268  0.00  0.00    +0.382 N 
ATOM     31  C   UNL     1      -1.241  -0.027  -2.513  0.00  0.00    -0.096 C 
ATOM     32  H   UNL     1      -2.814  -0.546  -1.322  0.00  0.00    -0.082 HD
ENDBRANCH  21  30
ENDBRANCH  20  21
ENDBRANCH   1  20
TORSDOF 7
