REMARK  Name = ZINC04150099
REMARK  7 active torsions:
REMARK  status: ('A' for Active; 'I' for Inactive)
REMARK    1  A    between atoms: C_1  and  O_2
REMARK    2  A    between atoms: O_2  and  C_3
REMARK    3  A    between atoms: C_6  and  S_9
REMARK    4  A    between atoms: S_9  and  N_12
REMARK    5  A    between atoms: C_23  and  N_28
REMARK    6  A    between atoms: N_28  and  S_29
REMARK    7  A    between atoms: S_29  and  C_32
REMARK                            x       y       z     vdW  Elec       q    Type
REMARK                         _______ _______ _______ _____ _____    ______ ____
ROOT
ATOM      1  N   UNL     1       1.934   5.222  -1.379  0.00  0.00    -0.176 NA
ATOM      2  C   UNL     1       1.687   6.445  -0.607  0.00  0.00    +0.114 C 
ATOM      3  C   UNL     1       1.661   6.130   0.882  0.00  0.00    +0.025 C 
ATOM      4  C   UNL     1       2.891   5.321   1.293  0.00  0.00    +0.017 C 
ATOM      5  C   UNL     1       2.905   4.017   0.490  0.00  0.00    +0.052 C 
ATOM      6  C   UNL     1       3.070   4.367  -0.999  0.00  0.00    +0.119 C 
ATOM      7  C   UNL     1       1.581   3.307   0.651  0.00  0.00    +0.026 A 
ATOM      8  C   UNL     1       1.573   1.956   0.505  0.00  0.00    +0.024 A 
ATOM      9  C   UNL     1       0.366   1.247   0.511  0.00  0.00    +0.031 A 
ATOM     10  C   UNL     1      -0.807   1.938   0.641  0.00  0.00    +0.112 A 
ATOM     11  C   UNL     1      -0.761   3.337   0.801  0.00  0.00    +0.274 A 
ATOM     12  O   UNL     1      -1.801   3.974   0.861  0.00  0.00    -0.266 OA
ATOM     13  N   UNL     1       0.428   3.982   0.883  0.00  0.00    -0.310 N 
ATOM     14  C   UNL     1       0.397   5.389   1.282  0.00  0.00    +0.130 C 
ENDROOT
BRANCH   1  15
ATOM     15  S   UNL     1       0.955   4.811  -2.650  0.00  0.00    +0.061 S 
ATOM     16  O   UNL     1       0.999   3.395  -2.756  0.00  0.00    -0.153 OA
ATOM     17  O   UNL     1      -0.261   5.524  -2.473  0.00  0.00    -0.153 OA
BRANCH  15  21
ATOM     18  C   UNL     1       2.880   6.450  -6.407  0.00  0.00    +0.120 A 
ATOM     19  C   UNL     1       3.264   5.212  -5.913  0.00  0.00    +0.047 A 
ATOM     20  C   UNL     1       2.675   4.714  -4.767  0.00  0.00    +0.032 A 
ATOM     21  C   UNL     1       1.704   5.449  -4.112  0.00  0.00    +0.106 A 
ATOM     22  C   UNL     1       1.316   6.681  -4.605  0.00  0.00    +0.032 A 
ATOM     23  C   UNL     1       1.906   7.186  -5.748  0.00  0.00    +0.047 A 
BRANCH  18  25
ATOM     24  C   UNL     1       3.104   8.273  -7.917  0.00  0.00    +0.277 C 
ATOM     25  O   UNL     1       3.459   6.942  -7.534  0.00  0.00    -0.495 OA
ENDBRANCH  18  25
ENDBRANCH  15  21
ENDBRANCH   1  15
BRANCH  10  26
ATOM     26  N   UNL     1      -2.035   1.265   0.621  0.00  0.00    -0.211 N 
ATOM     27  H   UNL     1      -2.864   1.766   0.669  0.00  0.00    +0.174 HD
BRANCH  26  28
ATOM     28  S   UNL     1      -2.071  -0.387   0.515  0.00  0.00    +0.079 S 
ATOM     29  O   UNL     1      -3.441  -0.765   0.538  0.00  0.00    -0.149 OA
ATOM     30  O   UNL     1      -1.200  -0.746  -0.548  0.00  0.00    -0.149 OA
BRANCH  28  31
ATOM     31  C   UNL     1      -1.349  -1.020   1.993  0.00  0.00    +0.146 A 
ATOM     32  C   UNL     1      -1.946  -1.330   3.170  0.00  0.00    +0.036 A 
ATOM     33  C   UNL     1      -1.172  -1.822   4.204  0.00  0.00    +0.010 A 
ATOM     34  C   UNL     1       0.162  -1.969   4.015  0.00  0.00    +0.047 A 
ATOM     35  S   UNL     1       0.360  -1.412   2.330  0.00  0.00    -0.077 S 
ENDBRANCH  28  31
ENDBRANCH  26  28
ENDBRANCH  10  26
TORSDOF 6
