REMARK  Name = ZINC39686207
REMARK  11 active torsions:
REMARK  status: ('A' for Active; 'I' for Inactive)
REMARK    1  A    between atoms: C_1  and  C_2
REMARK    2  A    between atoms: C_2  and  C_3
REMARK    3  A    between atoms: C_2  and  C_4
REMARK    4  A    between atoms: C_4  and  C_5
REMARK    5  A    between atoms: C_10  and  N_13
REMARK    6  A    between atoms: C_14  and  C_16
REMARK    7  A    between atoms: C_27  and  C_29
REMARK    8  A    between atoms: C_32  and  O_37
REMARK    9  A    between atoms: C_34  and  O_35
REMARK   10  A    between atoms: O_35  and  C_36
REMARK   11  A    between atoms: O_37  and  C_38
REMARK                            x       y       z     vdW  Elec       q    Type
REMARK                         _______ _______ _______ _____ _____    ______ ____
ROOT
ATOM      1  C   UNL     1       0.299  -4.386   9.007  0.00  0.00    +0.100 C 
ATOM      2  C   UNL     1       1.412  -5.428   8.753  0.00  0.00    +0.121 C 
ATOM      3  N   UNL     1       2.413  -5.173   9.816  0.00  0.00    -0.296 N 
ATOM      4  C   UNL     1       1.603  -4.876  11.021  0.00  0.00    +0.115 C 
ATOM      5  C   UNL     1       0.425  -4.030  10.498  0.00  0.00    -0.004 C 
ATOM      6  C   UNL     1      -0.858  -4.395  11.238  0.00  0.00    -0.010 C 
ATOM      7  C   UNL     1      -0.731  -3.977  12.706  0.00  0.00    -0.082 C 
ATOM      8  N   UNL     1      -0.490  -2.532  12.787  0.00  0.00    +0.379 N 
ATOM      9  C   UNL     1       0.793  -2.202  12.153  0.00  0.00    -0.082 C 
ATOM     10  C   UNL     1       0.730  -2.544  10.662  0.00  0.00    -0.010 C 
ATOM     11  C   UNL     1       3.756  -5.205   9.711  0.00  0.00    +0.250 C 
ATOM     12  O   UNL     1       4.277  -5.371   8.624  0.00  0.00    -0.270 OA
ATOM     13  H   UNL     1      -1.233  -2.041  12.313  0.00  0.00    -0.086 HD
ATOM     14  H   UNL     1      -0.467  -2.249  13.755  0.00  0.00    -0.086 HD
ENDROOT
BRANCH  11  15
ATOM     15  C   UNL     1       4.593  -5.039  10.912  0.00  0.00    +0.079 A 
ATOM     16  C   UNL     1       4.168  -5.555  12.140  0.00  0.00    +0.020 A 
ATOM     17  C   UNL     1       4.953  -5.399  13.259  0.00  0.00    +0.046 A 
ATOM     18  C   UNL     1       6.169  -4.728  13.174  0.00  0.00    +0.124 A 
ATOM     19  C   UNL     1       6.600  -4.211  11.961  0.00  0.00    +0.092 A 
ATOM     20  C   UNL     1       5.822  -4.368  10.826  0.00  0.00    +0.136 A 
BRANCH  20  21
ATOM     21  O   UNL     1       6.244  -3.869   9.637  0.00  0.00    -0.494 OA
ATOM     22  C   UNL     1       7.505  -3.197   9.627  0.00  0.00    +0.277 C 
ENDBRANCH  20  21
BRANCH  18  23
ATOM     23  O   UNL     1       6.937  -4.577  14.283  0.00  0.00    -0.495 OA
ATOM     24  C   UNL     1       6.434  -5.132  15.500  0.00  0.00    +0.277 C 
ENDBRANCH  18  23
ENDBRANCH  11  15
BRANCH   1  26
ATOM     25  N   UNL     1      -0.534  -2.438   7.731  0.00  0.00    -0.312 N 
ATOM     26  C   UNL     1       0.520  -3.163   8.155  0.00  0.00    +0.218 C 
ATOM     27  O   UNL     1       1.646  -2.832   7.850  0.00  0.00    -0.275 OA
ATOM     28  H   UNL     1      -1.435  -2.703   7.975  0.00  0.00    +0.149 HD
BRANCH  25  34
ATOM     29  C   UNL     1      -1.568   2.549   5.961  0.00  0.00    +0.216 C 
ATOM     30  O   UNL     1      -1.214   3.474   6.662  0.00  0.00    -0.276 OA
ATOM     31  N   UNL     1      -0.917   1.371   6.020  0.00  0.00    -0.301 N 
ATOM     32  C   UNL     1      -1.330   0.244   5.173  0.00  0.00    +0.109 C 
ATOM     33  C   UNL     1      -1.571  -0.979   6.064  0.00  0.00    +0.041 C 
ATOM     34  C   UNL     1      -0.319  -1.249   6.902  0.00  0.00    +0.076 C 
ATOM     35  C   UNL     1      -0.037  -0.044   7.803  0.00  0.00    +0.041 C 
ATOM     36  C   UNL     1       0.225   1.191   6.928  0.00  0.00    +0.109 C 
BRANCH  29  37
ATOM     37  C   UNL     1      -2.737   2.718   5.025  0.00  0.00    +0.099 C 
BRANCH  37  39
ATOM     38  C   UNL     1      -2.241   5.141   4.673  0.00  0.00    +0.008 C 
ATOM     39  C   UNL     1      -3.292   4.138   5.153  0.00  0.00    -0.008 C 
ATOM     40  C   UNL     1      -4.553   4.272   4.296  0.00  0.00    +0.008 C 
ENDBRANCH  37  39
ENDBRANCH  29  37
ENDBRANCH  25  34
ENDBRANCH   1  26
TORSDOF 7
