REMARK  Name = ZINC63836149
REMARK  9 active torsions:
REMARK  status: ('A' for Active; 'I' for Inactive)
REMARK    1  A    between atoms: C_1  and  C_2
REMARK    2  A    between atoms: C_5  and  C_8
REMARK    3  A    between atoms: C_8  and  N_9
REMARK    4  A    between atoms: N_9  and  C_10
REMARK    5  A    between atoms: C_11  and  C_13
REMARK    6  A    between atoms: C_13  and  S_14
REMARK    7  A    between atoms: S_14  and  C_15
REMARK    8  A    between atoms: C_18  and  C_23
REMARK    9  A    between atoms: N_19  and  C_20
REMARK                            x       y       z     vdW  Elec       q    Type
REMARK                         _______ _______ _______ _____ _____    ______ ____
ROOT
ATOM      1  C   UNL     1       8.015  -1.135  -0.392  0.00  0.00    +0.193 A 
ATOM      2  N   UNL     1       8.380  -1.835   0.672  0.00  0.00    -0.122 NA
ATOM      3  N   UNL     1       9.512  -1.414   1.111  0.00  0.00    -0.129 NA
ATOM      4  C   UNL     1       9.944  -0.417   0.351  0.00  0.00    +0.163 A 
ATOM      5  N   UNL     1       8.993  -0.220  -0.634  0.00  0.00    -0.299 N 
ENDROOT
BRANCH   4   6
ATOM      6  C   UNL     1      11.140   0.300   0.514  0.00  0.00    +0.025 C 
ATOM      7  C   UNL     1      12.112   0.106   1.495  0.00  0.00    +0.006 A 
ATOM      8  C   UNL     1      12.214  -0.803   2.569  0.00  0.00    +0.010 A 
ATOM      9  C   UNL     1      13.300  -0.763   3.384  0.00  0.00    +0.001 A 
ATOM     10  C   UNL     1      14.328   0.161   3.188  0.00  0.00    +0.002 A 
ATOM     11  C   UNL     1      14.296   1.063   2.176  0.00  0.00    +0.026 A 
ATOM     12  C   UNL     1      13.194   1.082   1.283  0.00  0.00    +0.043 A 
ATOM     13  N   UNL     1      12.929   1.845   0.240  0.00  0.00    -0.380 N 
ATOM     14  C   UNL     1      11.647   1.439  -0.343  0.00  0.00    +0.152 C 
ATOM     15  H   UNL     1      13.496   2.558  -0.092  0.00  0.00    +0.160 HD
ENDBRANCH   4   6
BRANCH   5  16
ATOM     16  C   UNL     1       9.029   0.770  -1.713  0.00  0.00    +0.091 C 
ATOM     17  C   UNL     1       7.717   1.075  -2.438  0.00  0.00    +0.027 C 
ATOM     18  C   UNL     1       8.809   0.268  -3.141  0.00  0.00    +0.027 C 
ENDBRANCH   5  16
BRANCH   1  19
ATOM     19  S   UNL     1       6.538  -1.355  -1.328  0.00  0.00    -0.077 S 
BRANCH  19  20
ATOM     20  C   UNL     1       5.684  -2.717  -0.487  0.00  0.00    +0.173 C 
BRANCH  20  23
ATOM     21  N   UNL     1       3.580  -3.991  -0.745  0.00  0.00    -0.300 N 
ATOM     22  C   UNL     1       3.963  -4.771   0.435  0.00  0.00    +0.132 C 
ATOM     23  C   UNL     1       4.387  -3.011  -1.196  0.00  0.00    +0.226 C 
ATOM     24  O   UNL     1       4.070  -2.365  -2.173  0.00  0.00    -0.275 OA
BRANCH  21  25
ATOM     25  C   UNL     1       2.319  -4.277  -1.434  0.00  0.00    +0.152 C 
BRANCH  25  30
ATOM     26  C   UNL     1      -0.170  -0.040  -1.411  0.00  0.00    +0.085 C 
ATOM     27  C   UNL     1       0.103  -1.522  -1.388  0.00  0.00    +0.091 C 
ATOM     28  C   UNL     1      -0.837  -2.429  -1.540  0.00  0.00    +0.017 C 
ATOM     29  C   UNL     1      -0.171  -3.792  -1.444  0.00  0.00    +0.076 C 
ATOM     30  C   UNL     1       1.201  -3.427  -0.826  0.00  0.00    +0.194 C 
ATOM     31  O   UNL     1       1.338  -2.044  -1.214  0.00  0.00    -0.492 OA
ENDBRANCH  25  30
ENDBRANCH  21  25
ENDBRANCH  20  23
ENDBRANCH  19  20
ENDBRANCH   1  19
TORSDOF 7
