REMARK  Name = ZINC06409188
REMARK  10 active torsions:
REMARK  status: ('A' for Active; 'I' for Inactive)
REMARK    1  A    between atoms: C_1  and  C_2
REMARK    2  A    between atoms: C_9  and  C_14
REMARK    3  A    between atoms: C_14  and  C_16
REMARK    4  A    between atoms: C_14  and  N_68
REMARK    5  A    between atoms: N_20  and  C_21
REMARK    6  A    between atoms: C_21  and  C_22
REMARK    7  A    between atoms: C_28  and  C_29
REMARK    8  A    between atoms: C_28  and  N_68
REMARK    9  A    between atoms: C_36  and  C_37
REMARK   10  A    between atoms: C_36  and  N_68
REMARK                            x       y       z     vdW  Elec       q    Type
REMARK                         _______ _______ _______ _____ _____    ______ ____
ROOT
ATOM      1  C   UNL     1      -2.407   0.997   0.011  0.00  0.00    +0.040 C 
ENDROOT
BRANCH   1  10
ATOM      2  C   UNL     1       4.875   2.431  -0.718  0.00  0.00    +0.044 C 
ATOM      3  C   UNL     1       3.451   2.902  -0.570  0.00  0.00    -0.050 A 
ATOM      4  C   UNL     1       3.177   4.263  -0.536  0.00  0.00    +0.005 A 
ATOM      5  C   UNL     1       1.882   4.716  -0.401  0.00  0.00    +0.026 A 
ATOM      6  C   UNL     1       0.838   3.802  -0.298  0.00  0.00    +0.049 A 
ATOM      7  C   UNL     1       1.121   2.424  -0.333  0.00  0.00    -0.001 A 
ATOM      8  C   UNL     1       2.442   1.987  -0.471  0.00  0.00    +0.013 A 
ATOM      9  C   UNL     1       0.015   1.470  -0.224  0.00  0.00    +0.017 A 
ATOM     10  C   UNL     1      -1.246   1.952  -0.098  0.00  0.00    +0.011 A 
ATOM     11  C   UNL     1      -1.475   3.344  -0.063  0.00  0.00    +0.251 A 
ATOM     12  O   UNL     1      -2.616   3.756   0.055  0.00  0.00    -0.268 OA
ATOM     13  N   UNL     1      -0.466   4.228  -0.163  0.00  0.00    -0.322 N 
ATOM     14  H   UNL     1      -0.659   5.178  -0.138  0.00  0.00    +0.169 HD
ENDBRANCH   1  10
BRANCH   1  15
ATOM     15  C   UNL     1      -3.263   1.104  -1.225  0.00  0.00    +0.143 A 
ATOM     16  N   UNL     1      -4.097   2.071  -1.518  0.00  0.00    -0.115 NA
ATOM     17  N   UNL     1      -4.636   1.801  -2.657  0.00  0.00    -0.023 NA
ATOM     18  N   UNL     1      -4.171   0.683  -3.095  0.00  0.00    -0.044 NA
ATOM     19  N   UNL     1      -3.322   0.222  -2.240  0.00  0.00    -0.228 N 
BRANCH  19  20
ATOM     20  C   UNL     1      -2.565  -1.027  -2.353  0.00  0.00    +0.178 C 
BRANCH  20  21
ATOM     21  C   UNL     1      -3.364  -2.167  -1.717  0.00  0.00    +0.140 C 
ATOM     22  C   UNL     1      -2.526  -3.463  -1.728  0.00  0.00    +0.035 C 
ATOM     23  C   UNL     1      -3.591  -4.542  -2.066  0.00  0.00    +0.031 C 
ATOM     24  C   UNL     1      -4.525  -3.746  -3.012  0.00  0.00    +0.160 C 
ATOM     25  O   UNL     1      -4.551  -2.413  -2.480  0.00  0.00    -0.375 OA
ENDBRANCH  20  21
ENDBRANCH  19  20
ENDBRANCH   1  15
BRANCH   1  26
ATOM     26  N   UNL     1      -3.217   1.363   1.191  0.00  0.00    +0.397 N 
ATOM     27  H   UNL     1      -3.483   2.353   1.119  0.00  0.00    -0.079 HD
BRANCH  26  28
ATOM     28  C   UNL     1      -2.430   1.166   2.426  0.00  0.00    -0.041 C 
BRANCH  28  29
ATOM     29  C   UNL     1      -2.060  -0.286   2.591  0.00  0.00    -0.064 A 
ATOM     30  C   UNL     1      -2.923  -1.149   3.240  0.00  0.00    +0.004 A 
ATOM     31  C   UNL     1      -2.587  -2.481   3.387  0.00  0.00    +0.038 A 
ATOM     32  C   UNL     1      -1.381  -2.949   2.893  0.00  0.00    +0.123 A 
ATOM     33  C   UNL     1      -0.515  -2.083   2.248  0.00  0.00    +0.038 A 
ATOM     34  C   UNL     1      -0.856  -0.752   2.097  0.00  0.00    +0.004 A 
ATOM     35  F   UNL     1      -1.050  -4.251   3.041  0.00  0.00    -0.205 F 
ENDBRANCH  28  29
ENDBRANCH  26  28
BRANCH  26  36
ATOM     36  C   UNL     1      -4.444   0.540   1.237  0.00  0.00    -0.001 C 
BRANCH  36  37
ATOM     37  C   UNL     1      -5.394   1.140   2.241  0.00  0.00    +0.089 A 
ATOM     38  C   UNL     1      -6.375   2.018   1.968  0.00  0.00    +0.042 A 
ATOM     39  C   UNL     1      -7.015   2.312   3.194  0.00  0.00    +0.041 A 
ATOM     40  C   UNL     1      -6.381   1.601   4.144  0.00  0.00    +0.195 A 
ATOM     41  O   UNL     1      -5.400   0.893   3.562  0.00  0.00    -0.470 OA
ENDBRANCH  36  37
ENDBRANCH  26  36
ENDBRANCH   1  26
TORSDOF 9
