REMARK  Name = ZINC22969153
REMARK  4 active torsions:
REMARK  status: ('A' for Active; 'I' for Inactive)
REMARK    1  A    between atoms: C_4  and  C_7
REMARK    2  A    between atoms: C_9  and  C_12
REMARK    3  A    between atoms: C_12  and  N_13
REMARK    4  A    between atoms: C_19  and  C_21
REMARK                            x       y       z     vdW  Elec       q    Type
REMARK                         _______ _______ _______ _____ _____    ______ ____
ROOT
ATOM      1  N   UNL     1       8.527   9.070   3.130  0.00  0.00    -0.294 NA
ATOM      2  C   UNL     1       8.271   9.796   1.879  0.00  0.00    +0.104 C 
ATOM      3  C   UNL     1       6.760   9.971   1.694  0.00  0.00    +0.123 C 
ATOM      4  N   UNL     1       6.121   8.649   1.788  0.00  0.00    -0.299 N 
ATOM      5  C   UNL     1       6.434   7.807   2.953  0.00  0.00    +0.123 C 
ATOM      6  C   UNL     1       7.962   7.715   3.085  0.00  0.00    +0.104 C 
ATOM      7  C   UNL     1       5.268   8.223   0.836  0.00  0.00    +0.219 C 
ATOM      8  O   UNL     1       5.092   8.889  -0.162  0.00  0.00    -0.275 OA
ENDROOT
BRANCH   7   9
ATOM      9  C   UNL     1       4.533   6.920   1.011  0.00  0.00    +0.078 C 
ATOM     10  C   UNL     1       3.135   7.034   0.396  0.00  0.00    +0.032 C 
ATOM     11  C   UNL     1       2.415   5.689   0.524  0.00  0.00    +0.107 C 
ATOM     12  N   UNL     1       3.190   4.651  -0.166  0.00  0.00    -0.314 N 
ATOM     13  C   UNL     1       4.519   4.490   0.437  0.00  0.00    +0.107 C 
ATOM     14  C   UNL     1       5.301   5.798   0.306  0.00  0.00    +0.032 C 
ATOM     15  C   UNL     1       2.500   3.443  -0.182  0.00  0.00    +0.144 A 
ATOM     16  C   UNL     1       3.079   2.320  -0.801  0.00  0.00    +0.049 A 
ATOM     17  C   UNL     1       2.413   1.134  -0.823  0.00  0.00    +0.055 A 
ATOM     18  C   UNL     1       1.144   1.050  -0.220  0.00  0.00    +0.200 A 
ATOM     19  N   UNL     1       0.258   0.075  -0.071  0.00  0.00    -0.107 NA
ATOM     20  N   UNL     1      -0.772   0.506   0.566  0.00  0.00    -0.021 NA
ATOM     21  N   UNL     1      -0.636   1.753   0.868  0.00  0.00    -0.021 NA
ATOM     22  N   UNL     1       0.609   2.161   0.373  0.00  0.00    -0.108 N 
ATOM     23  N   UNL     1       1.315   3.364   0.380  0.00  0.00    -0.131 NA
ENDBRANCH   7   9
BRANCH   1  24
ATOM     24  C   UNL     1       9.964   9.031   3.431  0.00  0.00    +0.140 C 
BRANCH  24  27
ATOM     25  C   UNL     1      10.284   8.877   7.092  0.00  0.00    +0.109 A 
ATOM     26  N   UNL     1      10.112   9.317   5.854  0.00  0.00    -0.243 NA
ATOM     27  C   UNL     1      10.171   8.502   4.827  0.00  0.00    +0.063 A 
ATOM     28  C   UNL     1      10.425   7.181   5.024  0.00  0.00    +0.071 A 
ATOM     29  S   UNL     1      10.575   7.136   6.805  0.00  0.00    -0.075 S 
BRANCH  25  33
ATOM     30  C   UNL     1      10.190  11.027  10.755  0.00  0.00    +0.000 A 
ATOM     31  C   UNL     1      10.435   9.665  10.761  0.00  0.00    +0.001 A 
ATOM     32  C   UNL     1      10.467   8.961   9.575  0.00  0.00    +0.010 A 
ATOM     33  C   UNL     1      10.251   9.625   8.367  0.00  0.00    +0.007 A 
ATOM     34  C   UNL     1      10.010  10.999   8.367  0.00  0.00    +0.010 A 
ATOM     35  C   UNL     1       9.975  11.691   9.560  0.00  0.00    +0.001 A 
ENDBRANCH  25  33
ENDBRANCH  24  27
ENDBRANCH   1  24
TORSDOF 4
