REMARK  Name = ZINC34906451
REMARK  11 active torsions:
REMARK  status: ('A' for Active; 'I' for Inactive)
REMARK    1  A    between atoms: C_1  and  C_2
REMARK    2  A    between atoms: C_4  and  C_38
REMARK    3  A    between atoms: C_6  and  O_8
REMARK    4  A    between atoms: O_8  and  C_9
REMARK    5  A    between atoms: C_9  and  C_10
REMARK    6  A    between atoms: C_12  and  C_15
REMARK    7  A    between atoms: N_17  and  C_18
REMARK    8  A    between atoms: C_24  and  N_26
REMARK    9  A    between atoms: N_26  and  S_27
REMARK   10  A    between atoms: S_27  and  C_30
REMARK   11  A    between atoms: C_31  and  C_32
REMARK                            x       y       z     vdW  Elec       q    Type
REMARK                         _______ _______ _______ _____ _____    ______ ____
ROOT
ATOM      1  C   UNL     1       2.002  -4.804   7.195  0.00  0.00    +0.263 C 
ATOM      2  O   UNL     1       1.770  -5.541   8.135  0.00  0.00    -0.269 OA
ATOM      3  N   UNL     1       3.277  -4.522   6.859  0.00  0.00    -0.306 N 
ATOM      4  H   UNL     1       3.462  -3.935   6.110  0.00  0.00    +0.149 HD
ENDROOT
BRANCH   3   5
ATOM      5  C   UNL     1       4.382  -5.102   7.626  0.00  0.00    +0.092 C 
ATOM      6  C   UNL     1       4.703  -6.496   7.084  0.00  0.00    +0.024 C 
ATOM      7  C   UNL     1       5.857  -7.101   7.884  0.00  0.00    +0.002 C 
ATOM      8  C   UNL     1       7.092  -6.207   7.755  0.00  0.00    +0.002 C 
ATOM      9  C   UNL     1       6.772  -4.813   8.297  0.00  0.00    +0.022 C 
ATOM     10  C   UNL     1       5.617  -4.208   7.496  0.00  0.00    +0.097 C 
BRANCH  10  11
ATOM     11  N   UNL     1       5.310  -2.873   8.015  0.00  0.00    -0.186 NA
ATOM     12  H   UNL     1       4.714  -2.772   8.774  0.00  0.00    +0.148 HD
BRANCH  11  13
ATOM     13  S   UNL     1       5.981  -1.534   7.308  0.00  0.00    +0.052 S 
ATOM     14  O   UNL     1       5.476  -0.407   8.010  0.00  0.00    -0.154 OA
ATOM     15  O   UNL     1       7.372  -1.795   7.184  0.00  0.00    -0.154 OA
BRANCH  13  16
ATOM     16  C   UNL     1       5.340  -1.435   5.669  0.00  0.00    +0.153 C 
ATOM     17  C   UNL     1       4.567  -0.416   5.321  0.00  0.00    +0.028 C 
BRANCH  17  18
ATOM     18  C   UNL     1       4.029  -0.332   3.947  0.00  0.00    -0.024 A 
ATOM     19  C   UNL     1       4.328  -1.327   3.015  0.00  0.00    +0.008 A 
ATOM     20  C   UNL     1       3.823  -1.244   1.734  0.00  0.00    +0.001 A 
ATOM     21  C   UNL     1       3.022  -0.175   1.372  0.00  0.00    +0.000 A 
ATOM     22  C   UNL     1       2.722   0.815   2.290  0.00  0.00    +0.001 A 
ATOM     23  C   UNL     1       3.215   0.739   3.577  0.00  0.00    +0.008 A 
ENDBRANCH  17  18
ENDBRANCH  13  16
ENDBRANCH  11  13
ENDBRANCH  10  11
ENDBRANCH   3   5
BRANCH   1  26
ATOM     24  C   UNL     1       0.064  -2.932   4.751  0.00  0.00    +0.116 A 
ATOM     25  N   UNL     1       1.101  -3.408   5.385  0.00  0.00    -0.236 NA
ATOM     26  C   UNL     1       0.891  -4.221   6.425  0.00  0.00    +0.133 A 
ATOM     27  C   UNL     1      -0.418  -4.481   6.731  0.00  0.00    +0.080 A 
ATOM     28  S   UNL     1      -1.244  -3.586   5.574  0.00  0.00    -0.076 S 
BRANCH  24  29
ATOM     29  C   UNL     1       0.046  -2.005   3.563  0.00  0.00    +0.291 C 
BRANCH  29  30
ATOM     30  O   UNL     1       0.051  -2.775   2.359  0.00  0.00    -0.485 OA
BRANCH  30  36
ATOM     31  C   UNL     1      -0.018   1.503   0.010  0.00  0.00    +0.044 C 
ATOM     32  C   UNL     1       0.002  -0.004   0.002  0.00  0.00    -0.047 A 
ATOM     33  C   UNL     1       0.006  -0.688  -1.200  0.00  0.00    +0.007 A 
ATOM     34  C   UNL     1       0.025  -2.071  -1.210  0.00  0.00    -0.047 A 
ATOM     35  C   UNL     1       0.040  -2.772  -0.020  0.00  0.00    +0.049 A 
ATOM     36  C   UNL     1       0.036  -2.088   1.187  0.00  0.00    +0.122 A 
ATOM     37  C   UNL     1       0.023  -0.701   1.195  0.00  0.00    +0.049 A 
ATOM     38  C   UNL     1       0.029  -2.813  -2.522  0.00  0.00    +0.044 C 
ENDBRANCH  30  36
ENDBRANCH  29  30
ENDBRANCH  24  29
ENDBRANCH   1  26
TORSDOF 9
