REMARK  Name = ZINC19818395
REMARK  8 active torsions:
REMARK  status: ('A' for Active; 'I' for Inactive)
REMARK    1  A    between atoms: C_1  and  C_2
REMARK    2  A    between atoms: C_2  and  O_3
REMARK    3  A    between atoms: O_3  and  C_4
REMARK    4  A    between atoms: C_7  and  N_10
REMARK    5  A    between atoms: C_13  and  C_39
REMARK    6  A    between atoms: N_23  and  C_26
REMARK    7  A    between atoms: C_26  and  N_27
REMARK    8  A    between atoms: N_30  and  C_33
REMARK                            x       y       z     vdW  Elec       q    Type
REMARK                         _______ _______ _______ _____ _____    ______ ____
ROOT
ATOM      1  N   UNL     1      -4.538  -0.613   1.157  0.00  0.00    -0.243 N 
ATOM      2  C   UNL     1      -5.493  -1.267   1.816  0.00  0.00    +0.234 C 
ATOM      3  O   UNL     1      -6.422  -0.677   2.328  0.00  0.00    -0.274 OA
ATOM      4  C   UNL     1      -5.375  -2.782   1.903  0.00  0.00    +0.132 C 
ATOM      5  S   UNL     1      -4.095  -3.094   0.608  0.00  0.00    -0.108 S 
ATOM      6  C   UNL     1      -3.451  -1.377   0.552  0.00  0.00    +0.193 C 
ATOM      7  C   UNL     1      -2.157  -1.264   1.296  0.00  0.00    +0.017 A 
ATOM      8  C   UNL     1      -1.780  -1.498   2.599  0.00  0.00    +0.009 A 
ATOM      9  C   UNL     1      -0.469  -1.294   2.990  0.00  0.00    +0.000 A 
ATOM     10  C   UNL     1       0.463  -0.853   2.069  0.00  0.00    +0.002 A 
ATOM     11  C   UNL     1       0.091  -0.616   0.761  0.00  0.00    +0.024 A 
ATOM     12  C   UNL     1      -1.225  -0.827   0.357  0.00  0.00    +0.044 A 
ATOM     13  N   UNL     1      -1.835  -0.655  -0.888  0.00  0.00    -0.255 N 
ATOM     14  C   UNL     1      -3.148  -0.964  -0.857  0.00  0.00    +0.260 C 
ATOM     15  O   UNL     1      -3.928  -0.918  -1.784  0.00  0.00    -0.271 OA
ATOM     16  C   UNL     1      -6.699  -3.461   1.548  0.00  0.00    +0.029 C 
ENDROOT
BRANCH   1  20
ATOM     17  C   UNL     1      -4.649   3.543   0.829  0.00  0.00    +0.121 A 
ATOM     18  C   UNL     1      -5.360   2.757  -0.067  0.00  0.00    +0.047 A 
ATOM     19  C   UNL     1      -5.323   1.381   0.042  0.00  0.00    +0.027 A 
ATOM     20  C   UNL     1      -4.575   0.784   1.047  0.00  0.00    +0.039 A 
ATOM     21  C   UNL     1      -3.868   1.571   1.946  0.00  0.00    +0.027 A 
ATOM     22  C   UNL     1      -3.901   2.946   1.834  0.00  0.00    +0.047 A 
BRANCH  17  23
ATOM     23  O   UNL     1      -4.686   4.898   0.723  0.00  0.00    -0.492 OA
BRANCH  23  25
ATOM     24  C   UNL     1      -4.094   7.140   1.401  0.00  0.00    +0.048 C 
ATOM     25  C   UNL     1      -3.931   5.644   1.679  0.00  0.00    +0.225 C 
ENDBRANCH  23  25
ENDBRANCH  17  23
ENDBRANCH   1  20
BRANCH  13  26
ATOM     26  C   UNL     1      -1.131  -0.200  -2.089  0.00  0.00    +0.200 C 
BRANCH  26  27
ATOM     27  N   UNL     1      -0.984   1.261  -2.045  0.00  0.00    -0.284 NA
ATOM     28  C   UNL     1      -2.214   1.929  -2.493  0.00  0.00    +0.105 C 
ATOM     29  C   UNL     1      -2.048   3.444  -2.358  0.00  0.00    +0.120 C 
ATOM     30  N   UNL     1      -0.894   3.881  -3.157  0.00  0.00    -0.327 N 
ATOM     31  C   UNL     1       0.336   3.214  -2.709  0.00  0.00    +0.120 C 
ATOM     32  C   UNL     1       0.170   1.698  -2.844  0.00  0.00    +0.105 C 
BRANCH  30  33
ATOM     33  C   UNL     1      -0.754   5.270  -3.115  0.00  0.00    +0.030 A 
ATOM     34  C   UNL     1       0.438   5.837  -2.683  0.00  0.00    +0.023 A 
ATOM     35  C   UNL     1       0.575   7.211  -2.647  0.00  0.00    +0.002 A 
ATOM     36  C   UNL     1      -0.477   8.022  -3.032  0.00  0.00    +0.000 A 
ATOM     37  C   UNL     1      -1.667   7.461  -3.458  0.00  0.00    +0.002 A 
ATOM     38  C   UNL     1      -1.809   6.088  -3.501  0.00  0.00    +0.023 A 
ENDBRANCH  30  33
ENDBRANCH  26  27
ENDBRANCH  13  26
TORSDOF 6
