REMARK  Name = ZINC45928812
REMARK  8 active torsions:
REMARK  status: ('A' for Active; 'I' for Inactive)
REMARK    1  A    between atoms: C_1  and  C_2
REMARK    2  A    between atoms: C_2  and  C_3
REMARK    3  A    between atoms: C_2  and  C_4
REMARK    4  A    between atoms: C_2  and  N_25
REMARK    5  A    between atoms: C_4  and  N_5
REMARK    6  A    between atoms: C_6  and  C_8
REMARK    7  A    between atoms: N_10  and  C_24
REMARK    8  A    between atoms: C_12  and  C_13
REMARK                            x       y       z     vdW  Elec       q    Type
REMARK                         _______ _______ _______ _____ _____    ______ ____
ROOT
ATOM      1  N   UNL     1      -2.107  -1.504   0.404  0.00  0.00    -0.313 N 
ATOM      2  C   UNL     1      -3.381  -1.812   0.091  0.00  0.00    +0.248 C 
ATOM      3  O   UNL     1      -4.172  -0.928  -0.177  0.00  0.00    -0.270 OA
ATOM      4  H   UNL     1      -1.476  -2.209   0.619  0.00  0.00    +0.149 HD
ENDROOT
BRANCH   2   5
ATOM      5  C   UNL     1      -3.816  -3.219   0.075  0.00  0.00    +0.082 A 
ATOM      6  C   UNL     1      -3.076  -4.317   0.463  0.00  0.00    +0.121 A 
ATOM      7  N   UNL     1      -3.839  -5.408   0.293  0.00  0.00    -0.273 N 
ATOM      8  N   UNL     1      -5.089  -5.035  -0.208  0.00  0.00    -0.171 NA
ATOM      9  C   UNL     1      -5.123  -3.730  -0.349  0.00  0.00    +0.105 A 
ATOM     10  C   UNL     1      -3.423  -6.782   0.589  0.00  0.00    +0.172 C 
BRANCH   9  11
ATOM     11  C   UNL     1      -6.265  -2.926  -0.848  0.00  0.00    +0.007 A 
ATOM     12  C   UNL     1      -6.048  -1.902  -1.768  0.00  0.00    +0.014 A 
ATOM     13  C   UNL     1      -7.111  -1.153  -2.233  0.00  0.00    +0.050 A 
ATOM     14  C   UNL     1      -8.394  -1.421  -1.784  0.00  0.00    +0.162 A 
ATOM     15  C   UNL     1      -8.616  -2.440  -0.866  0.00  0.00    +0.163 A 
ATOM     16  C   UNL     1      -7.558  -3.197  -0.400  0.00  0.00    +0.059 A 
ATOM     17  O   UNL     1      -9.885  -2.693  -0.434  0.00  0.00    -0.488 OA
ATOM     18  C   UNL     1     -10.479  -1.684   0.386  0.00  0.00    +0.232 C 
ATOM     19  C   UNL     1     -11.108  -0.596  -0.470  0.00  0.00    +0.082 C 
ATOM     20  C   UNL     1     -10.076   0.170  -1.283  0.00  0.00    +0.232 C 
ATOM     21  O   UNL     1      -9.449  -0.685  -2.240  0.00  0.00    -0.488 OA
ENDBRANCH   9  11
ENDBRANCH   2   5
BRANCH   1  22
ATOM     22  C   UNL     1      -1.675  -0.104   0.420  0.00  0.00    +0.092 C 
BRANCH  22  24
ATOM     23  C   UNL     1       0.257   1.430   0.820  0.00  0.00    -0.008 C 
ATOM     24  C   UNL     1      -0.195  -0.032   0.803  0.00  0.00    -0.055 C 
ATOM     25  C   UNL     1       0.003  -0.643   2.192  0.00  0.00    -0.008 C 
BRANCH  24  26
ATOM     26  N   UNL     1       0.602  -0.780  -0.178  0.00  0.00    +0.387 N 
ATOM     27  C   UNL     1       2.033  -0.612   0.119  0.00  0.00    -0.073 C 
ATOM     28  C   UNL     1       2.825  -1.627  -0.707  0.00  0.00    +0.017 C 
ATOM     29  C   UNL     1       2.411  -1.541  -2.154  0.00  0.00    -0.048 A 
ATOM     30  C   UNL     1       3.230  -2.114  -3.114  0.00  0.00    +0.004 A 
ATOM     31  C   UNL     1       2.882  -2.059  -4.449  0.00  0.00    +0.000 A 
ATOM     32  C   UNL     1       1.712  -1.429  -4.829  0.00  0.00    +0.000 A 
ATOM     33  C   UNL     1       0.896  -0.857  -3.873  0.00  0.00    +0.002 A 
ATOM     34  C   UNL     1       1.245  -0.910  -2.532  0.00  0.00    -0.061 A 
ATOM     35  C   UNL     1       0.331  -0.266  -1.524  0.00  0.00    -0.042 C 
ATOM     36  H   UNL     1       0.359  -1.758  -0.136  0.00  0.00    -0.080 HD
ENDBRANCH  24  26
ENDBRANCH  22  24
ENDBRANCH   1  22
TORSDOF 5
