REMARK  Name = ZINC19092621
REMARK  3 active torsions:
REMARK  status: ('A' for Active; 'I' for Inactive)
REMARK    1  A    between atoms: C_1  and  C_2
REMARK    2  A    between atoms: C_2  and  C_3
REMARK    3  A    between atoms: C_4  and  C_13
REMARK                            x       y       z     vdW  Elec       q    Type
REMARK                         _______ _______ _______ _____ _____    ______ ____
ROOT
ATOM      1  C   UNL     1       3.716  -0.524  -0.036  0.00  0.00    -0.026 A 
ATOM      2  C   UNL     1       4.747   0.334  -0.041  0.00  0.00    -0.007 A 
ATOM      3  S   UNL     1       3.961   1.934  -0.025  0.00  0.00    -0.074 S 
ATOM      4  C   UNL     1       2.267   1.410  -0.012  0.00  0.00    +0.113 A 
ATOM      5  C   UNL     1       2.360  -0.003  -0.021  0.00  0.00    +0.048 A 
ATOM      6  C   UNL     1       1.125  -0.693  -0.012  0.00  0.00    +0.141 A 
ATOM      7  N   UNL     1       0.002  -0.004   0.002  0.00  0.00    -0.223 NA
ATOM      8  C   UNL     1      -0.016   1.317   0.009  0.00  0.00    +0.224 A 
ATOM      9  N   UNL     1       1.101   2.019   0.002  0.00  0.00    -0.228 NA
ATOM     10 CL   UNL     1       1.090  -2.428  -0.021  0.00  0.00    -0.061 Cl
ATOM     11  C   UNL     1       6.221   0.020  -0.056  0.00  0.00    +0.052 C 
ENDROOT
BRANCH   1  13
ATOM     12  C   UNL     1       4.032  -2.505  -1.493  0.00  0.00    +0.009 C 
ATOM     13  C   UNL     1       3.962  -2.010  -0.047  0.00  0.00    +0.033 C 
ENDBRANCH   1  13
TORSDOF 1
