REMARK  Name = ZINC16427653
REMARK  6 active torsions:
REMARK  status: ('A' for Active; 'I' for Inactive)
REMARK    1  A    between atoms: C_1  and  C_2
REMARK    2  A    between atoms: C_5  and  S_8
REMARK    3  A    between atoms: S_8  and  N_11
REMARK    4  A    between atoms: N_15  and  C_18
REMARK    5  A    between atoms: C_18  and  C_19
REMARK    6  A    between atoms: C_18  and  C_20
REMARK                            x       y       z     vdW  Elec       q    Type
REMARK                         _______ _______ _______ _____ _____    ______ ____
ROOT
ATOM      1  N   UNL     1       2.413  -5.638  -0.182  0.00  0.00    -0.178 NA
ATOM      2  C   UNL     1       3.170  -5.643  -1.451  0.00  0.00    +0.107 C 
ATOM      3  C   UNL     1       4.423  -4.754  -1.352  0.00  0.00    -0.001 C 
ATOM      4  C   UNL     1       4.090  -3.499  -0.576  0.00  0.00    -0.077 C 
ATOM      5  N   UNL     1       4.417  -3.703   0.834  0.00  0.00    +0.382 N 
ATOM      6  C   UNL     1       3.382  -4.273   1.609  0.00  0.00    -0.061 C 
ATOM      7  C   UNL     1       3.066  -5.697   1.109  0.00  0.00    +0.091 C 
ATOM      8  H   UNL     1       5.225  -4.304   0.889  0.00  0.00    -0.081 HD
ENDROOT
BRANCH   1   9
ATOM      9  S   UNL     1       0.760  -5.556  -0.238  0.00  0.00    +0.061 S 
ATOM     10  O   UNL     1       0.284  -6.109   0.981  0.00  0.00    -0.153 OA
ATOM     11  O   UNL     1       0.371  -6.062  -1.508  0.00  0.00    -0.153 OA
BRANCH   9  16
ATOM     12  C   UNL     1      -0.741   0.288  -0.180  0.00  0.00    +0.044 C 
ATOM     13  C   UNL     1      -0.366  -1.172  -0.195  0.00  0.00    -0.050 A 
ATOM     14  C   UNL     1      -0.151  -1.818  -1.397  0.00  0.00    +0.005 A 
ATOM     15  C   UNL     1       0.193  -3.157  -1.411  0.00  0.00    +0.029 A 
ATOM     16  C   UNL     1       0.323  -3.849  -0.221  0.00  0.00    +0.105 A 
ATOM     17  C   UNL     1       0.109  -3.203   0.982  0.00  0.00    +0.029 A 
ATOM     18  C   UNL     1      -0.231  -1.863   0.995  0.00  0.00    +0.005 A 
ENDBRANCH   9  16
ENDBRANCH   1   9
BRANCH   5  19
ATOM     19  C   UNL     1       4.772  -2.404   1.419  0.00  0.00    -0.075 C 
ATOM     20  C   UNL     1       4.992  -2.566   2.925  0.00  0.00    -0.014 C 
ATOM     21  C   UNL     1       6.056  -1.885   0.769  0.00  0.00    -0.014 C 
ENDBRANCH   5  19
TORSDOF 3
