REMARK  Name = ZINC59972166
REMARK  5 active torsions:
REMARK  status: ('A' for Active; 'I' for Inactive)
REMARK    1  A    between atoms: C_1  and  C_2
REMARK    2  A    between atoms: C_2  and  C_4
REMARK    3  A    between atoms: C_2  and  N_10
REMARK    4  A    between atoms: C_11  and  C_13
REMARK    5  A    between atoms: C_17  and  N_23
REMARK                            x       y       z     vdW  Elec       q    Type
REMARK                         _______ _______ _______ _____ _____    ______ ____
ROOT
ATOM      1  C   UNL     1       2.765  -1.087   2.365  0.00  0.00    +0.103 A 
ATOM      2  C   UNL     1       4.111  -1.236   2.473  0.00  0.00    +0.041 A 
ATOM      3  C   UNL     1       4.389  -1.725   3.772  0.00  0.00    +0.002 A 
ATOM      4  C   UNL     1       5.575  -2.062   4.438  0.00  0.00    +0.032 A 
ATOM      5  C   UNL     1       5.521  -2.525   5.737  0.00  0.00    +0.025 A 
ATOM      6  C   UNL     1       4.293  -2.658   6.387  0.00  0.00    +0.025 A 
ATOM      7  C   UNL     1       3.122  -2.331   5.743  0.00  0.00    +0.028 A 
ATOM      8  C   UNL     1       3.153  -1.862   4.433  0.00  0.00    +0.047 A 
ATOM      9  N   UNL     1       2.171  -1.460   3.555  0.00  0.00    -0.351 N 
ATOM     10  H   UNL     1       1.220  -1.444   3.741  0.00  0.00    +0.166 HD
ENDROOT
BRANCH   1  12
ATOM     11  N   UNL     1       0.711  -0.489   1.189  0.00  0.00    -0.305 N 
ATOM     12  C   UNL     1       2.054  -0.600   1.174  0.00  0.00    +0.261 C 
ATOM     13  O   UNL     1       2.678  -0.296   0.174  0.00  0.00    -0.269 OA
ATOM     14  H   UNL     1       0.213  -0.731   1.986  0.00  0.00    +0.149 HD
BRANCH  11  16
ATOM     15  C   UNL     1      -0.019   1.526   0.010  0.00  0.00    +0.030 C 
ATOM     16  C   UNL     1       0.002  -0.004   0.002  0.00  0.00    +0.099 C 
BRANCH  16  17
ATOM     17  C   UNL     1      -1.433  -0.534   0.013  0.00  0.00    +0.138 C 
ATOM     18  C   UNL     1      -1.437  -2.075   0.166  0.00  0.00    +0.035 C 
ATOM     19  C   UNL     1      -2.841  -2.307   0.788  0.00  0.00    +0.031 C 
ATOM     20  C   UNL     1      -3.022  -1.050   1.665  0.00  0.00    +0.160 C 
ATOM     21  O   UNL     1      -2.139  -0.039   1.162  0.00  0.00    -0.375 OA
ENDBRANCH  16  17
ENDBRANCH  11  16
ENDBRANCH   1  12
BRANCH   5  22
ATOM     22  N   UNL     1       6.702  -2.863   6.406  0.00  0.00    -0.358 N 
ATOM     23  H   UNL     1       7.557  -2.772   5.957  0.00  0.00    +0.142 HD
ATOM     24  H   UNL     1       6.667  -3.189   7.319  0.00  0.00    +0.142 HD
ENDBRANCH   5  22
TORSDOF 4
