REMARK  Name = ZINC07729366
REMARK  5 active torsions:
REMARK  status: ('A' for Active; 'I' for Inactive)
REMARK    1  A    between atoms: C_1  and  C_2
REMARK    2  A    between atoms: C_9  and  N_14
REMARK    3  A    between atoms: N_14  and  S_15
REMARK    4  A    between atoms: S_15  and  C_18
REMARK    5  A    between atoms: C_22  and  C_24
REMARK                            x       y       z     vdW  Elec       q    Type
REMARK                         _______ _______ _______ _____ _____    ______ ____
ROOT
ATOM      1  C   UNL     1      -5.803   6.319  -4.364  0.00  0.00    +0.062 C 
ATOM      2  C   UNL     1      -4.861   5.899  -5.494  0.00  0.00    +0.256 C 
ATOM      3  C   UNL     1      -3.985   7.065  -5.877  0.00  0.00    +0.258 C 
ATOM      4  O   UNL     1      -4.333   7.825  -6.755  0.00  0.00    -0.271 OA
ATOM      5  N   UNL     1      -2.811   7.258  -5.238  0.00  0.00    -0.279 N 
ATOM      6  C   UNL     1      -2.414   6.345  -4.251  0.00  0.00    +0.078 A 
ATOM      7  C   UNL     1      -1.402   6.661  -3.361  0.00  0.00    +0.051 A 
ATOM      8  C   UNL     1      -1.024   5.742  -2.391  0.00  0.00    +0.050 A 
ATOM      9  C   UNL     1      -1.657   4.507  -2.320  0.00  0.00    +0.028 A 
ATOM     10  C   UNL     1      -2.671   4.194  -3.205  0.00  0.00    +0.049 A 
ATOM     11  C   UNL     1      -3.051   5.107  -4.173  0.00  0.00    +0.143 A 
ATOM     12  O   UNL     1      -4.045   4.810  -5.054  0.00  0.00    -0.478 OA
ATOM     13  H   UNL     1      -2.249   8.018  -5.459  0.00  0.00    +0.155 HD
ENDROOT
BRANCH   8  14
ATOM     14  N   UNL     1      -0.002   6.057  -1.489  0.00  0.00    -0.216 N 
ATOM     15  H   UNL     1       0.873   5.648  -1.586  0.00  0.00    +0.174 HD
BRANCH  14  16
ATOM     16  S   UNL     1      -0.285   7.127  -0.257  0.00  0.00    +0.072 S 
ATOM     17  O   UNL     1      -0.870   8.280  -0.847  0.00  0.00    -0.150 OA
ATOM     18  O   UNL     1       0.909   7.186   0.511  0.00  0.00    -0.150 OA
BRANCH  16  19
ATOM     19  C   UNL     1      -1.516   6.412   0.781  0.00  0.00    +0.110 A 
ATOM     20  C   UNL     1      -2.848   6.745   0.602  0.00  0.00    +0.029 A 
ATOM     21  C   UNL     1      -3.821   6.185   1.410  0.00  0.00    +0.003 A 
ATOM     22  C   UNL     1      -3.470   5.298   2.405  0.00  0.00    +0.019 A 
ATOM     23  C   UNL     1      -2.129   4.957   2.591  0.00  0.00    +0.054 A 
ATOM     24  C   UNL     1      -1.151   5.522   1.769  0.00  0.00    +0.047 A 
BRANCH  23  25
ATOM     25  C   UNL     1      -1.757   4.031   3.618  0.00  0.00    +0.099 C 
ATOM     26  N   UNL     1      -1.462   3.297   4.434  0.00  0.00    -0.191 NA
ENDBRANCH  23  25
ENDBRANCH  16  19
ENDBRANCH  14  16
ENDBRANCH   8  14
TORSDOF 4
