REMARK  Name = ZINC53044303
REMARK  6 active torsions:
REMARK  status: ('A' for Active; 'I' for Inactive)
REMARK    1  A    between atoms: C_2  and  N_20
REMARK    2  A    between atoms: C_6  and  S_7
REMARK    3  A    between atoms: S_7  and  N_10
REMARK    4  A    between atoms: N_10  and  C_11
REMARK    5  A    between atoms: C_11  and  C_16
REMARK    6  A    between atoms: C_16  and  O_17
REMARK                            x       y       z     vdW  Elec       q    Type
REMARK                         _______ _______ _______ _____ _____    ______ ____
ROOT
ATOM      1  S   UNL     1      -3.125  -1.949  -1.132  0.00  0.00    +0.062 S 
ATOM      2  O   UNL     1      -3.592  -0.680  -0.694  0.00  0.00    -0.153 OA
ATOM      3  O   UNL     1      -3.352  -3.141  -0.392  0.00  0.00    -0.153 OA
ENDROOT
BRANCH   1   9
ATOM      4  C   UNL     1      -4.454  -3.401  -3.022  0.00  0.00    +0.057 A 
ATOM      5  C   UNL     1      -4.994  -3.608  -4.284  0.00  0.00    +0.062 A 
ATOM      6  C   UNL     1      -4.886  -2.619  -5.255  0.00  0.00    +0.147 A 
ATOM      7  C   UNL     1      -4.240  -1.432  -4.962  0.00  0.00    +0.080 A 
ATOM      8  C   UNL     1      -3.703  -1.228  -3.702  0.00  0.00    +0.152 A 
ATOM      9  C   UNL     1      -3.810  -2.212  -2.734  0.00  0.00    +0.142 A 
ATOM     10  F   UNL     1      -3.073  -0.068  -3.417  0.00  0.00    -0.203 F 
ATOM     11  F   UNL     1      -5.410  -2.819  -6.484  0.00  0.00    -0.203 F 
BRANCH   5  12
ATOM     12  N   UNL     1      -5.646  -4.812  -4.578  0.00  0.00    -0.356 N 
ATOM     13  H   UNL     1      -5.720  -5.501  -3.900  0.00  0.00    +0.142 HD
ATOM     14  H   UNL     1      -6.023  -4.956  -5.460  0.00  0.00    +0.142 HD
ENDBRANCH   5  12
ENDBRANCH   1   9
BRANCH   1  15
ATOM     15  N   UNL     1      -1.485  -1.811  -1.317  0.00  0.00    -0.182 NA
ATOM     16  H   UNL     1      -1.046  -0.966  -1.133  0.00  0.00    +0.149 HD
BRANCH  15  17
ATOM     17  C   UNL     1      -0.699  -2.965  -1.760  0.00  0.00    +0.063 C 
ATOM     18  C   UNL     1       0.805  -2.600  -1.832  0.00  0.00    +0.026 C 
ATOM     19  C   UNL     1       0.914  -1.867  -3.192  0.00  0.00    +0.002 C 
ATOM     20  C   UNL     1      -0.041  -2.647  -4.120  0.00  0.00    +0.002 C 
ATOM     21  C   UNL     1      -1.066  -3.345  -3.209  0.00  0.00    +0.026 C 
BRANCH  17  22
ATOM     22  C   UNL     1      -0.920  -4.153  -0.822  0.00  0.00    +0.179 C 
BRANCH  22  23
ATOM     23  O   UNL     1      -0.653  -3.754   0.524  0.00  0.00    -0.393 OA
ATOM     24  H   UNL     1      -0.774  -4.459   1.175  0.00  0.00    +0.209 HD
ENDBRANCH  22  23
ENDBRANCH  17  22
ENDBRANCH  15  17
ENDBRANCH   1  15
TORSDOF 6
