REMARK  Name = ZINC09158111
REMARK  8 active torsions:
REMARK  status: ('A' for Active; 'I' for Inactive)
REMARK    1  A    between atoms: C_1  and  C_2
REMARK    2  A    between atoms: C_7  and  C_8
REMARK    3  A    between atoms: C_14  and  C_25
REMARK    4  A    between atoms: N_16  and  C_19
REMARK    5  A    between atoms: C_19  and  C_20
REMARK    6  A    between atoms: C_28  and  C_31
REMARK    7  A    between atoms: C_31  and  O_33
REMARK    8  A    between atoms: O_33  and  C_34
REMARK                            x       y       z     vdW  Elec       q    Type
REMARK                         _______ _______ _______ _____ _____    ______ ____
ROOT
ATOM      1  C   UNL     1       0.064  -4.295  -0.024  0.00  0.00    +0.044 C 
ATOM      2  C   UNL     1       0.053  -2.789  -0.015  0.00  0.00    -0.047 A 
ATOM      3  C   UNL     1       1.243  -2.093  -0.021  0.00  0.00    +0.019 A 
ATOM      4  C   UNL     1       1.224  -0.700  -0.013  0.00  0.00    +0.065 A 
ATOM      5  C   UNL     1       0.002  -0.004   0.002  0.00  0.00    +0.140 A 
ATOM      6  C   UNL     1      -1.186  -0.728   0.009  0.00  0.00    +0.050 A 
ATOM      7  C   UNL     1      -1.155  -2.105  -0.001  0.00  0.00    -0.044 A 
ATOM      8  C   UNL     1      -2.448  -2.880   0.006  0.00  0.00    +0.044 C 
ATOM      9  O   UNL     1      -0.016   1.341   0.009  0.00  0.00    -0.450 OA
ATOM     10  C   UNL     1       1.095   2.104   0.003  0.00  0.00    +0.199 A 
ATOM     11  C   UNL     1       2.330   1.546  -0.011  0.00  0.00    +0.072 A 
ATOM     12  C   UNL     1       2.472   0.087  -0.020  0.00  0.00    +0.199 A 
ATOM     13  O   UNL     1       3.566  -0.449  -0.033  0.00  0.00    -0.287 OA
ATOM     14  C   UNL     1       3.334   2.669  -0.013  0.00  0.00    +0.145 C 
ATOM     15  N   UNL     1       2.552   3.911   0.001  0.00  0.00    -0.276 N 
ATOM     16  C   UNL     1       1.249   3.580   0.011  0.00  0.00    +0.284 C 
ATOM     17  O   UNL     1       0.330   4.375   0.024  0.00  0.00    -0.267 OA
ENDROOT
BRANCH  14  18
ATOM     18  C   UNL     1       4.206   2.589   1.213  0.00  0.00    -0.022 A 
ATOM     19  C   UNL     1       3.728   3.045   2.429  0.00  0.00    +0.006 A 
ATOM     20  C   UNL     1       4.518   2.969   3.557  0.00  0.00    +0.015 A 
ATOM     21  C   UNL     1       5.808   2.442   3.467  0.00  0.00    +0.059 A 
ATOM     22  C   UNL     1       6.287   1.990   2.236  0.00  0.00    +0.015 A 
ATOM     23  C   UNL     1       5.483   2.065   1.118  0.00  0.00    +0.006 A 
BRANCH  21  24
ATOM     24  C   UNL     1       6.663   2.365   4.670  0.00  0.00    +0.339 C 
ATOM     25  O   UNL     1       7.785   1.906   4.589  0.00  0.00    -0.245 OA
BRANCH  24  26
ATOM     26  O   UNL     1       6.198   2.802   5.856  0.00  0.00    -0.464 OA
ATOM     27  C   UNL     1       7.093   2.695   6.995  0.00  0.00    +0.280 C 
ENDBRANCH  24  26
ENDBRANCH  21  24
ENDBRANCH  14  18
BRANCH  15  28
ATOM     28  C   UNL     1       3.095   5.272   0.004  0.00  0.00    +0.183 C 
BRANCH  28  29
ATOM     29  C   UNL     1       3.269   5.747  -1.415  0.00  0.00    +0.122 A 
ATOM     30  C   UNL     1       2.344   6.394  -2.147  0.00  0.00    +0.046 A 
ATOM     31  C   UNL     1       2.927   6.650  -3.410  0.00  0.00    +0.041 A 
ATOM     32  C   UNL     1       4.169   6.136  -3.377  0.00  0.00    +0.195 A 
ATOM     33  O   UNL     1       4.371   5.590  -2.167  0.00  0.00    -0.466 OA
ENDBRANCH  28  29
ENDBRANCH  15  28
TORSDOF 5
