REMARK  Name = ZINC40360210
REMARK  5 active torsions:
REMARK  status: ('A' for Active; 'I' for Inactive)
REMARK    1  A    between atoms: C_3  and  C_10
REMARK    2  A    between atoms: C_5  and  N_7
REMARK    3  A    between atoms: N_12  and  C_13
REMARK    4  A    between atoms: C_13  and  C_15
REMARK    5  A    between atoms: C_13  and  C_17
REMARK                            x       y       z     vdW  Elec       q    Type
REMARK                         _______ _______ _______ _____ _____    ______ ____
ROOT
ATOM      1  C   UNL     1       3.657   2.160  -0.022  0.00  0.00    +0.245 C 
ATOM      2  O   UNL     1       4.716   1.564  -0.035  0.00  0.00    -0.270 OA
ATOM      3  N   UNL     1       3.642   3.508  -0.015  0.00  0.00    -0.296 N 
ATOM      4  H   UNL     1       2.797   3.984  -0.004  0.00  0.00    +0.150 HD
ENDROOT
BRANCH   1   7
ATOM      5  C   UNL     1      -0.017   1.379   0.010  0.00  0.00    +0.003 A 
ATOM      6  C   UNL     1       1.167   2.088   0.002  0.00  0.00    +0.013 A 
ATOM      7  C   UNL     1       2.385   1.407  -0.013  0.00  0.00    +0.039 A 
ATOM      8  C   UNL     1       2.397   0.011  -0.021  0.00  0.00    +0.045 A 
ATOM      9  C   UNL     1       1.206  -0.686  -0.013  0.00  0.00    +0.127 A 
ATOM     10  C   UNL     1       0.002  -0.004   0.002  0.00  0.00    +0.033 A 
BRANCH   9  11
ATOM     11  N   UNL     1       1.217  -2.166  -0.021  0.00  0.00    +0.056 N 
ATOM     12  O   UNL     1       2.268  -2.763  -0.034  0.00  0.00    -0.126 OA
ATOM     13  O   UNL     1       0.174  -2.778  -0.014  0.00  0.00    -0.126 OA
ENDBRANCH   9  11
ENDBRANCH   1   7
BRANCH   3  14
ATOM     14  C   UNL     1       4.903   4.254  -0.023  0.00  0.00    +0.179 C 
BRANCH  14  15
ATOM     15  C   UNL     1       4.669   5.642  -0.624  0.00  0.00    +0.024 C 
ATOM     16  C   UNL     1       4.153   5.498  -2.057  0.00  0.00    +0.006 C 
ATOM     17  C   UNL     1       3.919   6.886  -2.657  0.00  0.00    +0.000 C 
ATOM     18  C   UNL     1       5.236   7.665  -2.666  0.00  0.00    +0.000 C 
ATOM     19  C   UNL     1       5.753   7.810  -1.233  0.00  0.00    +0.000 C 
ATOM     20  C   UNL     1       5.986   6.422  -0.633  0.00  0.00    +0.006 C 
ENDBRANCH  14  15
BRANCH  14  21
ATOM     21  C   UNL     1       5.400   4.393   1.355  0.00  0.00    +0.085 C 
ATOM     22  N   UNL     1       5.784   4.501   2.419  0.00  0.00    -0.195 NA
ENDBRANCH  14  21
ENDBRANCH   3  14
TORSDOF 5
