REMARK  Name = ZINC35934164
REMARK  9 active torsions:
REMARK  status: ('A' for Active; 'I' for Inactive)
REMARK    1  A    between atoms: C_1  and  C_2
REMARK    2  A    between atoms: C_2  and  N_3
REMARK    3  A    between atoms: C_6  and  C_11
REMARK    4  A    between atoms: N_20  and  C_22
REMARK    5  A    between atoms: C_22  and  C_24
REMARK    6  A    between atoms: C_22  and  C_31
REMARK    7  A    between atoms: C_24  and  C_25
REMARK    8  A    between atoms: N_33  and  C_34
REMARK    9  A    between atoms: C_34  and  C_35
REMARK                            x       y       z     vdW  Elec       q    Type
REMARK                         _______ _______ _______ _____ _____    ______ ____
ROOT
ATOM      1  N   UNL     1      -1.372  -0.511   0.012  0.00  0.00    -0.257 N 
ATOM      2  C   UNL     1      -1.968  -0.736   1.220  0.00  0.00    +0.042 C 
ATOM      3  C   UNL     1      -3.231  -1.202   1.301  0.00  0.00    +0.058 C 
ATOM      4  C   UNL     1      -3.968  -1.468   0.004  0.00  0.00    +0.142 C 
ATOM      5  N   UNL     1      -3.238  -1.194  -1.246  0.00  0.00    -0.288 N 
ATOM      6  C   UNL     1      -1.978  -0.724  -1.163  0.00  0.00    +0.307 C 
ATOM      7  O   UNL     1      -1.369  -0.491  -2.189  0.00  0.00    -0.252 OA
ATOM      8  C   UNL     1      -3.615  -1.349   2.650  0.00  0.00    +0.247 C 
ATOM      9  O   UNL     1      -4.704  -1.752   3.015  0.00  0.00    -0.270 OA
ATOM     10  N   UNL     1      -2.620  -0.986   3.480  0.00  0.00    -0.280 N 
ATOM     11  C   UNL     1      -1.487  -0.565   2.644  0.00  0.00    +0.160 C 
ATOM     12  H   UNL     1      -3.656  -1.344  -2.108  0.00  0.00    +0.151 HD
ENDROOT
BRANCH   4  13
ATOM     13  C   UNL     1      -5.222  -0.632   0.001  0.00  0.00    -0.022 A 
ATOM     14  C   UNL     1      -5.159   0.708  -0.333  0.00  0.00    +0.007 A 
ATOM     15  C   UNL     1      -6.308   1.475  -0.336  0.00  0.00    +0.020 A 
ATOM     16  C   UNL     1      -7.523   0.902  -0.003  0.00  0.00    +0.041 A 
ATOM     17  C   UNL     1      -7.585  -0.439   0.332  0.00  0.00    +0.020 A 
ATOM     18  C   UNL     1      -6.436  -1.206   0.329  0.00  0.00    +0.007 A 
ATOM     19 CL   UNL     1      -8.967   1.865  -0.005  0.00  0.00    -0.084 Cl
ENDBRANCH   4  13
BRANCH   1  21
ATOM     20  C   UNL     1      -0.019   1.526   0.010  0.00  0.00    +0.025 C 
ATOM     21  C   UNL     1       0.002  -0.004   0.002  0.00  0.00    +0.111 C 
ENDBRANCH   1  21
BRANCH  10  22
ATOM     22  C   UNL     1      -2.660  -1.007   4.944  0.00  0.00    +0.167 C 
BRANCH  22  23
ATOM     23  C   UNL     1      -3.765  -0.105   5.430  0.00  0.00    +0.234 C 
ATOM     24  O   UNL     1      -4.452   0.496   4.631  0.00  0.00    -0.274 OA
ATOM     25  N   UNL     1      -3.990   0.034   6.751  0.00  0.00    -0.310 N 
ATOM     26  H   UNL     1      -3.440  -0.447   7.390  0.00  0.00    +0.149 HD
BRANCH  25  27
ATOM     27  C   UNL     1      -5.065   0.910   7.223  0.00  0.00    +0.139 C 
BRANCH  27  28
ATOM     28  C   UNL     1      -5.105   0.889   8.730  0.00  0.00    -0.030 A 
ATOM     29  C   UNL     1      -5.885  -0.044   9.387  0.00  0.00    +0.005 A 
ATOM     30  C   UNL     1      -5.922  -0.064  10.769  0.00  0.00    +0.000 A 
ATOM     31  C   UNL     1      -5.179   0.850  11.493  0.00  0.00    +0.000 A 
ATOM     32  C   UNL     1      -4.399   1.783  10.836  0.00  0.00    +0.000 A 
ATOM     33  C   UNL     1      -4.359   1.800   9.454  0.00  0.00    +0.005 A 
ENDBRANCH  27  28
ENDBRANCH  25  27
ENDBRANCH  22  23
BRANCH  22  34
ATOM     34  C   UNL     1      -2.918  -2.435   5.427  0.00  0.00    +0.067 C 
BRANCH  34  35
ATOM     35  C   UNL     1      -1.752  -3.312   5.048  0.00  0.00    -0.045 A 
ATOM     36  C   UNL     1      -1.748  -3.966   3.829  0.00  0.00    +0.004 A 
ATOM     37  C   UNL     1      -0.679  -4.770   3.481  0.00  0.00    +0.000 A 
ATOM     38  C   UNL     1       0.386  -4.921   4.350  0.00  0.00    +0.000 A 
ATOM     39  C   UNL     1       0.381  -4.266   5.568  0.00  0.00    +0.000 A 
ATOM     40  C   UNL     1      -0.686  -3.458   5.915  0.00  0.00    +0.004 A 
ENDBRANCH  34  35
ENDBRANCH  22  34
ENDBRANCH  10  22
TORSDOF 8
