REMARK  Name = ZINC14458796
REMARK  5 active torsions:
REMARK  status: ('A' for Active; 'I' for Inactive)
REMARK    1  A    between atoms: C_1  and  C_2
REMARK    2  A    between atoms: C_5  and  C_8
REMARK    3  A    between atoms: C_19  and  C_24
REMARK    4  A    between atoms: N_26  and  C_27
REMARK    5  A    between atoms: C_27  and  C_28
REMARK                            x       y       z     vdW  Elec       q    Type
REMARK                         _______ _______ _______ _____ _____    ______ ____
ROOT
ATOM      1  C   UNL     1       1.089  -0.572  -9.655  0.00  0.00    +0.105 C 
ATOM      2  C   UNL     1       0.589   0.860  -9.591  0.00  0.00    +0.029 C 
ATOM      3  C   UNL     1      -0.167   1.395 -10.814  0.00  0.00    +0.033 C 
ATOM      4  C   UNL     1      -1.102   2.423 -10.172  0.00  0.00    -0.030 C 
ATOM      5  C   UNL     1      -1.332   2.099  -8.906  0.00  0.00    -0.023 C 
ATOM      6  C   UNL     1      -0.616   0.834  -8.602  0.00  0.00    +0.049 C 
ATOM      7  C   UNL     1      -0.086   0.539  -7.253  0.00  0.00    -0.019 A 
ATOM      8  C   UNL     1      -0.635   1.078  -6.114  0.00  0.00    +0.019 A 
ATOM      9  C   UNL     1      -0.110   0.755  -4.860  0.00  0.00    +0.037 A 
ATOM     10  C   UNL     1       0.979  -0.118  -4.770  0.00  0.00    +0.015 A 
ATOM     11  C   UNL     1       1.523  -0.659  -5.910  0.00  0.00    +0.024 A 
ATOM     12  C   UNL     1       1.008  -0.334  -7.163  0.00  0.00    +0.031 A 
ATOM     13  N   UNL     1       1.601  -0.877  -8.302  0.00  0.00    -0.336 N 
ATOM     14  H   UNL     1       2.366  -1.466  -8.205  0.00  0.00    +0.147 HD
ENDROOT
BRANCH   1  19
ATOM     15  C   UNL     1       5.328  -1.030 -13.556  0.00  0.00    +0.044 C 
ATOM     16  C   UNL     1       4.222  -0.910 -12.539  0.00  0.00    -0.050 A 
ATOM     17  C   UNL     1       2.937  -1.298 -12.867  0.00  0.00    +0.004 A 
ATOM     18  C   UNL     1       1.923  -1.189 -11.934  0.00  0.00    +0.006 A 
ATOM     19  C   UNL     1       2.194  -0.691 -10.673  0.00  0.00    -0.027 A 
ATOM     20  C   UNL     1       3.479  -0.297 -10.347  0.00  0.00    +0.006 A 
ATOM     21  C   UNL     1       4.494  -0.411 -11.279  0.00  0.00    +0.004 A 
ENDBRANCH   1  19
BRANCH   9  22
ATOM     22  C   UNL     1      -0.697   1.337  -3.638  0.00  0.00    +0.244 C 
ATOM     23  O   UNL     1      -1.640   2.100  -3.721  0.00  0.00    -0.270 OA
ATOM     24  N   UNL     1      -0.187   1.023  -2.431  0.00  0.00    -0.309 N 
ATOM     25  H   UNL     1       0.565   0.414  -2.365  0.00  0.00    +0.149 HD
BRANCH  24  26
ATOM     26  C   UNL     1      -0.770   1.601  -1.217  0.00  0.00    +0.136 C 
BRANCH  26  27
ATOM     27  C   UNL     1      -0.013   1.086   0.008  0.00  0.00    +0.135 C 
ATOM     28  C   UNL     1      -0.692   1.593   1.298  0.00  0.00    +0.035 C 
ATOM     29  C   UNL     1       0.525   1.919   2.206  0.00  0.00    +0.031 C 
ATOM     30  C   UNL     1       1.552   2.412   1.155  0.00  0.00    +0.160 C 
ATOM     31  O   UNL     1       1.328   1.590  -0.002  0.00  0.00    -0.375 OA
ENDBRANCH  26  27
ENDBRANCH  24  26
ENDBRANCH   9  22
TORSDOF 4
