REMARK  Name = ZINC06281202
REMARK  15 active torsions:
REMARK  status: ('A' for Active; 'I' for Inactive)
REMARK    1  A    between atoms: C_1  and  C_2
REMARK    2  A    between atoms: C_5  and  C_7
REMARK    3  A    between atoms: N_10  and  C_12
REMARK    4  A    between atoms: C_12  and  C_13
REMARK    5  A    between atoms: N_15  and  C_16
REMARK    6  A    between atoms: N_15  and  C_25
REMARK    7  A    between atoms: C_16  and  C_17
REMARK    8  A    between atoms: C_20  and  O_23
REMARK    9  A    between atoms: O_23  and  C_24
REMARK   10  A    between atoms: C_25  and  C_27
REMARK   11  A    between atoms: C_25  and  C_33
REMARK   12  A    between atoms: N_35  and  C_36
REMARK   13  A    between atoms: C_36  and  C_37
REMARK   14  A    between atoms: C_36  and  C_38
REMARK   15  A    between atoms: C_36  and  C_39
REMARK                            x       y       z     vdW  Elec       q    Type
REMARK                         _______ _______ _______ _____ _____    ______ ____
ROOT
ATOM      1  C   UNL     1      -4.102   2.475  -1.128  0.00  0.00    +0.240 C 
ATOM      2  O   UNL     1      -4.516   1.789  -2.038  0.00  0.00    -0.273 OA
ATOM      3  N   UNL     1      -3.520   3.663  -1.390  0.00  0.00    -0.280 N 
ENDROOT
BRANCH   1   4
ATOM      4  C   UNL     1      -4.238   2.001   0.296  0.00  0.00    +0.264 C 
BRANCH   4   8
ATOM      5  C   UNL     1      -6.080  -1.010   0.342  0.00  0.00    +0.239 A 
ATOM      6  N   UNL     1      -4.818  -1.465   0.303  0.00  0.00    -0.105 NA
ATOM      7  N   UNL     1      -4.040  -0.437   0.283  0.00  0.00    -0.045 NA
ATOM      8  N   UNL     1      -4.758   0.632   0.307  0.00  0.00    -0.154 N 
ATOM      9  N   UNL     1      -6.005   0.308   0.348  0.00  0.00    -0.127 NA
BRANCH   5  14
ATOM     10  C   UNL     1     -10.939  -2.263   0.478  0.00  0.00    +0.086 C 
ATOM     11  C   UNL     1      -9.437  -2.378   0.436  0.00  0.00    +0.103 A 
ATOM     12  C   UNL     1      -8.738  -3.529   0.412  0.00  0.00    +0.045 A 
ATOM     13  C   UNL     1      -7.373  -3.182   0.368  0.00  0.00    +0.053 A 
ATOM     14  C   UNL     1      -7.314  -1.825   0.376  0.00  0.00    +0.175 A 
ATOM     15  O   UNL     1      -8.573  -1.350   0.413  0.00  0.00    -0.457 OA
ENDBRANCH   5  14
ENDBRANCH   4   8
ENDBRANCH   1   4
BRANCH   3  16
ATOM     16  C   UNL     1      -3.480   4.171  -2.764  0.00  0.00    +0.144 C 
BRANCH  16  17
ATOM     17  C   UNL     1      -2.171   3.786  -3.404  0.00  0.00    -0.030 A 
ATOM     18  C   UNL     1      -1.051   4.573  -3.210  0.00  0.00    +0.009 A 
ATOM     19  C   UNL     1       0.152   4.220  -3.792  0.00  0.00    +0.046 A 
ATOM     20  C   UNL     1       0.232   3.080  -4.579  0.00  0.00    +0.120 A 
ATOM     21  C   UNL     1      -0.895   2.296  -4.776  0.00  0.00    +0.046 A 
ATOM     22  C   UNL     1      -2.094   2.650  -4.188  0.00  0.00    +0.009 A 
BRANCH  20  23
ATOM     23  O   UNL     1       1.412   2.733  -5.156  0.00  0.00    -0.495 OA
ATOM     24  C   UNL     1       2.531   3.588  -4.910  0.00  0.00    +0.277 C 
ENDBRANCH  20  23
ENDBRANCH  16  17
ENDBRANCH   3  16
BRANCH   3  25
ATOM     25  C   UNL     1      -2.928   4.444  -0.302  0.00  0.00    +0.193 C 
BRANCH  25  26
ATOM     26  C   UNL     1      -4.002   4.829   0.682  0.00  0.00    -0.015 A 
ATOM     27  C   UNL     1      -5.226   5.311   0.245  0.00  0.00    +0.025 A 
ATOM     28  C   UNL     1      -6.185   5.658   1.177  0.00  0.00    +0.111 A 
ATOM     29  N   UNL     1      -5.950   5.527   2.468  0.00  0.00    -0.263 NA
ATOM     30  C   UNL     1      -4.800   5.067   2.920  0.00  0.00    +0.111 A 
ATOM     31  C   UNL     1      -3.791   4.705   2.047  0.00  0.00    +0.025 A 
ENDBRANCH  25  26
BRANCH  25  32
ATOM     32  C   UNL     1      -2.293   5.689  -0.866  0.00  0.00    +0.238 C 
ATOM     33  O   UNL     1      -2.945   6.443  -1.557  0.00  0.00    -0.273 OA
ATOM     34  N   UNL     1      -1.001   5.966  -0.602  0.00  0.00    -0.309 N 
ATOM     35  H   UNL     1      -0.454   5.320  -0.128  0.00  0.00    +0.149 HD
BRANCH  34  36
ATOM     36  C   UNL     1      -0.422   7.242  -1.030  0.00  0.00    +0.026 C 
ATOM     37  C   UNL     1      -1.218   8.395  -0.414  0.00  0.00    +0.031 C 
ATOM     38  C   UNL     1       1.034   7.323  -0.567  0.00  0.00    +0.031 C 
ATOM     39  C   UNL     1      -0.479   7.341  -2.556  0.00  0.00    +0.031 C 
ENDBRANCH  34  36
ENDBRANCH  25  32
ENDBRANCH   3  25
TORSDOF 10
