REMARK  Name = ZINC14288585
REMARK  9 active torsions:
REMARK  status: ('A' for Active; 'I' for Inactive)
REMARK    1  A    between atoms: C_1  and  C_2
REMARK    2  A    between atoms: C_2  and  N_3
REMARK    3  A    between atoms: N_3  and  C_4
REMARK    4  A    between atoms: N_3  and  C_6
REMARK    5  A    between atoms: C_4  and  C_5
REMARK    6  A    between atoms: C_9  and  C_12
REMARK    7  A    between atoms: C_15  and  S_17
REMARK    8  A    between atoms: S_17  and  C_18
REMARK    9  A    between atoms: C_24  and  C_27
REMARK                            x       y       z     vdW  Elec       q    Type
REMARK                         _______ _______ _______ _____ _____    ______ ____
ROOT
ATOM      1  C   UNL     1       1.275   1.740  -0.001  0.00  0.00    +0.249 A 
ATOM      2  N   UNL     1       2.017   0.659  -0.014  0.00  0.00    -0.106 NA
ATOM      3  N   UNL     1       1.259  -0.380  -0.012  0.00  0.00    -0.100 NA
ATOM      4  C   UNL     1       0.002  -0.004   0.002  0.00  0.00    +0.284 A 
ATOM      5  O   UNL     1      -0.016   1.343   0.009  0.00  0.00    -0.411 OA
ENDROOT
BRANCH   1   9
ATOM      6  C   UNL     1       2.674   5.751   0.006  0.00  0.00    +0.030 A 
ATOM      7  C   UNL     1       3.584   4.699  -0.007  0.00  0.00    +0.024 A 
ATOM      8  C   UNL     1       3.134   3.397  -0.010  0.00  0.00    +0.015 A 
ATOM      9  C   UNL     1       1.762   3.134   0.002  0.00  0.00    +0.039 A 
ATOM     10  C   UNL     1       0.851   4.193   0.011  0.00  0.00    +0.015 A 
ATOM     11  C   UNL     1       1.308   5.493   0.018  0.00  0.00    +0.024 A 
BRANCH   6  12
ATOM     12  N   UNL     1       3.134   7.069   0.009  0.00  0.00    -0.330 N 
BRANCH  12  14
ATOM     13  C   UNL     1       1.858   8.557   1.471  0.00  0.00    +0.024 C 
ATOM     14  C   UNL     1       2.177   8.178   0.023  0.00  0.00    +0.102 C 
ENDBRANCH  12  14
BRANCH  12  15
ATOM     15  C   UNL     1       4.573   7.343  -0.004  0.00  0.00    +0.102 C 
ATOM     16  C   UNL     1       5.060   7.445  -1.450  0.00  0.00    +0.024 C 
ENDBRANCH  12  15
ENDBRANCH   6  12
ENDBRANCH   1   9
BRANCH   4  17
ATOM     17  S   UNL     1      -1.404  -1.066   0.010  0.00  0.00    -0.008 S 
BRANCH  17  18
ATOM     18  C   UNL     1      -0.603  -2.635  -0.006  0.00  0.00    +0.127 A 
ATOM     19  C   UNL     1      -1.377  -3.812   0.001  0.00  0.00    +0.041 A 
ATOM     20  C   UNL     1      -0.770  -5.027  -0.018  0.00  0.00    +0.053 A 
ATOM     21  C   UNL     1       0.637  -5.091  -0.032  0.00  0.00    +0.178 A 
ATOM     22  N   UNL     1       1.508  -6.087  -0.045  0.00  0.00    -0.128 NA
ATOM     23  N   UNL     1       2.702  -5.606  -0.054  0.00  0.00    -0.123 NA
ATOM     24  C   UNL     1       2.662  -4.296  -0.047  0.00  0.00    +0.258 A 
ATOM     25  N   UNL     1       1.363  -3.926  -0.033  0.00  0.00    -0.188 N 
ATOM     26  N   UNL     1       0.709  -2.693  -0.019  0.00  0.00    -0.156 NA
BRANCH  24  27
ATOM     27  C   UNL     1       3.850  -3.370  -0.054  0.00  0.00    +0.454 C 
ATOM     28  F   UNL     1       4.998  -4.087  -0.410  0.00  0.00    -0.163 F 
ATOM     29  F   UNL     1       3.636  -2.343  -0.979  0.00  0.00    -0.163 F 
ATOM     30  F   UNL     1       4.021  -2.821   1.222  0.00  0.00    -0.163 F 
ENDBRANCH  24  27
ENDBRANCH  17  18
ENDBRANCH   4  17
TORSDOF 7
