REMARK  Name = ZINC17207089
REMARK  5 active torsions:
REMARK  status: ('A' for Active; 'I' for Inactive)
REMARK    1  A    between atoms: C_1  and  C_2
REMARK    2  A    between atoms: C_14  and  C_15
REMARK    3  A    between atoms: C_18  and  O_23
REMARK    4  A    between atoms: C_19  and  O_21
REMARK    5  A    between atoms: O_21  and  C_22
REMARK                            x       y       z     vdW  Elec       q    Type
REMARK                         _______ _______ _______ _____ _____    ______ ____
ROOT
ATOM      1  C   UNL     1      -0.004   1.384   0.972  0.00  0.00    +0.063 C 
ATOM      2  C   UNL     1       0.011  -0.081   0.621  0.00  0.00    +0.014 A 
ATOM      3  C   UNL     1      -1.163  -0.740   0.484  0.00  0.00    +0.033 A 
ATOM      4  C   UNL     1      -1.155  -2.108   0.155  0.00  0.00    +0.036 A 
ATOM      5  C   UNL     1       0.086  -2.761  -0.024  0.00  0.00    +0.101 A 
ATOM      6  C   UNL     1       1.275  -2.019   0.132  0.00  0.00    +0.099 A 
ATOM      7  S   UNL     1       2.797  -2.775  -0.077  0.00  0.00    -0.032 S 
ATOM      8  N   UNL     1       1.205  -0.709   0.442  0.00  0.00    -0.352 N 
ATOM      9  H   UNL     1       2.026  -0.202   0.545  0.00  0.00    +0.166 HD
ATOM     10  C   UNL     1      -0.227  -4.146  -0.351  0.00  0.00    +0.348 C 
ATOM     11  O   UNL     1       0.587  -5.023  -0.576  0.00  0.00    -0.244 OA
ATOM     12  O   UNL     1      -1.564  -4.296  -0.362  0.00  0.00    -0.422 OA
ATOM     13  C   UNL     1      -2.181  -3.124  -0.069  0.00  0.00    +0.141 C 
ATOM     14  C   UNL     1      -3.522  -2.928   0.003  0.00  0.00    +0.055 C 
ENDROOT
BRANCH  14  15
ATOM     15  C   UNL     1      -4.438  -4.070  -0.110  0.00  0.00    -0.018 A 
ATOM     16  C   UNL     1      -3.934  -5.377  -0.115  0.00  0.00    +0.012 A 
ATOM     17  C   UNL     1      -4.796  -6.446  -0.220  0.00  0.00    +0.050 A 
ATOM     18  C   UNL     1      -6.164  -6.232  -0.322  0.00  0.00    +0.158 A 
ATOM     19  C   UNL     1      -6.674  -4.934  -0.318  0.00  0.00    +0.162 A 
ATOM     20  C   UNL     1      -5.819  -3.856  -0.207  0.00  0.00    +0.057 A 
BRANCH  19  21
ATOM     21  O   UNL     1      -8.015  -4.730  -0.418  0.00  0.00    -0.491 OA
ATOM     22  C   UNL     1      -8.468  -3.375  -0.407  0.00  0.00    +0.277 C 
ENDBRANCH  19  21
BRANCH  18  23
ATOM     23  O   UNL     1      -7.009  -7.291  -0.427  0.00  0.00    -0.503 OA
ATOM     24  H   UNL     1      -7.324  -7.628   0.423  0.00  0.00    +0.292 HD
ENDBRANCH  18  23
ENDBRANCH  14  15
TORSDOF 3
