REMARK  Name = ZINC09157127
REMARK  7 active torsions:
REMARK  status: ('A' for Active; 'I' for Inactive)
REMARK    1  A    between atoms: C_1  and  N_2
REMARK    2  A    between atoms: C_6  and  S_7
REMARK    3  A    between atoms: S_7  and  C_8
REMARK    4  A    between atoms: C_11  and  C_17
REMARK    5  A    between atoms: C_13  and  N_14
REMARK    6  A    between atoms: N_28  and  C_29
REMARK    7  A    between atoms: C_29  and  C_30
REMARK                            x       y       z     vdW  Elec       q    Type
REMARK                         _______ _______ _______ _____ _____    ______ ____
ROOT
ATOM      1  C   UNL     1       2.913   1.990  -0.208  0.00  0.00    +0.193 C 
ATOM      2  N   UNL     1       3.797   2.942   0.476  0.00  0.00    -0.321 N 
ATOM      3  C   UNL     1       3.803   2.962   1.866  0.00  0.00    +0.041 A 
ATOM      4  C   UNL     1       4.074   4.115   2.581  0.00  0.00    +0.024 A 
ATOM      5  C   UNL     1       4.056   4.083   3.962  0.00  0.00    +0.002 A 
ATOM      6  C   UNL     1       3.771   2.906   4.636  0.00  0.00    +0.001 A 
ATOM      7  C   UNL     1       3.501   1.747   3.939  0.00  0.00    +0.015 A 
ATOM      8  C   UNL     1       3.516   1.765   2.546  0.00  0.00    +0.058 A 
ATOM      9  C   UNL     1       3.239   0.555   1.752  0.00  0.00    +0.250 C 
ATOM     10  O   UNL     1       3.235  -0.540   2.280  0.00  0.00    -0.270 OA
ATOM     11  N   UNL     1       2.992   0.676   0.431  0.00  0.00    -0.268 N 
ATOM     12  H   UNL     1       4.365   3.543  -0.031  0.00  0.00    +0.148 HD
ENDROOT
BRANCH   1  16
ATOM     13  C   UNL     1      -1.112   3.414  -0.025  0.00  0.00    +0.046 A 
ATOM     14  C   UNL     1      -0.859   2.050  -0.091  0.00  0.00    +0.018 A 
ATOM     15  C   UNL     1       0.443   1.593  -0.144  0.00  0.00    +0.008 A 
ATOM     16  C   UNL     1       1.494   2.492  -0.144  0.00  0.00    -0.007 A 
ATOM     17  C   UNL     1       1.245   3.851  -0.085  0.00  0.00    +0.041 A 
ATOM     18  C   UNL     1      -0.054   4.315  -0.025  0.00  0.00    +0.140 A 
BRANCH  18  19
ATOM     19  N   UNL     1      -0.319   5.770   0.038  0.00  0.00    +0.058 N 
ATOM     20  O   UNL     1       0.609   6.559   0.037  0.00  0.00    -0.126 OA
ATOM     21  O   UNL     1      -1.466   6.178   0.090  0.00  0.00    -0.126 OA
ENDBRANCH  18  19
BRANCH  13  22
ATOM     22  S   UNL     1      -2.772   4.002   0.051  0.00  0.00    -0.049 S 
BRANCH  22  28
ATOM     23  C   UNL     1      -5.177   5.440   1.742  0.00  0.00    +0.151 C 
ATOM     24  N   UNL     1      -3.932   5.002   2.378  0.00  0.00    -0.328 N 
ATOM     25  C   UNL     1      -3.608   5.121   3.711  0.00  0.00    +0.107 A 
ATOM     26  C   UNL     1      -2.378   4.600   3.863  0.00  0.00    +0.131 A 
ATOM     27  N   UNL     1      -1.952   4.165   2.666  0.00  0.00    -0.230 NA
ATOM     28  C   UNL     1      -2.878   4.398   1.765  0.00  0.00    +0.173 A 
ENDBRANCH  22  28
ENDBRANCH  13  22
ENDBRANCH   1  16
BRANCH  11  29
ATOM     29  C   UNL     1       2.797  -0.530  -0.378  0.00  0.00    +0.184 C 
BRANCH  29  30
ATOM     30  C   UNL     1       4.125  -0.990  -0.922  0.00  0.00    +0.122 A 
ATOM     31  C   UNL     1       4.969  -1.844  -0.317  0.00  0.00    +0.046 A 
ATOM     32  C   UNL     1       6.083  -1.996  -1.175  0.00  0.00    +0.041 A 
ATOM     33  C   UNL     1       5.856  -1.218  -2.249  0.00  0.00    +0.195 A 
ATOM     34  O   UNL     1       4.669  -0.611  -2.090  0.00  0.00    -0.466 OA
ENDBRANCH  29  30
ENDBRANCH  11  29
TORSDOF 6
