REMARK  Name = ZINC02270890
REMARK  7 active torsions:
REMARK  status: ('A' for Active; 'I' for Inactive)
REMARK    1  A    between atoms: C_1  and  O_2
REMARK    2  A    between atoms: O_2  and  C_3
REMARK    3  A    between atoms: N_15  and  N_18
REMARK    4  A    between atoms: C_19  and  C_20
REMARK    5  A    between atoms: C_24  and  C_27
REMARK    6  A    between atoms: C_25  and  O_26
REMARK    7  A    between atoms: C_27  and  C_28
REMARK                            x       y       z     vdW  Elec       q    Type
REMARK                         _______ _______ _______ _____ _____    ______ ____
ROOT
ATOM      1  C   UNL     1      -1.202  -0.638   0.006  0.00  0.00    +0.121 A 
ATOM      2  C   UNL     1      -2.378   0.107   0.007  0.00  0.00    +0.047 A 
ATOM      3  C   UNL     1      -3.603  -0.521   0.012  0.00  0.00    +0.030 A 
ATOM      4  C   UNL     1      -3.676  -1.911   0.015  0.00  0.00    +0.049 A 
ATOM      5  C   UNL     1      -2.489  -2.664   0.013  0.00  0.00    +0.029 A 
ATOM      6  C   UNL     1      -1.252  -2.017   0.003  0.00  0.00    +0.057 A 
ATOM      7  C   UNL     1      -2.892  -4.077   0.018  0.00  0.00    +0.103 A 
ATOM      8  C   UNL     1      -4.285  -4.092   0.023  0.00  0.00    +0.133 A 
ATOM      9  N   UNL     1      -4.743  -2.788   0.021  0.00  0.00    -0.349 N 
ATOM     10  H   UNL     1      -5.677  -2.526   0.024  0.00  0.00    +0.166 HD
ATOM     11  C   UNL     1      -4.942  -5.343   0.029  0.00  0.00    +0.298 A 
ATOM     12  O   UNL     1      -6.161  -5.408   0.033  0.00  0.00    -0.263 OA
ATOM     13  N   UNL     1      -4.190  -6.465   0.029  0.00  0.00    -0.184 N 
ATOM     14  C   UNL     1      -2.834  -6.383   0.025  0.00  0.00    +0.227 A 
ATOM     15  N   UNL     1      -2.213  -5.238   0.019  0.00  0.00    -0.233 NA
ENDROOT
BRANCH   1  17
ATOM     16  C   UNL     1      -0.018   1.425   0.005  0.00  0.00    +0.277 C 
ATOM     17  O   UNL     1       0.002  -0.004   0.001  0.00  0.00    -0.495 OA
ENDBRANCH   1  17
BRANCH  13  18
ATOM     18  N   UNL     1      -4.813  -7.720   0.035  0.00  0.00    -0.170 NA
ATOM     19  C   UNL     1      -4.098  -8.800  -0.069  0.00  0.00    +0.145 C 
BRANCH  19  20
ATOM     20  C   UNL     1      -4.758 -10.112  -0.174  0.00  0.00    +0.036 A 
ATOM     21  C   UNL     1      -3.993 -11.277  -0.280  0.00  0.00    +0.013 A 
ATOM     22  C   UNL     1      -4.617 -12.502  -0.379  0.00  0.00    +0.001 A 
ATOM     23  C   UNL     1      -5.999 -12.584  -0.373  0.00  0.00    +0.007 A 
ATOM     24  C   UNL     1      -6.767 -11.440  -0.269  0.00  0.00    -0.002 A 
ATOM     25  C   UNL     1      -6.157 -10.201  -0.162  0.00  0.00    +0.129 A 
BRANCH  25  26
ATOM     26  O   UNL     1      -6.910  -9.077  -0.054  0.00  0.00    -0.506 OA
ATOM     27  H   UNL     1      -7.141  -8.674  -0.902  0.00  0.00    +0.292 HD
ENDBRANCH  25  26
BRANCH  24  28
ATOM     28  C   UNL     1      -8.271 -11.541  -0.265  0.00  0.00    +0.065 C 
BRANCH  28  29
ATOM     29  C   UNL     1      -8.792 -11.332  -1.663  0.00  0.00    -0.030 C 
ATOM     30  C   UNL     1      -9.567 -12.232  -2.215  0.00  0.00    +0.004 C 
ENDBRANCH  28  29
ENDBRANCH  24  28
ENDBRANCH  19  20
ENDBRANCH  13  18
TORSDOF 6
