REMARK  Name = ZINC19499567
REMARK  9 active torsions:
REMARK  status: ('A' for Active; 'I' for Inactive)
REMARK    1  A    between atoms: C_1  and  C_2
REMARK    2  A    between atoms: C_2  and  C_3
REMARK    3  A    between atoms: C_3  and  C_4
REMARK    4  A    between atoms: C_3  and  C_5
REMARK    5  A    between atoms: C_3  and  N_6
REMARK    6  A    between atoms: C_7  and  C_11
REMARK    7  A    between atoms: C_11  and  C_13
REMARK    8  A    between atoms: C_11  and  N_26
REMARK    9  A    between atoms: C_17  and  C_25
REMARK                            x       y       z     vdW  Elec       q    Type
REMARK                         _______ _______ _______ _____ _____    ______ ____
ROOT
ATOM      1  C   UNL     1      -3.994  -2.433  -0.247  0.00  0.00    +0.039 C 
ENDROOT
BRANCH   1   2
ATOM      2  C   UNL     1      -4.428  -2.818  -1.638  0.00  0.00    +0.011 A 
ATOM      3  C   UNL     1      -4.727  -1.853  -2.543  0.00  0.00    +0.017 A 
ATOM      4  C   UNL     1      -5.145  -2.260  -3.886  0.00  0.00    -0.001 A 
ATOM      5  C   UNL     1      -5.465  -1.311  -4.863  0.00  0.00    +0.013 A 
ATOM      6  C   UNL     1      -5.851  -1.723  -6.106  0.00  0.00    -0.050 A 
ATOM      7  C   UNL     1      -5.929  -3.076  -6.410  0.00  0.00    +0.005 A 
ATOM      8  C   UNL     1      -5.619  -4.028  -5.464  0.00  0.00    +0.026 A 
ATOM      9  C   UNL     1      -5.222  -3.632  -4.190  0.00  0.00    +0.049 A 
ATOM     10  N   UNL     1      -4.905  -4.563  -3.225  0.00  0.00    -0.322 N 
ATOM     11  H   UNL     1      -4.959  -5.509  -3.436  0.00  0.00    +0.169 HD
ATOM     12  C   UNL     1      -4.517  -4.180  -1.996  0.00  0.00    +0.251 A 
ATOM     13  O   UNL     1      -4.239  -5.031  -1.168  0.00  0.00    -0.268 OA
ATOM     14  C   UNL     1      -6.196  -0.701  -7.158  0.00  0.00    +0.044 C 
ENDBRANCH   1   2
BRANCH   1  15
ATOM     15  N   UNL     1      -4.861  -3.096   0.737  0.00  0.00    +0.389 N 
ATOM     16  C   UNL     1      -6.260  -2.661   0.541  0.00  0.00    -0.077 C 
ATOM     17  C   UNL     1      -6.855  -2.584   1.969  0.00  0.00    -0.020 C 
ATOM     18  C   UNL     1      -5.648  -2.047   2.782  0.00  0.00    -0.020 C 
ATOM     19  C   UNL     1      -4.440  -2.723   2.100  0.00  0.00    -0.077 C 
ATOM     20  H   UNL     1      -4.800  -4.097   0.625  0.00  0.00    -0.080 HD
ENDBRANCH   1  15
BRANCH   1  22
ATOM     21  N   UNL     1      -1.493  -2.060   0.079  0.00  0.00    -0.225 N 
ATOM     22  C   UNL     1      -2.567  -2.864  -0.029  0.00  0.00    +0.143 A 
ATOM     23  N   UNL     1      -2.130  -4.093   0.092  0.00  0.00    -0.115 NA
ATOM     24  N   UNL     1      -0.854  -4.047   0.266  0.00  0.00    -0.023 NA
ATOM     25  N   UNL     1      -0.465  -2.820   0.253  0.00  0.00    -0.043 NA
BRANCH  21  26
ATOM     26  C   UNL     1      -1.490  -0.596   0.007  0.00  0.00    +0.061 C 
ATOM     27  C   UNL     1      -2.320  -0.028   1.159  0.00  0.00    +0.036 C 
ATOM     28  C   UNL     1      -2.096  -0.151  -1.326  0.00  0.00    +0.036 C 
BRANCH  26  30
ATOM     29  C   UNL     1      -0.051   1.445   0.036  0.00  0.00    +0.006 C 
ATOM     30  C   UNL     1      -0.053  -0.083   0.111  0.00  0.00    +0.026 C 
ENDBRANCH  26  30
ENDBRANCH  21  26
ENDBRANCH   1  22
TORSDOF 5
