REMARK  Name = ZINC31044719
REMARK  9 active torsions:
REMARK  status: ('A' for Active; 'I' for Inactive)
REMARK    1  A    between atoms: C_5  and  C_7
REMARK    2  A    between atoms: C_7  and  S_8
REMARK    3  A    between atoms: S_8  and  C_9
REMARK    4  A    between atoms: C_9  and  C_10
REMARK    5  A    between atoms: C_10  and  N_11
REMARK    6  A    between atoms: C_12  and  C_14
REMARK    7  A    between atoms: N_19  and  C_21
REMARK    8  A    between atoms: C_21  and  C_22
REMARK    9  A    between atoms: C_24  and  C_27
REMARK                            x       y       z     vdW  Elec       q    Type
REMARK                         _______ _______ _______ _____ _____    ______ ____
ROOT
ATOM      1  C   UNL     1      -3.014  -2.361   0.018  0.00  0.00    +0.058 C 
ATOM      2  C   UNL     1      -3.731  -1.869   1.279  0.00  0.00    +0.009 C 
ATOM      3  C   UNL     1      -5.146  -2.453   1.312  0.00  0.00    -0.018 C 
ATOM      4  C   UNL     1      -5.065  -3.981   1.268  0.00  0.00    -0.078 C 
ATOM      5  N   UNL     1      -4.372  -4.400   0.043  0.00  0.00    +0.386 N 
ATOM      6  C   UNL     1      -2.994  -3.891   0.012  0.00  0.00    -0.065 C 
ATOM      7  H   UNL     1      -4.910  -3.965  -0.812  0.00  0.00    -0.081 HD
ENDROOT
BRANCH   1   9
ATOM      8  N   UNL     1      -1.372  -0.511   0.012  0.00  0.00    -0.314 N 
ATOM      9  C   UNL     1      -1.601  -1.839   0.007  0.00  0.00    +0.214 C 
ATOM     10  O   UNL     1      -0.668  -2.615  -0.006  0.00  0.00    -0.276 OA
ATOM     11  H   UNL     1      -2.218   0.192   0.024  0.00  0.00    +0.149 HD
BRANCH   8  12
ATOM     12  C   UNL     1       0.002  -0.004   0.002  0.00  0.00    +0.115 C 
BRANCH  12  13
ATOM     13  C   UNL     1      -0.019   1.526   0.010  0.00  0.00    +0.088 C 
BRANCH  13  14
ATOM     14  S   UNL     1       1.683   2.154  -0.002  0.00  0.00    -0.154 S 
BRANCH  14  15
ATOM     15  C   UNL     1       1.486   3.957   0.009  0.00  0.00    +0.105 C 
BRANCH  15  20
ATOM     16  C   UNL     1       4.722   5.506   1.184  0.00  0.00    +0.000 A 
ATOM     17  C   UNL     1       5.334   5.812  -0.017  0.00  0.00    +0.001 A 
ATOM     18  C   UNL     1       4.702   5.519  -1.210  0.00  0.00    +0.020 A 
ATOM     19  C   UNL     1       3.455   4.918  -1.202  0.00  0.00    +0.045 A 
ATOM     20  C   UNL     1       2.843   4.611  -0.000  0.00  0.00    -0.019 A 
ATOM     21  C   UNL     1       3.475   4.910   1.192  0.00  0.00    +0.006 A 
ATOM     22 CL   UNL     1       2.659   4.549  -2.701  0.00  0.00    -0.083 Cl
ENDBRANCH  15  20
ENDBRANCH  14  15
ENDBRANCH  13  14
ENDBRANCH  12  13
ENDBRANCH   8  12
ENDBRANCH   1   9
BRANCH   5  23
ATOM     23  C   UNL     1      -4.396  -5.862  -0.101  0.00  0.00    +0.022 C 
BRANCH  23  24
ATOM     24  C   UNL     1      -5.816  -6.322  -0.311  0.00  0.00    +0.211 A 
ATOM     25  N   UNL     1      -6.428  -6.458  -1.460  0.00  0.00    -0.193 NA
ATOM     26  C   UNL     1      -7.673  -6.891  -1.160  0.00  0.00    +0.202 A 
ATOM     27  N   UNL     1      -7.744  -6.991   0.142  0.00  0.00    -0.056 NA
ATOM     28  O   UNL     1      -6.685  -6.673   0.642  0.00  0.00    -0.340 OA
BRANCH  26  29
ATOM     29  C   UNL     1      -8.757  -7.195  -2.127  0.00  0.00    +0.023 A 
ATOM     30  C   UNL     1      -8.540  -7.036  -3.494  0.00  0.00    +0.013 A 
ATOM     31  C   UNL     1      -9.549  -7.327  -4.389  0.00  0.00    +0.021 A 
ATOM     32  C   UNL     1     -10.780  -7.763  -3.930  0.00  0.00    +0.041 A 
ATOM     33  C   UNL     1     -11.003  -7.917  -2.572  0.00  0.00    +0.021 A 
ATOM     34  C   UNL     1      -9.998  -7.635  -1.670  0.00  0.00    +0.013 A 
ATOM     35 CL   UNL     1     -12.048  -8.120  -5.061  0.00  0.00    -0.084 Cl
ENDBRANCH  26  29
ENDBRANCH  23  24
ENDBRANCH   5  23
TORSDOF 9
