REMARK  Name = ZINC39693539
REMARK  10 active torsions:
REMARK  status: ('A' for Active; 'I' for Inactive)
REMARK    1  A    between atoms: C_1  and  C_2
REMARK    2  A    between atoms: C_2  and  C_3
REMARK    3  A    between atoms: C_2  and  C_4
REMARK    4  A    between atoms: C_2  and  O_5
REMARK    5  A    between atoms: O_5  and  C_6
REMARK    6  A    between atoms: N_8  and  C_9
REMARK    7  A    between atoms: C_9  and  C_10
REMARK    8  A    between atoms: C_10  and  N_11
REMARK    9  A    between atoms: C_12  and  C_14
REMARK   10  A    between atoms: C_25  and  C_27
REMARK                            x       y       z     vdW  Elec       q    Type
REMARK                         _______ _______ _______ _____ _____    ______ ____
ROOT
ATOM      1  C   UNL     1       8.104  -0.210  -5.347  0.00  0.00    +0.100 C 
ATOM      2  C   UNL     1       8.960  -0.675  -4.148  0.00  0.00    +0.121 C 
ATOM      3  N   UNL     1       9.542  -1.967  -4.581  0.00  0.00    -0.296 N 
ATOM      4  C   UNL     1       9.882  -1.758  -6.009  0.00  0.00    +0.115 C 
ATOM      5  C   UNL     1       8.714  -0.920  -6.567  0.00  0.00    -0.004 C 
ATOM      6  C   UNL     1       9.232   0.106  -7.571  0.00  0.00    -0.010 C 
ATOM      7  C   UNL     1       9.781  -0.622  -8.801  0.00  0.00    -0.082 C 
ATOM      8  N   UNL     1       8.719  -1.435  -9.405  0.00  0.00    +0.379 N 
ATOM      9  C   UNL     1       8.291  -2.479  -8.466  0.00  0.00    -0.082 C 
ATOM     10  C   UNL     1       7.679  -1.829  -7.222  0.00  0.00    -0.010 C 
ATOM     11  C   UNL     1       9.721  -3.081  -3.844  0.00  0.00    +0.248 C 
ATOM     12  O   UNL     1       9.299  -3.131  -2.704  0.00  0.00    -0.270 OA
ATOM     13  H   UNL     1       7.933  -0.845  -9.631  0.00  0.00    -0.086 HD
ATOM     14  H   UNL     1       9.066  -1.865 -10.249  0.00  0.00    -0.086 HD
ENDROOT
BRANCH  11  15
ATOM     15  C   UNL     1      10.425  -4.235  -4.418  0.00  0.00    +0.052 A 
ATOM     16  C   UNL     1      11.456  -4.066  -5.285  0.00  0.00    +0.059 A 
ATOM     17  S   UNL     1      11.960  -5.615  -5.685  0.00  0.00    -0.096 S 
ATOM     18  C   UNL     1      10.826  -6.574  -4.719  0.00  0.00    +0.020 A 
ATOM     19  C   UNL     1      10.040  -5.605  -4.067  0.00  0.00    +0.001 A 
ATOM     20  C   UNL     1       9.030  -6.068  -3.203  0.00  0.00    +0.010 A 
ATOM     21  C   UNL     1       8.840  -7.415  -3.016  0.00  0.00    +0.001 A 
ATOM     22  C   UNL     1       9.631  -8.350  -3.667  0.00  0.00    +0.001 A 
ATOM     23  C   UNL     1      10.623  -7.924  -4.529  0.00  0.00    +0.015 A 
ENDBRANCH  11  15
BRANCH   1  25
ATOM     24  N   UNL     1       5.675   0.119  -5.679  0.00  0.00    -0.314 N 
ATOM     25  C   UNL     1       6.668  -0.629  -5.160  0.00  0.00    +0.218 C 
ATOM     26  O   UNL     1       6.407  -1.640  -4.543  0.00  0.00    -0.275 OA
ATOM     27  H   UNL     1       5.884   0.928  -6.173  0.00  0.00    +0.149 HD
BRANCH  24  28
ATOM     28  C   UNL     1       4.279  -0.288  -5.497  0.00  0.00    +0.123 C 
BRANCH  28  29
ATOM     29  C   UNL     1       3.359   0.727  -6.179  0.00  0.00    +0.126 C 
BRANCH  29  32
ATOM     30  C   UNL     1       0.970   1.068  -6.516  0.00  0.00    +0.401 C 
ATOM     31  O   UNL     1       1.232   2.081  -7.134  0.00  0.00    -0.226 OA
ATOM     32  N   UNL     1       1.964   0.320  -5.997  0.00  0.00    -0.280 N 
ATOM     33  H   UNL     1       1.755  -0.489  -5.504  0.00  0.00    +0.152 HD
BRANCH  30  34
ATOM     34  O   UNL     1      -0.312   0.694  -6.349  0.00  0.00    -0.445 OA
BRANCH  34  36
ATOM     35  C   UNL     1      -1.103   1.615  -8.439  0.00  0.00    +0.055 C 
ATOM     36  C   UNL     1      -1.314   1.535  -6.926  0.00  0.00    +0.107 C 
ATOM     37  C   UNL     1      -1.213   2.937  -6.321  0.00  0.00    +0.055 C 
ATOM     38  C   UNL     1      -2.698   0.952  -6.634  0.00  0.00    +0.055 C 
ENDBRANCH  34  36
ENDBRANCH  30  34
ENDBRANCH  29  32
ENDBRANCH  28  29
ENDBRANCH  24  28
ENDBRANCH   1  25
TORSDOF 7
