REMARK  Name = ZINC38686119
REMARK  16 active torsions:
REMARK  status: ('A' for Active; 'I' for Inactive)
REMARK    1  A    between atoms: C_1  and  C_2
REMARK    2  A    between atoms: C_2  and  C_3
REMARK    3  A    between atoms: C_3  and  C_4
REMARK    4  A    between atoms: C_4  and  C_5
REMARK    5  A    between atoms: C_5  and  O_6
REMARK    6  A    between atoms: O_6  and  C_7
REMARK    7  A    between atoms: C_12  and  C_13
REMARK    8  A    between atoms: C_18  and  O_27
REMARK    9  A    between atoms: C_22  and  N_26
REMARK   10  A    between atoms: C_23  and  C_24
REMARK   11  A    between atoms: O_27  and  C_28
REMARK   12  A    between atoms: C_28  and  C_30
REMARK   13  A    between atoms: C_33  and  O_36
REMARK   14  A    between atoms: O_36  and  C_37
REMARK   15  A    between atoms: C_37  and  C_38
REMARK   16  A    between atoms: C_37  and  C_39
REMARK                            x       y       z     vdW  Elec       q    Type
REMARK                         _______ _______ _______ _____ _____    ______ ____
ROOT
ATOM      1  C   UNL     1       1.687  -7.021   2.401  0.00  0.00    +0.101 C 
ATOM      2  C   UNL     1       0.604  -7.880   2.998  0.00  0.00    +0.008 A 
ATOM      3  C   UNL     1      -0.589  -7.297   3.388  0.00  0.00    +0.012 A 
ATOM      4  C   UNL     1      -1.593  -8.069   3.937  0.00  0.00    +0.047 A 
ATOM      5  C   UNL     1      -1.408  -9.435   4.099  0.00  0.00    +0.135 A 
ATOM      6  C   UNL     1      -0.215 -10.021   3.710  0.00  0.00    +0.093 A 
ATOM      7  C   UNL     1       0.795  -9.243   3.159  0.00  0.00    +0.138 A 
ATOM      8  O   UNL     1       1.957  -9.832   2.783  0.00  0.00    -0.441 OA
ATOM      9  C   UNL     1       2.774  -9.210   1.916  0.00  0.00    +0.199 C 
ATOM     10  C   UNL     1       2.696  -7.880   1.692  0.00  0.00    +0.098 C 
ENDROOT
BRANCH   1  16
ATOM     11  C   UNL     1       2.363  -4.861   3.481  0.00  0.00    +0.125 A 
ATOM     12  C   UNL     1       2.991  -4.152   4.495  0.00  0.00    +0.046 A 
ATOM     13  C   UNL     1       3.628  -4.829   5.517  0.00  0.00    +0.004 A 
ATOM     14  C   UNL     1       3.641  -6.212   5.529  0.00  0.00    +0.001 A 
ATOM     15  C   UNL     1       3.017  -6.920   4.520  0.00  0.00    +0.008 A 
ATOM     16  C   UNL     1       2.373  -6.248   3.498  0.00  0.00    +0.007 A 
BRANCH  11  17
ATOM     17  O   UNL     1       1.736  -4.197   2.475  0.00  0.00    -0.492 OA
BRANCH  17  18
ATOM     18  C   UNL     1       1.766  -2.769   2.522  0.00  0.00    +0.229 C 
BRANCH  18  19
ATOM     19  C   UNL     1       1.013  -2.204   1.316  0.00  0.00    +0.041 C 
BRANCH  19  20
ATOM     20  C   UNL     1       1.046  -0.675   1.366  0.00  0.00    +0.003 C 
BRANCH  20  22
ATOM     21  C   UNL     1       0.325   1.420   0.210  0.00  0.00    +0.004 C 
ATOM     22  C   UNL     1       0.293  -0.109   0.160  0.00  0.00    -0.003 C 
ENDBRANCH  20  22
ENDBRANCH  19  20
ENDBRANCH  18  19
ENDBRANCH  17  18
ENDBRANCH  11  17
ENDBRANCH   1  16
BRANCH   9  23
ATOM     23  N   UNL     1       3.714  -9.947   1.241  0.00  0.00    -0.328 N 
ATOM     24  H   UNL     1       3.781 -10.903   1.392  0.00  0.00    +0.145 HD
ATOM     25  H   UNL     1       4.311  -9.512   0.612  0.00  0.00    +0.145 HD
ENDBRANCH   9  23
BRANCH  10  26
ATOM     26  C   UNL     1       3.597  -7.277   0.757  0.00  0.00    +0.101 C 
ATOM     27  N   UNL     1       4.312  -6.799   0.015  0.00  0.00    -0.191 NA
ENDBRANCH  10  26
BRANCH   5  28
ATOM     28  O   UNL     1      -2.396 -10.197   4.640  0.00  0.00    -0.422 OA
BRANCH  28  29
ATOM     29  C   UNL     1      -3.544 -10.328   3.947  0.00  0.00    +0.344 C 
ATOM     30  O   UNL     1      -3.639  -9.853   2.833  0.00  0.00    -0.245 OA
BRANCH  29  31
ATOM     31  C   UNL     1      -4.686 -11.048   4.541  0.00  0.00    +0.060 A 
ATOM     32  C   UNL     1      -4.580 -11.591   5.825  0.00  0.00    +0.018 A 
ATOM     33  C   UNL     1      -5.649 -12.262   6.376  0.00  0.00    +0.046 A 
ATOM     34  C   UNL     1      -6.830 -12.401   5.657  0.00  0.00    +0.121 A 
ATOM     35  C   UNL     1      -6.939 -11.864   4.380  0.00  0.00    +0.046 A 
ATOM     36  C   UNL     1      -5.878 -11.186   3.824  0.00  0.00    +0.018 A 
BRANCH  34  37
ATOM     37  O   UNL     1      -7.881 -13.064   6.204  0.00  0.00    -0.489 OA
BRANCH  37  38
ATOM     38  C   UNL     1      -7.752 -13.471   7.568  0.00  0.00    +0.167 C 
ATOM     39  C   UNL     1      -9.119 -13.403   8.252  0.00  0.00    +0.051 C 
ATOM     40  C   UNL     1      -7.225 -14.906   7.624  0.00  0.00    +0.051 C 
ENDBRANCH  37  38
ENDBRANCH  34  37
ENDBRANCH  29  31
ENDBRANCH  28  29
ENDBRANCH   5  28
TORSDOF 13
