REMARK  Name = ZINC34922824
REMARK  11 active torsions:
REMARK  status: ('A' for Active; 'I' for Inactive)
REMARK    1  A    between atoms: C_1  and  C_2
REMARK    2  A    between atoms: C_2  and  O_3
REMARK    3  A    between atoms: O_3  and  C_4
REMARK    4  A    between atoms: C_4  and  C_6
REMARK    5  A    between atoms: C_7  and  C_38
REMARK    6  A    between atoms: C_11  and  C_13
REMARK    7  A    between atoms: C_17  and  O_19
REMARK    8  A    between atoms: O_19  and  C_20
REMARK    9  A    between atoms: C_21  and  C_24
REMARK   10  A    between atoms: C_25  and  N_27
REMARK   11  A    between atoms: N_30  and  C_33
REMARK                            x       y       z     vdW  Elec       q    Type
REMARK                         _______ _______ _______ _____ _____    ______ ____
ROOT
ATOM      1  C   UNL     1      -2.900  -2.082  -0.424  0.00  0.00    +0.082 C 
ATOM      2  C   UNL     1      -3.133  -3.411  -0.722  0.00  0.00    +0.053 C 
ATOM      3  N   UNL     1      -4.335  -3.936  -0.551  0.00  0.00    -0.230 NA
ATOM      4  C   UNL     1      -5.385  -3.279  -0.101  0.00  0.00    +0.166 C 
ATOM      5  N   UNL     1      -5.365  -1.958   0.250  0.00  0.00    -0.267 N 
ATOM      6  C   UNL     1      -4.058  -1.264   0.104  0.00  0.00    +0.150 C 
ATOM      7  C   UNL     1      -6.549  -1.412   0.706  0.00  0.00    +0.048 C 
ATOM      8  C   UNL     1      -7.629  -2.222   0.768  0.00  0.00    +0.072 C 
ATOM      9  S   UNL     1      -6.966  -3.767   0.178  0.00  0.00    -0.060 S 
ATOM     10  C   UNL     1      -2.010  -4.269  -1.245  0.00  0.00    +0.066 C 
ENDROOT
BRANCH   6  11
ATOM     11  C   UNL     1      -4.260  -0.094  -0.824  0.00  0.00    -0.019 A 
ATOM     12  C   UNL     1      -4.823  -0.291  -2.072  0.00  0.00    +0.006 A 
ATOM     13  C   UNL     1      -5.010   0.780  -2.926  0.00  0.00    +0.004 A 
ATOM     14  C   UNL     1      -4.634   2.051  -2.534  0.00  0.00    +0.045 A 
ATOM     15  C   UNL     1      -4.070   2.251  -1.283  0.00  0.00    +0.120 A 
ATOM     16  C   UNL     1      -3.889   1.175  -0.426  0.00  0.00    +0.051 A 
BRANCH  15  17
ATOM     17  O   UNL     1      -3.700   3.500  -0.895  0.00  0.00    -0.495 OA
ATOM     18  C   UNL     1      -3.921   4.561  -1.827  0.00  0.00    +0.277 C 
ENDBRANCH  15  17
ENDBRANCH   6  11
BRANCH   7  19
ATOM     19  C   UNL     1      -6.631  -0.001   1.108  0.00  0.00    +0.091 C 
ATOM     20  C   UNL     1      -7.823   0.540   1.427  0.00  0.00    +0.241 C 
ATOM     21  O   UNL     1      -8.928  -0.243   1.487  0.00  0.00    -0.271 OA
BRANCH  20  22
ATOM     22  N   UNL     1      -7.919   1.895   1.695  0.00  0.00    -0.302 N 
ATOM     23  C   UNL     1      -7.029   2.861   1.032  0.00  0.00    +0.089 C 
ATOM     24  C   UNL     1      -7.887   3.984   0.440  0.00  0.00    -0.059 C 
ATOM     25  N   UNL     1      -8.732   4.561   1.493  0.00  0.00    +0.384 N 
ATOM     26  C   UNL     1      -9.682   3.553   1.980  0.00  0.00    -0.059 C 
ATOM     27  C   UNL     1      -8.917   2.410   2.645  0.00  0.00    +0.089 C 
ATOM     28  H   UNL     1      -8.151   4.870   2.257  0.00  0.00    -0.081 HD
BRANCH  25  29
ATOM     29  C   UNL     1      -9.473   5.708   0.950  0.00  0.00    -0.068 C 
ATOM     30  C   UNL     1      -8.490   6.811   0.509  0.00  0.00    -0.015 C 
ATOM     31  C   UNL     1      -9.208   8.132   0.882  0.00  0.00    -0.002 C 
ATOM     32  C   UNL     1      -9.891   7.781   2.228  0.00  0.00    -0.002 C 
ATOM     33  C   UNL     1     -10.364   6.324   2.043  0.00  0.00    -0.015 C 
ENDBRANCH  25  29
ENDBRANCH  20  22
ENDBRANCH   7  19
BRANCH   1  34
ATOM     34  C   UNL     1      -1.633  -1.513  -0.600  0.00  0.00    +0.339 C 
ATOM     35  O   UNL     1      -0.684  -2.218  -0.895  0.00  0.00    -0.245 OA
BRANCH  34  36
ATOM     36  O   UNL     1      -1.463  -0.181  -0.442  0.00  0.00    -0.462 OA
BRANCH  36  38
ATOM     37  C   UNL     1      -0.147   1.846  -0.418  0.00  0.00    +0.048 C 
ATOM     38  C   UNL     1      -0.143   0.331  -0.637  0.00  0.00    +0.229 C 
ENDBRANCH  36  38
ENDBRANCH  34  36
ENDBRANCH   1  34
TORSDOF 8
