REMARK  Name = ZINC08777161
REMARK  8 active torsions:
REMARK  status: ('A' for Active; 'I' for Inactive)
REMARK    1  A    between atoms: C_1  and  C_2
REMARK    2  A    between atoms: C_2  and  O_3
REMARK    3  A    between atoms: O_3  and  C_4
REMARK    4  A    between atoms: C_4  and  C_6
REMARK    5  A    between atoms: C_7  and  C_21
REMARK    6  A    between atoms: C_10  and  N_11
REMARK    7  A    between atoms: C_12  and  C_14
REMARK    8  A    between atoms: C_14  and  N_48
REMARK                            x       y       z     vdW  Elec       q    Type
REMARK                         _______ _______ _______ _____ _____    ______ ____
ROOT
ATOM      1  C   UNL     1      -0.325   1.664   7.318  0.00  0.00    +0.095 A 
ATOM      2  C   UNL     1      -0.900   2.551   8.312  0.00  0.00    +0.006 A 
ATOM      3  C   UNL     1      -1.701   3.545   7.851  0.00  0.00    +0.056 A 
ATOM      4  S   UNL     1      -1.684   3.302   6.088  0.00  0.00    -0.080 S 
ATOM      5  C   UNL     1      -0.650   1.917   5.992  0.00  0.00    +0.086 A 
ENDROOT
BRANCH   2   6
ATOM      6  C   UNL     1      -0.625   2.381   9.758  0.00  0.00    +0.002 A 
ATOM      7  C   UNL     1      -1.658   2.049  10.633  0.00  0.00    +0.010 A 
ATOM      8  C   UNL     1      -1.396   1.887  11.978  0.00  0.00    +0.001 A 
ATOM      9  C   UNL     1      -0.112   2.064  12.461  0.00  0.00    +0.001 A 
ATOM     10  C   UNL     1       0.918   2.398  11.600  0.00  0.00    +0.020 A 
ATOM     11  C   UNL     1       0.668   2.558  10.251  0.00  0.00    +0.049 A 
ATOM     12 CL   UNL     1       1.961   2.979   9.171  0.00  0.00    -0.083 Cl
ENDBRANCH   2   6
BRANCH   5  13
ATOM     13  N   UNL     1      -0.239   1.228   4.862  0.00  0.00    -0.281 N 
ATOM     14  C   UNL     1      -0.661   1.622   3.643  0.00  0.00    +0.201 C 
ATOM     15  O   UNL     1      -1.399   2.578   3.536  0.00  0.00    -0.278 OA
ATOM     16  H   UNL     1       0.351   0.463   4.947  0.00  0.00    +0.155 HD
BRANCH  14  17
ATOM     17  C   UNL     1      -0.215   0.873   2.414  0.00  0.00    +0.020 C 
BRANCH  17  25
ATOM     18  C   UNL     1      -2.361   1.108   1.314  0.00  0.00    -0.059 C 
ATOM     19  C   UNL     1      -3.088   1.926   0.245  0.00  0.00    +0.085 C 
ATOM     20  N   UNL     1      -2.438   1.748  -1.050  0.00  0.00    -0.319 N 
ATOM     21  C   UNL     1      -1.193   1.277  -1.179  0.00  0.00    +0.196 C 
ATOM     22  O   UNL     1      -0.717   1.190  -2.291  0.00  0.00    -0.278 OA
ATOM     23  C   UNL     1      -0.358   0.852  -0.004  0.00  0.00    +0.019 C 
ATOM     24  H   UNL     1      -2.930   1.982  -1.852  0.00  0.00    +0.149 HD
ATOM     25  N   UNL     1      -0.921   1.423   1.234  0.00  0.00    +0.392 N 
ATOM     26  H   UNL     1      -0.801   2.442   1.218  0.00  0.00    -0.080 HD
ENDBRANCH  17  25
ENDBRANCH  14  17
ENDBRANCH   5  13
BRANCH   1  27
ATOM     27  C   UNL     1       0.554   0.557   7.695  0.00  0.00    +0.342 C 
ATOM     28  O   UNL     1       1.756   0.732   7.768  0.00  0.00    -0.245 OA
BRANCH  27  29
ATOM     29  O   UNL     1       0.032  -0.658   7.961  0.00  0.00    -0.461 OA
BRANCH  29  31
ATOM     30  C   UNL     1       0.193  -3.005   8.591  0.00  0.00    +0.048 C 
ATOM     31  C   UNL     1       0.964  -1.710   8.329  0.00  0.00    +0.229 C 
ENDBRANCH  29  31
ENDBRANCH  27  29
ENDBRANCH   1  27
TORSDOF 7
