REMARK  Name = ZINC65024088
REMARK  6 active torsions:
REMARK  status: ('A' for Active; 'I' for Inactive)
REMARK    1  A    between atoms: C_1  and  N_2
REMARK    2  A    between atoms: C_3  and  N_11
REMARK    3  A    between atoms: N_7  and  C_10
REMARK    4  A    between atoms: C_15  and  C_18
REMARK    5  A    between atoms: N_23  and  C_26
REMARK    6  A    between atoms: C_26  and  C_27
REMARK                            x       y       z     vdW  Elec       q    Type
REMARK                         _______ _______ _______ _____ _____    ______ ____
ROOT
ATOM      1  C   UNL     1      -5.617  -0.495   0.693  0.00  0.00    +0.220 C 
ATOM      2  O   UNL     1      -5.863  -1.351  -0.129  0.00  0.00    -0.275 OA
ATOM      3  N   UNL     1      -6.605   0.004   1.463  0.00  0.00    -0.299 N 
ATOM      4  C   UNL     1      -6.312   0.962   2.541  0.00  0.00    +0.123 C 
ATOM      5  C   UNL     1      -6.969   0.458   3.830  0.00  0.00    +0.103 C 
ATOM      6  N   UNL     1      -8.397   0.216   3.586  0.00  0.00    -0.295 NA
ATOM      7  C   UNL     1      -8.595  -0.844   2.588  0.00  0.00    +0.103 C 
ATOM      8  C   UNL     1      -8.005  -0.389   1.243  0.00  0.00    +0.123 C 
ENDROOT
BRANCH   1  13
ATOM      9  N   UNL     1      -2.034  -0.479   1.851  0.00  0.00    -0.316 N 
ATOM     10  C   UNL     1      -1.296  -0.342   0.587  0.00  0.00    +0.106 C 
ATOM     11  C   UNL     1      -2.090   0.574  -0.350  0.00  0.00    +0.020 C 
ATOM     12  C   UNL     1      -3.511   0.028  -0.508  0.00  0.00    +0.016 C 
ATOM     13  C   UNL     1      -4.207   0.012   0.855  0.00  0.00    +0.092 C 
ATOM     14  C   UNL     1      -3.436  -0.916   1.806  0.00  0.00    +0.119 C 
BRANCH   9  17
ATOM     15  C   UNL     1      -0.539  -2.500   3.071  0.00  0.00    +0.155 C 
ATOM     16  N   UNL     1      -0.679  -1.176   3.680  0.00  0.00    -0.285 N 
ATOM     17  C   UNL     1      -1.423  -0.209   3.049  0.00  0.00    +0.110 A 
ATOM     18  C   UNL     1      -1.550   1.024   3.625  0.00  0.00    +0.112 A 
ATOM     19  C   UNL     1      -0.913   1.272   4.851  0.00  0.00    +0.258 A 
ATOM     20  O   UNL     1      -1.012   2.365   5.383  0.00  0.00    -0.267 OA
ATOM     21  N   UNL     1      -0.193   0.295   5.437  0.00  0.00    -0.264 N 
ATOM     22  C   UNL     1      -0.084  -0.914   4.859  0.00  0.00    +0.333 A 
ATOM     23  O   UNL     1       0.566  -1.784   5.406  0.00  0.00    -0.246 OA
ATOM     24  C   UNL     1       0.472   0.551   6.716  0.00  0.00    +0.157 C 
ENDBRANCH   9  17
ENDBRANCH   1  13
BRANCH   6  25
ATOM     25  C   UNL     1      -9.098  -0.102   4.837  0.00  0.00    +0.119 C 
BRANCH  25  26
ATOM     26  C   UNL     1     -10.585  -0.102   4.594  0.00  0.00    -0.030 A 
ATOM     27  C   UNL     1     -11.309   1.065   4.748  0.00  0.00    +0.009 A 
ATOM     28  C   UNL     1     -12.674   1.070   4.525  0.00  0.00    +0.050 A 
ATOM     29  C   UNL     1     -13.319  -0.096   4.147  0.00  0.00    +0.166 A 
ATOM     30  C   UNL     1     -12.589  -1.272   3.991  0.00  0.00    +0.167 A 
ATOM     31  C   UNL     1     -11.221  -1.268   4.211  0.00  0.00    +0.054 A 
ATOM     32  O   UNL     1     -13.443  -2.270   3.618  0.00  0.00    -0.453 OA
ATOM     33  C   UNL     1     -14.761  -1.789   3.943  0.00  0.00    +0.466 C 
ATOM     34  O   UNL     1     -14.630  -0.357   3.871  0.00  0.00    -0.453 OA
ENDBRANCH  25  26
ENDBRANCH   6  25
TORSDOF 4
