REMARK  Name = ZINC38917526
REMARK  9 active torsions:
REMARK  status: ('A' for Active; 'I' for Inactive)
REMARK    1  A    between atoms: C_1  and  O_2
REMARK    2  A    between atoms: O_2  and  C_3
REMARK    3  A    between atoms: C_5  and  C_13
REMARK    4  A    between atoms: C_7  and  O_11
REMARK    5  A    between atoms: C_8  and  O_9
REMARK    6  A    between atoms: O_9  and  C_10
REMARK    7  A    between atoms: O_11  and  C_12
REMARK    8  A    between atoms: N_14  and  N_15
REMARK    9  A    between atoms: C_16  and  C_22
REMARK                            x       y       z     vdW  Elec       q    Type
REMARK                         _______ _______ _______ _____ _____    ______ ____
ROOT
ATOM      1  C   UNL     1       2.282   0.304   4.313  0.00  0.00    +0.138 C 
ATOM      2  N   UNL     1       3.050  -0.281   5.182  0.00  0.00    -0.183 NA
ENDROOT
BRANCH   2   3
ATOM      3  N   UNL     1       3.723   0.480   6.147  0.00  0.00    -0.172 N 
ATOM      4  C   UNL     1       4.540  -0.009   7.274  0.00  0.00    +0.264 C 
ATOM      5  N   UNL     1       4.991   1.222   7.941  0.00  0.00    -0.189 NA
ATOM      6  N   UNL     1       4.528   2.185   7.324  0.00  0.00    -0.219 N 
ATOM      7  C   UNL     1       3.774   1.826   6.250  0.00  0.00    +0.174 C 
ATOM      8  S   UNL     1       2.998   2.921   5.187  0.00  0.00    -0.015 S 
ATOM      9  H   UNL     1       4.689   3.107   7.577  0.00  0.00    +0.176 HD
BRANCH   4  10
ATOM     10  C   UNL     1       3.705  -0.846   8.208  0.00  0.00    +0.001 A 
ATOM     11  C   UNL     1       2.630  -1.582   7.734  0.00  0.00    +0.025 A 
ATOM     12  C   UNL     1       1.888  -2.338   8.621  0.00  0.00    +0.083 A 
ATOM     13  N   UNL     1       2.191  -2.364   9.904  0.00  0.00    -0.367 N 
ATOM     14  C   UNL     1       3.206  -1.676  10.390  0.00  0.00    +0.083 A 
ATOM     15  C   UNL     1       3.997  -0.903   9.562  0.00  0.00    +0.025 A 
ATOM     16  H   UNL     1       1.653  -2.902  10.505  0.00  0.00    +0.165 HD
ENDBRANCH   4  10
ENDBRANCH   2   3
BRANCH   1  19
ATOM     17  C   UNL     1       0.248  -0.595   1.286  0.00  0.00    +0.166 A 
ATOM     18  C   UNL     1       0.832   0.146   2.298  0.00  0.00    +0.059 A 
ATOM     19  C   UNL     1       1.658  -0.482   3.234  0.00  0.00    +0.002 A 
ATOM     20  C   UNL     1       1.891  -1.857   3.145  0.00  0.00    +0.059 A 
ATOM     21  C   UNL     1       1.304  -2.592   2.131  0.00  0.00    +0.166 A 
ATOM     22  C   UNL     1       0.478  -1.965   1.203  0.00  0.00    +0.204 A 
BRANCH  17  24
ATOM     23  C   UNL     1      -0.749   1.424   0.520  0.00  0.00    +0.277 C 
ATOM     24  O   UNL     1      -0.556   0.016   0.375  0.00  0.00    -0.491 OA
ENDBRANCH  17  24
BRANCH  22  25
ATOM     25  O   UNL     1      -0.103  -2.691   0.210  0.00  0.00    -0.488 OA
ATOM     26  C   UNL     1       0.629  -2.823  -1.010  0.00  0.00    +0.277 C 
ENDBRANCH  22  25
BRANCH  21  27
ATOM     27  O   UNL     1       1.531  -3.930   2.043  0.00  0.00    -0.491 OA
ATOM     28  C   UNL     1       2.385  -4.510   3.031  0.00  0.00    +0.277 C 
ENDBRANCH  21  27
ENDBRANCH   1  19
TORSDOF 6
