REMARK  Name = ZINC37425808
REMARK  10 active torsions:
REMARK  status: ('A' for Active; 'I' for Inactive)
REMARK    1  A    between atoms: C_1  and  C_2
REMARK    2  A    between atoms: C_2  and  C_3
REMARK    3  A    between atoms: C_2  and  C_4
REMARK    4  A    between atoms: C_2  and  N_5
REMARK    5  A    between atoms: C_8  and  C_10
REMARK    6  A    between atoms: C_16  and  C_33
REMARK    7  A    between atoms: N_22  and  C_23
REMARK    8  A    between atoms: C_23  and  C_24
REMARK    9  A    between atoms: N_26  and  C_27
REMARK   10  A    between atoms: C_27  and  C_28
REMARK                            x       y       z     vdW  Elec       q    Type
REMARK                         _______ _______ _______ _____ _____    ______ ____
ROOT
ATOM      1  N   UNL     1       2.320   0.522  -0.627  0.00  0.00    -0.244 N 
ATOM      2  C   UNL     1       3.075  -0.581  -0.835  0.00  0.00    +0.132 A 
ATOM      3  C   UNL     1       4.186  -0.214  -1.510  0.00  0.00    +0.037 A 
ATOM      4  C   UNL     1       4.115   1.171  -1.735  0.00  0.00    +0.099 A 
ATOM      5  N   UNL     1       2.989   1.610  -1.208  0.00  0.00    -0.169 NA
ATOM      6  C   UNL     1       5.290  -1.151  -1.927  0.00  0.00    +0.113 C 
ATOM      7  S   UNL     1       4.694  -2.169  -3.324  0.00  0.00    -0.138 S 
ATOM      8  C   UNL     1       2.983  -2.543  -2.813  0.00  0.00    +0.166 C 
ATOM      9  C   UNL     1       2.927  -2.874  -1.352  0.00  0.00    +0.231 C 
ATOM     10  O   UNL     1       2.997  -4.030  -0.992  0.00  0.00    -0.274 OA
ATOM     11  N   UNL     1       2.800  -1.901  -0.445  0.00  0.00    -0.246 N 
ENDROOT
BRANCH   4  12
ATOM     12  C   UNL     1       5.125   1.994  -2.447  0.00  0.00    +0.002 A 
ATOM     13  C   UNL     1       5.435   1.722  -3.778  0.00  0.00    +0.010 A 
ATOM     14  C   UNL     1       6.375   2.491  -4.435  0.00  0.00    +0.001 A 
ATOM     15  C   UNL     1       7.008   3.528  -3.775  0.00  0.00    +0.000 A 
ATOM     16  C   UNL     1       6.704   3.802  -2.454  0.00  0.00    +0.001 A 
ATOM     17  C   UNL     1       5.762   3.043  -1.788  0.00  0.00    +0.010 A 
ENDBRANCH   4  12
BRANCH   6  18
ATOM     18  C   UNL     1       6.496  -0.354  -2.355  0.00  0.00    -0.023 A 
ATOM     19  C   UNL     1       7.022  -0.505  -3.624  0.00  0.00    +0.012 A 
ATOM     20  C   UNL     1       8.107   0.227  -3.977  0.00  0.00    +0.045 A 
ATOM     21  S   UNL     1       8.417   1.168  -2.492  0.00  0.00    -0.105 S 
ATOM     22  C   UNL     1       7.077   0.526  -1.503  0.00  0.00    +0.050 A 
ENDBRANCH   6  18
BRANCH   1  24
ATOM     23  C   UNL     1       0.420   1.963  -0.083  0.00  0.00    +0.036 C 
ATOM     24  C   UNL     1       1.034   0.570   0.073  0.00  0.00    +0.057 C 
ATOM     25  C   UNL     1       1.249   0.270   1.558  0.00  0.00    +0.036 C 
ATOM     26  C   UNL     1       0.088  -0.474  -0.526  0.00  0.00    +0.036 C 
ENDBRANCH   1  24
BRANCH  11  27
ATOM     27  C   UNL     1       2.383  -2.205   0.926  0.00  0.00    +0.210 C 
BRANCH  27  28
ATOM     28  C   UNL     1       1.000  -2.803   0.910  0.00  0.00    +0.231 C 
ATOM     29  O   UNL     1       0.464  -3.063  -0.147  0.00  0.00    -0.274 OA
ATOM     30  N   UNL     1       0.357  -3.047   2.069  0.00  0.00    -0.307 N 
ATOM     31  H   UNL     1       0.785  -2.839   2.914  0.00  0.00    +0.149 HD
BRANCH  30  32
ATOM     32  C   UNL     1      -0.988  -3.628   2.053  0.00  0.00    +0.178 C 
BRANCH  32  33
ATOM     33  C   UNL     1      -1.478  -3.800   3.468  0.00  0.00    +0.122 A 
ATOM     34  C   UNL     1      -2.170  -2.891   4.177  0.00  0.00    +0.046 A 
ATOM     35  C   UNL     1      -2.421  -3.464   5.444  0.00  0.00    +0.041 A 
ATOM     36  C   UNL     1      -1.867  -4.690   5.434  0.00  0.00    +0.195 A 
ATOM     37  O   UNL     1      -1.302  -4.890   4.233  0.00  0.00    -0.466 OA
ENDBRANCH  32  33
ENDBRANCH  30  32
ENDBRANCH  27  28
ENDBRANCH  11  27
TORSDOF 7
