REMARK  Name = ZINC03658979
REMARK  9 active torsions:
REMARK  status: ('A' for Active; 'I' for Inactive)
REMARK    1  A    between atoms: C_1  and  C_2
REMARK    2  A    between atoms: C_3  and  C_12
REMARK    3  A    between atoms: C_4  and  O_11
REMARK    4  A    between atoms: C_5  and  C_10
REMARK    5  A    between atoms: C_6  and  O_9
REMARK    6  A    between atoms: N_13  and  N_14
REMARK    7  A    between atoms: C_15  and  C_17
REMARK    8  A    between atoms: C_17  and  N_18
REMARK    9  A    between atoms: C_19  and  C_21
REMARK                            x       y       z     vdW  Elec       q    Type
REMARK                         _______ _______ _______ _____ _____    ______ ____
ROOT
ATOM      1  N   UNL     1       3.671   1.218  -0.026  0.00  0.00    -0.206 N 
ATOM      2  C   UNL     1       2.406   0.752  -0.017  0.00  0.00    +0.249 C 
ATOM      3  O   UNL     1       2.201  -0.444  -0.021  0.00  0.00    -0.272 OA
ATOM      4  H   UNL     1       3.857   2.303  -0.022  0.00  0.00    +0.177 HD
ENDROOT
BRANCH   1   6
ATOM      5  C   UNL     1       5.966   0.772  -0.051  0.00  0.00    +0.142 C 
ATOM      6  N   UNL     1       4.748   0.323  -0.042  0.00  0.00    -0.188 NA
BRANCH   5   9
ATOM      7  C   UNL     1       8.669   1.795  -0.084  0.00  0.00    +0.046 C 
ATOM      8  C   UNL     1       8.410   0.311  -0.082  0.00  0.00    -0.021 A 
ATOM      9  C   UNL     1       7.098  -0.170  -0.067  0.00  0.00    +0.040 A 
ATOM     10  C   UNL     1       6.864  -1.552  -0.072  0.00  0.00    +0.132 A 
ATOM     11  C   UNL     1       7.933  -2.431  -0.087  0.00  0.00    +0.034 A 
ATOM     12  C   UNL     1       9.232  -1.944  -0.096  0.00  0.00    +0.137 A 
ATOM     13  C   UNL     1       9.467  -0.574  -0.090  0.00  0.00    +0.063 A 
ATOM     14 BR   UNL     1      11.242   0.078  -0.103  0.00  0.00    -0.046 Br
ATOM     15  C   UNL     1       7.686  -3.917  -0.092  0.00  0.00    +0.051 C 
BRANCH  12  16
ATOM     16  O   UNL     1      10.278  -2.811  -0.110  0.00  0.00    -0.505 OA
ATOM     17  H   UNL     1      11.309  -2.427  -0.117  0.00  0.00    +0.292 HD
ENDBRANCH  12  16
BRANCH  10  18
ATOM     18  O   UNL     1       5.591  -2.027  -0.062  0.00  0.00    -0.506 OA
ATOM     19  H   UNL     1       5.410  -3.112  -0.066  0.00  0.00    +0.292 HD
ENDBRANCH  10  18
ENDBRANCH   5   9
ENDBRANCH   1   6
BRANCH   2  20
ATOM     20  C   UNL     1       1.248   1.716  -0.001  0.00  0.00    +0.202 C 
BRANCH  20  21
ATOM     21  N   UNL     1      -0.011   0.966   0.007  0.00  0.00    -0.303 N 
ATOM     22  C   UNL     1      -1.187   1.624   0.017  0.00  0.00    +0.246 C 
ATOM     23  O   UNL     1      -1.204   2.839   0.023  0.00  0.00    -0.270 OA
ATOM     24  H   UNL     1       0.004  -0.134   0.006  0.00  0.00    +0.150 HD
BRANCH  22  25
ATOM     25  C   UNL     1      -2.457   0.868   0.018  0.00  0.00    +0.051 A 
ATOM     26  C   UNL     1      -2.442  -0.528   0.005  0.00  0.00    +0.014 A 
ATOM     27  C   UNL     1      -3.630  -1.228   0.011  0.00  0.00    +0.001 A 
ATOM     28  C   UNL     1      -4.837  -0.550   0.021  0.00  0.00    +0.001 A 
ATOM     29  C   UNL     1      -4.860   0.833   0.029  0.00  0.00    +0.016 A 
ATOM     30  C   UNL     1      -3.678   1.546   0.028  0.00  0.00    +0.030 A 
ATOM     31 BR   UNL     1      -3.711   3.437   0.038  0.00  0.00    -0.050 Br
ENDBRANCH  22  25
ENDBRANCH  20  21
ENDBRANCH   2  20
TORSDOF 7
