REMARK  Name = ZINC37356972
REMARK  3 active torsions:
REMARK  status: ('A' for Active; 'I' for Inactive)
REMARK    1  A    between atoms: C_1  and  C_2
REMARK    2  A    between atoms: C_7  and  C_9
REMARK    3  A    between atoms: C_7  and  N_11
REMARK                            x       y       z     vdW  Elec       q    Type
REMARK                         _______ _______ _______ _____ _____    ______ ____
ROOT
ATOM      1  C   UNL     1      -0.019   1.526   0.010  0.00  0.00    +0.007 C 
ATOM      2  C   UNL     1       0.002  -0.004   0.002  0.00  0.00    -0.011 C 
ATOM      3  C   UNL     1       0.606  -0.499  -1.314  0.00  0.00    +0.003 C 
ATOM      4  C   UNL     1       2.035   0.032  -1.450  0.00  0.00    +0.003 C 
ATOM      5  C   UNL     1       2.880  -0.473  -0.279  0.00  0.00    +0.037 C 
ATOM      6  C   UNL     1       2.276   0.021   1.036  0.00  0.00    +0.109 C 
ATOM      7  C   UNL     1       0.848  -0.509   1.173  0.00  0.00    +0.041 C 
ENDROOT
BRANCH   6   8
ATOM      8  N   UNL     1       3.088  -0.464   2.161  0.00  0.00    -0.285 NA
ATOM      9  C   UNL     1       2.482  -0.092   3.446  0.00  0.00    +0.086 C 
ATOM     10  C   UNL     1       3.272  -0.735   4.588  0.00  0.00    +0.015 C 
ATOM     11  C   UNL     1       4.726  -0.257   4.530  0.00  0.00    +0.002 C 
ATOM     12  C   UNL     1       5.318  -0.613   3.164  0.00  0.00    +0.015 C 
ATOM     13  C   UNL     1       4.469   0.026   2.063  0.00  0.00    +0.086 C 
ENDBRANCH   6   8
BRANCH   6  14
ATOM     14  C   UNL     1       2.256   1.493   1.044  0.00  0.00    +0.085 C 
ATOM     15  N   UNL     1       2.241   2.629   1.051  0.00  0.00    -0.195 NA
ENDBRANCH   6  14
TORSDOF 2
