REMARK  Name = ZINC32100748
REMARK  5 active torsions:
REMARK  status: ('A' for Active; 'I' for Inactive)
REMARK    1  A    between atoms: C_1  and  C_2
REMARK    2  A    between atoms: C_10  and  O_24
REMARK    3  A    between atoms: N_16  and  C_17
REMARK    4  A    between atoms: N_27  and  C_28
REMARK    5  A    between atoms: C_28  and  C_29
REMARK                            x       y       z     vdW  Elec       q    Type
REMARK                         _______ _______ _______ _____ _____    ______ ____
ROOT
ATOM      1  C   UNL     1      -0.018   1.503   0.010  0.00  0.00    +0.044 C 
ATOM      2  C   UNL     1       0.002  -0.004   0.002  0.00  0.00    -0.050 A 
ATOM      3  C   UNL     1       0.005  -0.673  -1.205  0.00  0.00    +0.005 A 
ATOM      4  C   UNL     1       0.023  -2.057  -1.277  0.00  0.00    +0.024 A 
ATOM      5  C   UNL     1       0.038  -2.759  -0.071  0.00  0.00    +0.041 A 
ATOM      6  C   UNL     1       0.035  -2.068   1.148  0.00  0.00    -0.006 A 
ATOM      7  C   UNL     1       0.023  -0.691   1.211  0.00  0.00    +0.010 A 
ATOM      8  C   UNL     1       0.054  -3.111   2.218  0.00  0.00    +0.112 C 
ATOM      9  C   UNL     1       1.300  -2.989   3.092  0.00  0.00    +0.121 C 
ATOM     10  C   UNL     1       1.127  -1.941   4.154  0.00  0.00    +0.191 C 
ATOM     11  N   UNL     1      -0.014  -1.662   4.709  0.00  0.00    -0.197 NA
ATOM     12  C   UNL     1      -1.140  -2.307   4.289  0.00  0.00    +0.164 A 
ATOM     13  C   UNL     1      -1.163  -3.020   3.095  0.00  0.00    +0.036 A 
ATOM     14  C   UNL     1      -2.429  -3.553   2.945  0.00  0.00    +0.142 A 
ATOM     15  N   UNL     1      -3.160  -3.188   3.974  0.00  0.00    -0.173 NA
ATOM     16  N   UNL     1      -2.377  -2.397   4.829  0.00  0.00    -0.214 N 
ATOM     17  C   UNL     1       0.066  -4.424   1.467  0.00  0.00    +0.236 C 
ATOM     18  O   UNL     1       0.082  -5.534   1.955  0.00  0.00    -0.274 OA
ATOM     19  N   UNL     1       0.058  -4.125   0.151  0.00  0.00    -0.266 N 
ENDROOT
BRANCH  16  20
ATOM     20  C   UNL     1      -2.800  -1.806   6.027  0.00  0.00    +0.069 A 
ATOM     21  C   UNL     1      -1.918  -1.689   7.094  0.00  0.00    +0.028 A 
ATOM     22  C   UNL     1      -2.338  -1.107   8.274  0.00  0.00    +0.003 A 
ATOM     23  C   UNL     1      -3.634  -0.641   8.395  0.00  0.00    +0.020 A 
ATOM     24  C   UNL     1      -4.515  -0.756   7.334  0.00  0.00    +0.043 A 
ATOM     25  C   UNL     1      -4.099  -1.332   6.148  0.00  0.00    +0.047 A 
ATOM     26 CL   UNL     1      -6.142  -0.171   7.490  0.00  0.00    -0.083 Cl
ENDBRANCH  16  20
BRANCH  10  27
ATOM     27  O   UNL     1       2.215  -1.251   4.553  0.00  0.00    -0.495 OA
ATOM     28  H   UNL     1       2.034  -0.593   5.238  0.00  0.00    +0.293 HD
ENDBRANCH  10  27
BRANCH  19  29
ATOM     29  C   UNL     1       0.067  -5.128  -0.917  0.00  0.00    +0.140 C 
BRANCH  29  30
ATOM     30  C   UNL     1       1.491  -5.453  -1.288  0.00  0.00    -0.015 C 
ATOM     31  C   UNL     1       1.908  -6.694  -1.260  0.00  0.00    +0.005 C 
ENDBRANCH  29  30
ENDBRANCH  19  29
TORSDOF 4
