REMARK  Name = ZINC64541541
REMARK  8 active torsions:
REMARK  status: ('A' for Active; 'I' for Inactive)
REMARK    1  A    between atoms: C_1  and  C_2
REMARK    2  A    between atoms: C_2  and  C_3
REMARK    3  A    between atoms: C_2  and  N_4
REMARK    4  A    between atoms: C_8  and  S_14
REMARK    5  A    between atoms: S_14  and  N_17
REMARK    6  A    between atoms: C_23  and  C_25
REMARK    7  A    between atoms: C_25  and  C_26
REMARK    8  A    between atoms: C_26  and  C_27
REMARK                            x       y       z     vdW  Elec       q    Type
REMARK                         _______ _______ _______ _____ _____    ______ ____
ROOT
ATOM      1  N   UNL     1      -4.523  -5.454  -2.971  0.00  0.00    -0.174 NA
ATOM      2  C   UNL     1      -3.505  -6.324  -3.575  0.00  0.00    +0.128 C 
ATOM      3  C   UNL     1      -2.605  -6.874  -2.461  0.00  0.00    +0.125 C 
ATOM      4  N   UNL     1      -3.457  -7.416  -1.394  0.00  0.00    -0.299 N 
ATOM      5  C   UNL     1      -4.475  -6.546  -0.789  0.00  0.00    +0.125 C 
ATOM      6  C   UNL     1      -5.371  -5.995  -1.900  0.00  0.00    +0.128 C 
ATOM      7  C   UNL     1      -3.308  -8.690  -0.978  0.00  0.00    +0.216 C 
ATOM      8  O   UNL     1      -2.464  -9.398  -1.485  0.00  0.00    -0.276 OA
ENDROOT
BRANCH   1   9
ATOM      9  S   UNL     1      -4.706  -3.890  -3.482  0.00  0.00    +0.061 S 
ATOM     10  O   UNL     1      -6.036  -3.509  -3.156  0.00  0.00    -0.153 OA
ATOM     11  O   UNL     1      -4.202  -3.835  -4.810  0.00  0.00    -0.153 OA
BRANCH   9  16
ATOM     12  N   UNL     1      -1.372  -0.511   0.012  0.00  0.00    -0.272 N 
ATOM     13  C   UNL     1      -1.959  -1.323  -0.958  0.00  0.00    +0.091 A 
ATOM     14  C   UNL     1      -1.498  -1.875  -2.143  0.00  0.00    +0.031 A 
ATOM     15  C   UNL     1      -2.340  -2.658  -2.909  0.00  0.00    +0.031 A 
ATOM     16  C   UNL     1      -3.640  -2.891  -2.497  0.00  0.00    +0.109 A 
ATOM     17  C   UNL     1      -4.106  -2.345  -1.317  0.00  0.00    +0.077 A 
ATOM     18  C   UNL     1      -3.269  -1.558  -0.541  0.00  0.00    +0.159 A 
ATOM     19  O   UNL     1      -3.442  -0.904   0.633  0.00  0.00    -0.407 OA
ATOM     20  C   UNL     1      -2.299  -0.283   0.964  0.00  0.00    +0.421 A 
ATOM     21  O   UNL     1      -2.127   0.386   1.965  0.00  0.00    -0.223 OA
BRANCH  12  23
ATOM     22  C   UNL     1      -0.019   1.526   0.010  0.00  0.00    +0.031 C 
ATOM     23  C   UNL     1       0.002  -0.004   0.002  0.00  0.00    +0.088 C 
ATOM     24  C   UNL     1       0.742  -0.511   1.242  0.00  0.00    +0.031 C 
ENDBRANCH  12  23
ENDBRANCH   9  16
ENDBRANCH   1   9
BRANCH   7  25
ATOM     25  C   UNL     1      -4.189  -9.232   0.118  0.00  0.00    +0.100 C 
BRANCH  25  26
ATOM     26  C   UNL     1      -3.816 -10.689   0.398  0.00  0.00    +0.042 C 
BRANCH  26  27
ATOM     27  C   UNL     1      -4.697 -11.232   1.493  0.00  0.00    -0.041 C 
ATOM     28  C   UNL     1      -5.841 -11.938   1.341  0.00  0.00    -0.001 A 
ATOM     29  C   UNL     1      -6.580 -12.392   0.157  0.00  0.00    +0.010 A 
ATOM     30  C   UNL     1      -7.722 -13.096   0.327  0.00  0.00    +0.001 A 
ATOM     31  C   UNL     1      -8.218 -13.401   1.602  0.00  0.00    +0.002 A 
ATOM     32  C   UNL     1      -7.595 -13.018   2.737  0.00  0.00    +0.026 A 
ATOM     33  C   UNL     1      -6.385 -12.273   2.677  0.00  0.00    +0.043 A 
ATOM     34  N   UNL     1      -5.607 -11.793   3.617  0.00  0.00    -0.380 N 
ATOM     35  C   UNL     1      -4.478 -11.104   2.984  0.00  0.00    +0.144 C 
ATOM     36  H   UNL     1      -5.753 -11.883   4.572  0.00  0.00    +0.160 HD
ENDBRANCH  26  27
ENDBRANCH  25  26
ENDBRANCH   7  25
TORSDOF 6
