REMARK  Name = ZINC12038953
REMARK  11 active torsions:
REMARK  status: ('A' for Active; 'I' for Inactive)
REMARK    1  A    between atoms: C_1  and  C_2
REMARK    2  A    between atoms: C_2  and  O_3
REMARK    3  A    between atoms: O_3  and  C_4
REMARK    4  A    between atoms: C_4  and  C_6
REMARK    5  A    between atoms: C_12  and  C_13
REMARK    6  A    between atoms: C_12  and  N_75
REMARK    7  A    between atoms: C_17  and  O_19
REMARK    8  A    between atoms: O_19  and  C_20
REMARK    9  A    between atoms: C_26  and  C_28
REMARK   10  A    between atoms: C_32  and  C_38
REMARK   11  A    between atoms: C_34  and  C_37
REMARK                            x       y       z     vdW  Elec       q    Type
REMARK                         _______ _______ _______ _____ _____    ______ ____
ROOT
ATOM      1  O   UNL     1      -8.523   1.831  11.708  0.00  0.00    -0.489 OA
ENDROOT
BRANCH   1   2
ATOM      2  C   UNL     1      -9.259   2.416  10.631  0.00  0.00    +0.176 C 
ATOM      3  C   UNL     1     -10.424   1.498  10.252  0.00  0.00    +0.063 C 
ATOM      4  C   UNL     1     -11.231   2.143   9.122  0.00  0.00    +0.112 C 
ATOM      5  N   UNL     1     -10.322   2.455   8.010  0.00  0.00    -0.296 N 
ATOM      6  C   UNL     1      -9.118   3.252   8.284  0.00  0.00    +0.112 C 
ATOM      7  C   UNL     1      -8.338   2.599   9.423  0.00  0.00    +0.063 C 
ATOM      8  C   UNL     1     -10.585   2.014   6.764  0.00  0.00    +0.267 C 
ATOM      9  O   UNL     1      -9.778   2.196   5.873  0.00  0.00    -0.268 OA
BRANCH   8  10
ATOM     10  C   UNL     1     -11.854   1.310   6.481  0.00  0.00    +0.150 A 
ATOM     11  C   UNL     1     -12.194   0.695   5.272  0.00  0.00    +0.083 A 
ATOM     12  C   UNL     1     -13.460   0.152   5.419  0.00  0.00    +0.157 A 
ATOM     13  N   UNL     1     -14.249  -0.540   4.584  0.00  0.00    -0.233 NA
ATOM     14  C   UNL     1     -15.435  -0.950   4.965  0.00  0.00    +0.042 A 
ATOM     15  C   UNL     1     -15.895  -0.679   6.263  0.00  0.00    +0.046 A 
ATOM     16  C   UNL     1     -15.106   0.015   7.118  0.00  0.00    +0.044 A 
ATOM     17  N   UNL     1     -13.876   0.436   6.696  0.00  0.00    -0.218 N 
ATOM     18  N   UNL     1     -12.857   1.155   7.330  0.00  0.00    -0.160 NA
ATOM     19  C   UNL     1     -15.578   0.318   8.516  0.00  0.00    +0.066 C 
ATOM     20  C   UNL     1     -16.306  -1.721   4.006  0.00  0.00    +0.066 C 
ENDBRANCH   8  10
ENDBRANCH   1   2
BRANCH   1  25
ATOM     21  C   UNL     1      -6.387   3.044  14.391  0.00  0.00    -0.060 A 
ATOM     22  C   UNL     1      -6.336   4.393  14.089  0.00  0.00    +0.002 A 
ATOM     23  C   UNL     1      -7.017   4.884  12.991  0.00  0.00    +0.004 A 
ATOM     24  C   UNL     1      -7.746   4.027  12.189  0.00  0.00    +0.045 A 
ATOM     25  C   UNL     1      -7.803   2.675  12.492  0.00  0.00    +0.121 A 
ATOM     26  C   UNL     1      -7.118   2.185  13.595  0.00  0.00    +0.047 A 
BRANCH  21  27
ATOM     27  C   UNL     1      -5.643   2.512  15.589  0.00  0.00    -0.042 C 
BRANCH  27  33
ATOM     28  C   UNL     1      -3.455   1.825  16.362  0.00  0.00    +0.043 C 
ATOM     29  C   UNL     1      -2.014   1.564  15.917  0.00  0.00    -0.004 C 
ATOM     30  C   UNL     1      -1.992   0.384  14.942  0.00  0.00    -0.003 C 
ATOM     31  C   UNL     1      -2.902   0.698  13.752  0.00  0.00    -0.019 C 
ATOM     32  C   UNL     1      -4.317   0.984  14.260  0.00  0.00    -0.077 C 
ATOM     33  N   UNL     1      -4.274   2.145  15.174  0.00  0.00    +0.391 N 
ATOM     34  H   UNL     1      -3.850   2.940  14.682  0.00  0.00    -0.080 HD
BRANCH  28  35
ATOM     35  C   UNL     1      -3.484   2.999  17.307  0.00  0.00    +0.293 C 
ATOM     36  O   UNL     1      -3.565   4.123  16.871  0.00  0.00    -0.253 OA
BRANCH  35  37
ATOM     37  O   UNL     1      -3.419   2.796  18.632  0.00  0.00    -0.466 OA
BRANCH  37  39
ATOM     38  C   UNL     1      -3.370   3.545  20.949  0.00  0.00    +0.048 C 
ATOM     39  C   UNL     1      -3.452   3.973  19.482  0.00  0.00    +0.228 C 
ENDBRANCH  37  39
ENDBRANCH  35  37
ENDBRANCH  28  35
ENDBRANCH  27  33
ENDBRANCH  21  27
ENDBRANCH   1  25
TORSDOF 8
