REMARK  Name = ZINC03085956
REMARK  10 active torsions:
REMARK  status: ('A' for Active; 'I' for Inactive)
REMARK    1  A    between atoms: C_1  and  O_2
REMARK    2  A    between atoms: O_2  and  C_3
REMARK    3  A    between atoms: C_5  and  C_10
REMARK    4  A    between atoms: C_8  and  O_9
REMARK    5  A    between atoms: N_11  and  N_12
REMARK    6  A    between atoms: C_13  and  C_15
REMARK    7  A    between atoms: C_15  and  N_16
REMARK    8  A    between atoms: N_16  and  C_17
REMARK    9  A    between atoms: N_16  and  S_25
REMARK   10  A    between atoms: S_25  and  C_28
REMARK                            x       y       z     vdW  Elec       q    Type
REMARK                         _______ _______ _______ _____ _____    ______ ____
ROOT
ATOM      1  N   UNL     1       4.345  -1.062  -1.629  0.00  0.00    -0.193 N 
ENDROOT
BRANCH   1   2
ATOM      2  C   UNL     1       5.110  -0.103  -2.299  0.00  0.00    +0.071 A 
ATOM      3  C   UNL     1       4.486   0.876  -3.061  0.00  0.00    +0.026 A 
ATOM      4  C   UNL     1       5.243   1.823  -3.722  0.00  0.00    +0.003 A 
ATOM      5  C   UNL     1       6.623   1.797  -3.627  0.00  0.00    +0.021 A 
ATOM      6  C   UNL     1       7.249   0.823  -2.869  0.00  0.00    +0.061 A 
ATOM      7  C   UNL     1       6.496  -0.124  -2.200  0.00  0.00    +0.082 A 
ATOM      8 CL   UNL     1       7.281  -1.342  -1.244  0.00  0.00    -0.080 Cl
ATOM      9 CL   UNL     1       8.981   0.795  -2.753  0.00  0.00    -0.082 Cl
ENDBRANCH   1   2
BRANCH   1  10
ATOM     10  S   UNL     1       3.934  -0.832  -0.042  0.00  0.00    +0.075 S 
ATOM     11  O   UNL     1       4.902   0.054   0.504  0.00  0.00    -0.150 OA
ATOM     12  O   UNL     1       3.686  -2.120   0.505  0.00  0.00    -0.150 OA
BRANCH  10  13
ATOM     13  C   UNL     1       2.396   0.029  -0.022  0.00  0.00    +0.109 A 
ATOM     14  C   UNL     1       1.208  -0.679  -0.014  0.00  0.00    +0.029 A 
ATOM     15  C   UNL     1       0.002  -0.004   0.002  0.00  0.00    +0.002 A 
ATOM     16  C   UNL     1      -0.017   1.378   0.010  0.00  0.00    +0.000 A 
ATOM     17  C   UNL     1       1.171   2.086   0.002  0.00  0.00    +0.002 A 
ATOM     18  C   UNL     1       2.377   1.411  -0.014  0.00  0.00    +0.029 A 
ENDBRANCH  10  13
ENDBRANCH   1  10
BRANCH   1  19
ATOM     19  C   UNL     1       3.908  -2.271  -2.331  0.00  0.00    +0.229 C 
BRANCH  19  21
ATOM     20  N   UNL     1       2.040  -2.957  -3.800  0.00  0.00    -0.206 N 
ATOM     21  C   UNL     1       2.631  -1.985  -3.078  0.00  0.00    +0.251 C 
ATOM     22  O   UNL     1       2.134  -0.879  -3.028  0.00  0.00    -0.272 OA
ATOM     23  H   UNL     1       2.436  -3.841  -3.840  0.00  0.00    +0.177 HD
BRANCH  20  25
ATOM     24  C   UNL     1       0.283  -3.626  -5.190  0.00  0.00    +0.138 C 
ATOM     25  N   UNL     1       0.852  -2.690  -4.494  0.00  0.00    -0.188 NA
BRANCH  24  28
ATOM     26  C   UNL     1      -2.752  -4.084  -7.353  0.00  0.00    +0.162 A 
ATOM     27  C   UNL     1      -1.580  -4.352  -6.670  0.00  0.00    +0.058 A 
ATOM     28  C   UNL     1      -0.966  -3.346  -5.921  0.00  0.00    -0.002 A 
ATOM     29  C   UNL     1      -1.542  -2.074  -5.860  0.00  0.00    +0.013 A 
ATOM     30  C   UNL     1      -2.708  -1.812  -6.549  0.00  0.00    +0.050 A 
ATOM     31  C   UNL     1      -3.317  -2.812  -7.293  0.00  0.00    +0.158 A 
BRANCH  26  33
ATOM     32  C   UNL     1      -2.717  -6.341  -8.101  0.00  0.00    +0.277 C 
ATOM     33  O   UNL     1      -3.352  -5.061  -8.084  0.00  0.00    -0.491 OA
ENDBRANCH  26  33
BRANCH  31  34
ATOM     34  O   UNL     1      -4.469  -2.550  -7.966  0.00  0.00    -0.503 OA
ATOM     35  H   UNL     1      -5.271  -2.716  -7.452  0.00  0.00    +0.292 HD
ENDBRANCH  31  34
ENDBRANCH  24  28
ENDBRANCH  20  25
ENDBRANCH  19  21
ENDBRANCH   1  19
TORSDOF 9
