REMARK  Name = ZINC38884719
REMARK  4 active torsions:
REMARK  status: ('A' for Active; 'I' for Inactive)
REMARK    1  A    between atoms: C_11  and  N_18
REMARK    2  A    between atoms: C_19  and  C_21
REMARK    3  A    between atoms: N_26  and  S_28
REMARK    4  A    between atoms: S_28  and  C_31
REMARK                            x       y       z     vdW  Elec       q    Type
REMARK                         _______ _______ _______ _____ _____    ______ ____
ROOT
ATOM      1  N   UNL     1       5.444  -3.764   0.137  0.00  0.00    -0.270 N 
ATOM      2  C   UNL     1       5.429  -2.430   0.332  0.00  0.00    +0.223 C 
ATOM      3  O   UNL     1       4.375  -1.855   0.505  0.00  0.00    -0.275 OA
ATOM      4  H   UNL     1       6.289  -4.230   0.039  0.00  0.00    +0.156 HD
ENDROOT
BRANCH   1  15
ATOM      5  C   UNL     1       6.976  -9.734  -3.992  0.00  0.00    +0.002 A 
ATOM      6  C   UNL     1       8.136  -8.973  -4.031  0.00  0.00    +0.001 A 
ATOM      7  C   UNL     1       8.169  -7.754  -3.379  0.00  0.00    +0.017 A 
ATOM      8  C   UNL     1       7.057  -7.317  -2.704  0.00  0.00    +0.041 A 
ATOM      9  C   UNL     1       5.859  -8.064  -2.642  0.00  0.00    +0.081 A 
ATOM     10  C   UNL     1       5.861  -9.305  -3.320  0.00  0.00    +0.029 A 
ATOM     11  N   UNL     1       4.854  -7.500  -1.939  0.00  0.00    -0.221 NA
ATOM     12  C   UNL     1       4.972  -6.335  -1.348  0.00  0.00    +0.196 A 
ATOM     13  S   UNL     1       6.650  -5.872  -1.754  0.00  0.00    -0.048 S 
ATOM     14  N   UNL     1       4.032  -5.638  -0.598  0.00  0.00    -0.193 N 
ATOM     15  C   UNL     1       4.246  -4.473   0.075  0.00  0.00    +0.134 A 
ATOM     16  C   UNL     1       3.073  -4.128   0.676  0.00  0.00    +0.016 A 
ATOM     17  C   UNL     1       2.124  -5.106   0.361  0.00  0.00    +0.069 A 
ATOM     18  N   UNL     1       2.695  -6.005  -0.404  0.00  0.00    -0.168 NA
ATOM     19  C   UNL     1       0.804  -4.756   1.013  0.00  0.00    +0.058 C 
ATOM     20  C   UNL     1       1.152  -3.720   2.103  0.00  0.00    +0.011 C 
ATOM     21  C   UNL     1       2.440  -3.071   1.554  0.00  0.00    +0.041 C 
ENDBRANCH   1  15
BRANCH   2  22
ATOM     22  C   UNL     1       6.721  -1.655   0.335  0.00  0.00    +0.091 C 
ATOM     23  C   UNL     1       7.629  -2.179   1.449  0.00  0.00    +0.015 C 
ATOM     24  C   UNL     1       8.954  -1.414   1.432  0.00  0.00    +0.018 C 
ATOM     25  C   UNL     1       8.685   0.072   1.688  0.00  0.00    +0.109 C 
ATOM     26  N   UNL     1       7.699   0.549   0.708  0.00  0.00    -0.175 NA
ATOM     27  C   UNL     1       6.425  -0.171   0.577  0.00  0.00    +0.122 C 
BRANCH  26  28
ATOM     28  S   UNL     1       8.018   1.875  -0.233  0.00  0.00    +0.067 S 
ATOM     29  O   UNL     1       6.761   2.406  -0.626  0.00  0.00    -0.152 OA
ATOM     30  O   UNL     1       8.986   2.646   0.467  0.00  0.00    -0.152 OA
BRANCH  28  31
ATOM     31  C   UNL     1       8.802   1.295  -1.701  0.00  0.00    +0.143 A 
ATOM     32  C   UNL     1       8.242   0.918  -2.876  0.00  0.00    +0.036 A 
ATOM     33  C   UNL     1       9.062   0.493  -3.904  0.00  0.00    +0.010 A 
ATOM     34  C   UNL     1      10.402   0.466  -3.707  0.00  0.00    +0.047 A 
ATOM     35  S   UNL     1      10.541   1.060  -2.029  0.00  0.00    -0.077 S 
ENDBRANCH  28  31
ENDBRANCH  26  28
ENDBRANCH   2  22
TORSDOF 4
