REMARK  Name = ZINC42607538
REMARK  7 active torsions:
REMARK  status: ('A' for Active; 'I' for Inactive)
REMARK    1  A    between atoms: C_1  and  C_2
REMARK    2  A    between atoms: C_8  and  N_10
REMARK    3  A    between atoms: N_10  and  C_11
REMARK    4  A    between atoms: N_10  and  C_12
REMARK    5  A    between atoms: C_12  and  C_14
REMARK    6  A    between atoms: C_12  and  C_15
REMARK    7  A    between atoms: C_15  and  C_16
REMARK                            x       y       z     vdW  Elec       q    Type
REMARK                         _______ _______ _______ _____ _____    ______ ____
ROOT
ATOM      1  N   UNL     1       2.013   0.172   1.051  0.00  0.00    +0.382 N 
ATOM      2  C   UNL     1       2.335  -0.407   2.362  0.00  0.00    -0.095 C 
ATOM      3  H   UNL     1       2.053   1.178   1.109  0.00  0.00    -0.081 HD
ENDROOT
BRANCH   1  10
ATOM      4  C   UNL     1       0.491   1.756  -0.840  0.00  0.00    +0.006 C 
ATOM      5  C   UNL     1       0.385   0.230  -0.778  0.00  0.00    -0.028 C 
ATOM      6  C   UNL     1      -1.023  -0.201  -1.194  0.00  0.00    +0.002 C 
ATOM      7  C   UNL     1      -2.049   0.421  -0.244  0.00  0.00    +0.000 C 
ATOM      8  C   UNL     1      -1.772  -0.051   1.185  0.00  0.00    -0.002 C 
ATOM      9  C   UNL     1      -0.364   0.380   1.601  0.00  0.00    -0.015 C 
ATOM     10  C   UNL     1       0.661  -0.242   0.651  0.00  0.00    -0.066 C 
ENDBRANCH   1  10
BRANCH   1  11
ATOM     11  C   UNL     1       2.984  -0.301   0.055  0.00  0.00    -0.058 C 
ATOM     12  C   UNL     1       4.354   0.316   0.345  0.00  0.00    -0.012 C 
BRANCH  11  13
ATOM     13  C   UNL     1       3.086  -1.826   0.126  0.00  0.00    +0.103 C 
BRANCH  13  14
ATOM     14  C   UNL     1       1.843  -2.425  -0.385  0.00  0.00    +0.061 C 
ATOM     15  N   UNL     1       0.883  -2.887  -0.780  0.00  0.00    -0.197 NA
ENDBRANCH  13  14
ENDBRANCH  11  13
ENDBRANCH   1  11
TORSDOF 4
