REMARK  Name = ZINC38491578
REMARK  9 active torsions:
REMARK  status: ('A' for Active; 'I' for Inactive)
REMARK    1  A    between atoms: C_1  and  C_2
REMARK    2  A    between atoms: C_4  and  C_32
REMARK    3  A    between atoms: C_6  and  S_8
REMARK    4  A    between atoms: S_8  and  C_9
REMARK    5  A    between atoms: C_9  and  C_10
REMARK    6  A    between atoms: C_11  and  C_23
REMARK    7  A    between atoms: N_14  and  C_15
REMARK    8  A    between atoms: N_25  and  C_26
REMARK    9  A    between atoms: C_26  and  C_27
REMARK                            x       y       z     vdW  Elec       q    Type
REMARK                         _______ _______ _______ _____ _____    ______ ____
ROOT
ATOM      1  C   UNL     1       0.056  -2.148   5.299  0.00  0.00    +0.087 A 
ATOM      2  C   UNL     1      -1.033  -2.497   6.047  0.00  0.00    +0.171 A 
ATOM      3  N   UNL     1      -0.602  -3.003   7.216  0.00  0.00    -0.124 NA
ATOM      4  N   UNL     1       0.685  -2.992   7.242  0.00  0.00    -0.060 NA
ATOM      5  N   UNL     1       1.148  -2.458   6.031  0.00  0.00    -0.215 N 
ENDROOT
BRANCH   5   6
ATOM      6  C   UNL     1       2.486  -2.277   5.654  0.00  0.00    +0.070 A 
ATOM      7  C   UNL     1       2.863  -2.438   4.328  0.00  0.00    +0.048 A 
ATOM      8  C   UNL     1       4.183  -2.259   3.958  0.00  0.00    +0.044 A 
ATOM      9  C   UNL     1       5.129  -1.920   4.910  0.00  0.00    +0.040 A 
ATOM     10  C   UNL     1       4.756  -1.760   6.232  0.00  0.00    +0.044 A 
ATOM     11  C   UNL     1       3.436  -1.932   6.606  0.00  0.00    +0.048 A 
ATOM     12 CL   UNL     1       5.946  -1.335   7.423  0.00  0.00    -0.083 Cl
ATOM     13 CL   UNL     1       4.654  -2.461   2.300  0.00  0.00    -0.083 Cl
ENDBRANCH   5   6
BRANCH   2  14
ATOM     14  C   UNL     1      -2.443  -2.342   5.642  0.00  0.00    +0.266 C 
ATOM     15  O   UNL     1      -2.715  -1.869   4.556  0.00  0.00    -0.268 OA
ATOM     16  N   UNL     1      -3.430  -2.726   6.476  0.00  0.00    -0.303 N 
ATOM     17  H   UNL     1      -3.213  -3.104   7.343  0.00  0.00    +0.150 HD
BRANCH  16  18
ATOM     18  C   UNL     1      -4.830  -2.573   6.073  0.00  0.00    +0.179 C 
BRANCH  18  19
ATOM     19  C   UNL     1      -5.727  -3.074   7.176  0.00  0.00    +0.122 A 
ATOM     20  C   UNL     1      -6.217  -2.335   8.188  0.00  0.00    +0.046 A 
ATOM     21  C   UNL     1      -7.004  -3.200   8.982  0.00  0.00    +0.041 A 
ATOM     22  C   UNL     1      -6.948  -4.415   8.409  0.00  0.00    +0.195 A 
ATOM     23  O   UNL     1      -6.178  -4.332   7.311  0.00  0.00    -0.466 OA
ENDBRANCH  18  19
ENDBRANCH  16  18
ENDBRANCH   2  14
BRANCH   1  24
ATOM     24  C   UNL     1       0.041  -1.542   3.919  0.00  0.00    +0.135 C 
BRANCH  24  25
ATOM     25  S   UNL     1       0.053  -2.864   2.678  0.00  0.00    -0.080 S 
BRANCH  25  31
ATOM     26  C   UNL     1      -0.018   1.503   0.010  0.00  0.00    +0.066 C 
ATOM     27  C   UNL     1       0.002  -0.004   0.002  0.00  0.00    +0.043 A 
ATOM     28  C   UNL     1       0.006  -0.699  -1.198  0.00  0.00    +0.046 A 
ATOM     29  C   UNL     1       0.025  -2.084  -1.161  0.00  0.00    +0.043 A 
ATOM     30  N   UNL     1       0.039  -2.699   0.010  0.00  0.00    -0.227 NA
ATOM     31  C   UNL     1       0.035  -2.005   1.140  0.00  0.00    +0.189 A 
ATOM     32  N   UNL     1       0.022  -0.679   1.139  0.00  0.00    -0.227 NA
ATOM     33  C   UNL     1       0.029  -2.881  -2.440  0.00  0.00    +0.066 C 
ENDBRANCH  25  31
ENDBRANCH  24  25
ENDBRANCH   1  24
TORSDOF 7
