REMARK  Name = ZINC03640067
REMARK  12 active torsions:
REMARK  status: ('A' for Active; 'I' for Inactive)
REMARK    1  A    between atoms: C_1  and  C_2
REMARK    2  A    between atoms: C_3  and  C_31
REMARK    3  A    between atoms: C_4  and  C_22
REMARK    4  A    between atoms: C_10  and  C_15
REMARK    5  A    between atoms: C_25  and  O_30
REMARK    6  A    between atoms: C_26  and  O_28
REMARK    7  A    between atoms: O_28  and  C_29
REMARK    8  A    between atoms: C_31  and  O_33
REMARK    9  A    between atoms: O_33  and  C_34
REMARK   10  A    between atoms: C_34  and  C_35
REMARK   11  A    between atoms: C_35  and  O_36
REMARK   12  A    between atoms: O_36  and  C_37
REMARK                            x       y       z     vdW  Elec       q    Type
REMARK                         _______ _______ _______ _____ _____    ______ ____
ROOT
ATOM      1  C   UNL     1       7.476   1.651   2.533  0.00  0.00    +0.061 C 
ATOM      2  C   UNL     1       6.502   2.610   1.897  0.00  0.00    +0.016 C 
ATOM      3  C   UNL     1       6.081   2.396   0.639  0.00  0.00    +0.065 C 
ATOM      4  C   UNL     1       5.106   3.325  -0.024  0.00  0.00    +0.092 C 
ATOM      5  C   UNL     1       5.044   4.648   0.697  0.00  0.00    +0.024 C 
ATOM      6  C   UNL     1       5.506   4.767   1.960  0.00  0.00    +0.016 C 
ATOM      7  N   UNL     1       6.053   3.690   2.604  0.00  0.00    -0.321 N 
ATOM      8  C   UNL     1       5.435   6.084   2.692  0.00  0.00    +0.059 C 
ATOM      9  C   UNL     1       5.547   7.236   1.691  0.00  0.00    +0.033 C 
ATOM     10  C   UNL     1       4.413   7.104   0.669  0.00  0.00    +0.088 C 
ATOM     11  C   UNL     1       4.495   5.750   0.018  0.00  0.00    +0.162 C 
ATOM     12  O   UNL     1       4.080   5.606  -1.114  0.00  0.00    -0.292 OA
ATOM     13  H   UNL     1       6.130   3.700   3.701  0.00  0.00    +0.152 HD
ENDROOT
BRANCH   9  14
ATOM     14  C   UNL     1       5.425   8.551   2.416  0.00  0.00    -0.025 A 
ATOM     15  C   UNL     1       4.275   8.845   3.125  0.00  0.00    +0.005 A 
ATOM     16  C   UNL     1       4.165  10.050   3.794  0.00  0.00    +0.000 A 
ATOM     17  C   UNL     1       5.200  10.965   3.746  0.00  0.00    +0.001 A 
ATOM     18  C   UNL     1       6.347  10.675   3.033  0.00  0.00    +0.020 A 
ATOM     19  C   UNL     1       6.460   9.467   2.368  0.00  0.00    +0.044 A 
ATOM     20 CL   UNL     1       7.902   9.101   1.472  0.00  0.00    -0.083 Cl
ENDBRANCH   9  14
BRANCH   4  21
ATOM     21  C   UNL     1       3.738   2.693  -0.018  0.00  0.00    -0.032 A 
ATOM     22  C   UNL     1       3.120   2.397   1.183  0.00  0.00    +0.008 A 
ATOM     23  C   UNL     1       1.863   1.823   1.193  0.00  0.00    +0.049 A 
ATOM     24  C   UNL     1       1.224   1.533  -0.001  0.00  0.00    +0.158 A 
ATOM     25  C   UNL     1       1.845   1.831  -1.210  0.00  0.00    +0.162 A 
ATOM     26  C   UNL     1       3.103   2.412  -1.214  0.00  0.00    +0.054 A 
BRANCH  25  27
ATOM     27  O   UNL     1       1.220   1.554  -2.385  0.00  0.00    -0.491 OA
ATOM     28  C   UNL     1       1.917   1.888  -3.587  0.00  0.00    +0.277 C 
ENDBRANCH  25  27
BRANCH  24  29
ATOM     29  O   UNL     1      -0.011   0.963   0.007  0.00  0.00    -0.503 OA
ATOM     30  H   UNL     1      -0.517   0.733  -0.942  0.00  0.00    +0.292 HD
ENDBRANCH  24  29
ENDBRANCH   4  21
BRANCH   3  31
ATOM     31  C   UNL     1       6.565   1.275  -0.074  0.00  0.00    +0.338 C 
ATOM     32  O   UNL     1       7.356   0.514   0.452  0.00  0.00    -0.245 OA
BRANCH  31  33
ATOM     33  O   UNL     1       6.151   1.048  -1.338  0.00  0.00    -0.459 OA
BRANCH  33  34
ATOM     34  C   UNL     1       6.680  -0.103  -1.999  0.00  0.00    +0.260 C 
BRANCH  34  35
ATOM     35  C   UNL     1       6.100  -0.193  -3.411  0.00  0.00    +0.200 C 
BRANCH  35  36
ATOM     36  O   UNL     1       6.547   0.924  -4.182  0.00  0.00    -0.380 OA
ATOM     37  C   UNL     1       6.058   0.936  -5.525  0.00  0.00    +0.194 C 
ENDBRANCH  35  36
ENDBRANCH  34  35
ENDBRANCH  33  34
ENDBRANCH  31  33
ENDBRANCH   3  31
TORSDOF 9
