REMARK  Name = ZINC35924664
REMARK  13 active torsions:
REMARK  status: ('A' for Active; 'I' for Inactive)
REMARK    1  A    between atoms: C_1  and  C_2
REMARK    2  A    between atoms: C_6  and  C_26
REMARK    3  A    between atoms: C_8  and  N_9
REMARK    4  A    between atoms: N_12  and  C_15
REMARK    5  A    between atoms: C_15  and  C_16
REMARK    6  A    between atoms: C_18  and  O_24
REMARK    7  A    between atoms: C_20  and  O_22
REMARK    8  A    between atoms: O_22  and  C_23
REMARK    9  A    between atoms: O_24  and  C_25
REMARK   10  A    between atoms: C_26  and  C_27
REMARK   11  A    between atoms: C_27  and  C_28
REMARK   12  A    between atoms: C_27  and  C_29
REMARK   13  A    between atoms: N_30  and  C_32
REMARK                            x       y       z     vdW  Elec       q    Type
REMARK                         _______ _______ _______ _____ _____    ______ ____
ROOT
ATOM      1  C   UNL     1      -3.042   0.561  -2.373  0.00  0.00    +0.068 C 
ATOM      2  C   UNL     1      -2.492  -0.781  -1.965  0.00  0.00    +0.073 A 
ATOM      3  C   UNL     1      -1.167  -1.224  -2.165  0.00  0.00    +0.082 A 
ATOM      4  C   UNL     1      -1.083  -2.528  -1.637  0.00  0.00    +0.169 A 
ATOM      5  N   UNL     1       0.079  -3.175  -1.703  0.00  0.00    -0.212 NA
ATOM      6  C   UNL     1       1.132  -2.608  -2.251  0.00  0.00    +0.134 A 
ATOM      7  N   UNL     1       1.102  -1.389  -2.759  0.00  0.00    -0.217 NA
ATOM      8  C   UNL     1      -0.011  -0.663  -2.741  0.00  0.00    +0.136 A 
ATOM      9  N   UNL     1      -2.322  -2.828  -1.147  0.00  0.00    -0.214 N 
ATOM     10  N   UNL     1      -3.158  -1.726  -1.364  0.00  0.00    -0.169 NA
ENDROOT
BRANCH   8  11
ATOM     11  N   UNL     1      -0.033   0.610  -3.275  0.00  0.00    -0.318 N 
ATOM     12  C   UNL     1       0.171   1.792  -2.422  0.00  0.00    +0.088 C 
ATOM     13  C   UNL     1       1.247   2.674  -3.063  0.00  0.00    -0.059 C 
ATOM     14  N   UNL     1       0.864   2.983  -4.447  0.00  0.00    +0.384 N 
ATOM     15  C   UNL     1       0.835   1.752  -5.245  0.00  0.00    -0.059 C 
ATOM     16  C   UNL     1      -0.256   0.824  -4.713  0.00  0.00    +0.088 C 
ATOM     17  H   UNL     1      -0.051   3.409  -4.454  0.00  0.00    -0.081 HD
BRANCH  14  18
ATOM     18  C   UNL     1       1.839   3.917  -5.025  0.00  0.00    -0.043 C 
BRANCH  18  19
ATOM     19  C   UNL     1       1.383   4.332  -6.400  0.00  0.00    -0.057 A 
ATOM     20  C   UNL     1       1.769   3.598  -7.506  0.00  0.00    +0.047 A 
ATOM     21  C   UNL     1       1.350   3.978  -8.773  0.00  0.00    +0.124 A 
ATOM     22  C   UNL     1       0.544   5.095  -8.930  0.00  0.00    +0.091 A 
ATOM     23  C   UNL     1       0.159   5.830  -7.819  0.00  0.00    +0.124 A 
ATOM     24  C   UNL     1       0.575   5.442  -6.553  0.00  0.00    +0.047 A 
BRANCH  23  25
ATOM     25  O   UNL     1      -0.631   6.926  -7.970  0.00  0.00    -0.495 OA
ATOM     26  C   UNL     1      -1.026   7.262  -9.301  0.00  0.00    +0.277 C 
ENDBRANCH  23  25
BRANCH  21  27
ATOM     27  O   UNL     1       1.730   3.255  -9.860  0.00  0.00    -0.495 OA
ATOM     28  C   UNL     1       1.262   3.704 -11.133  0.00  0.00    +0.277 C 
ENDBRANCH  21  27
ENDBRANCH  18  19
ENDBRANCH  14  18
ENDBRANCH   8  11
BRANCH   9  29
ATOM     29  C   UNL     1      -2.692  -4.030  -0.529  0.00  0.00    +0.068 A 
ATOM     30  C   UNL     1      -2.136  -5.230  -0.953  0.00  0.00    +0.028 A 
ATOM     31  C   UNL     1      -2.503  -6.413  -0.342  0.00  0.00    +0.002 A 
ATOM     32  C   UNL     1      -3.422  -6.404   0.690  0.00  0.00    +0.000 A 
ATOM     33  C   UNL     1      -3.978  -5.211   1.115  0.00  0.00    +0.002 A 
ATOM     34  C   UNL     1      -3.611  -4.023   0.512  0.00  0.00    +0.028 A 
ENDBRANCH   9  29
BRANCH   6  35
ATOM     35  C   UNL     1       2.424  -3.382  -2.302  0.00  0.00    +0.079 C 
BRANCH  35  36
ATOM     36  C   UNL     1       2.486  -4.187  -3.601  0.00  0.00    -0.010 C 
ATOM     37  C   UNL     1       3.849  -4.873  -3.711  0.00  0.00    +0.007 C 
ATOM     38  C   UNL     1       1.381  -5.245  -3.598  0.00  0.00    +0.007 C 
ENDBRANCH  35  36
ENDBRANCH   6  35
TORSDOF 8
