REMARK  Name = ZINC63375429
REMARK  7 active torsions:
REMARK  status: ('A' for Active; 'I' for Inactive)
REMARK    1  A    between atoms: C_1  and  C_2
REMARK    2  A    between atoms: C_2  and  C_3
REMARK    3  A    between atoms: C_3  and  N_4
REMARK    4  A    between atoms: C_5  and  C_7
REMARK    5  A    between atoms: C_12  and  N_13
REMARK    6  A    between atoms: C_29  and  C_34
REMARK    7  A    between atoms: C_37  and  C_40
REMARK                            x       y       z     vdW  Elec       q    Type
REMARK                         _______ _______ _______ _____ _____    ______ ____
ROOT
ATOM      1  N   UNL     1       2.586  -4.428  -4.635  0.00  0.00    -0.192 N 
ATOM      2  C   UNL     1       3.872  -4.019  -4.622  0.00  0.00    +0.248 C 
ATOM      3  O   UNL     1       4.710  -4.266  -3.783  0.00  0.00    -0.273 OA
ATOM      4  C   UNL     1       4.049  -3.190  -5.875  0.00  0.00    +0.169 C 
ATOM      5  C   UNL     1       4.500  -1.766  -5.504  0.00  0.00    +0.065 C 
ATOM      6  C   UNL     1       4.089  -0.876  -6.654  0.00  0.00    -0.034 C 
ATOM      7  C   UNL     1       4.803  -0.034  -7.393  0.00  0.00    -0.001 A 
ATOM      8  C   UNL     1       6.204   0.405  -7.299  0.00  0.00    +0.010 A 
ATOM      9  C   UNL     1       6.623   1.281  -8.250  0.00  0.00    +0.001 A 
ATOM     10  C   UNL     1       5.798   1.759  -9.273  0.00  0.00    +0.002 A 
ATOM     11  C   UNL     1       4.495   1.415  -9.431  0.00  0.00    +0.026 A 
ATOM     12  C   UNL     1       3.938   0.504  -8.486  0.00  0.00    +0.043 A 
ATOM     13  N   UNL     1       2.733   0.027  -8.388  0.00  0.00    -0.375 N 
ATOM     14  C   UNL     1       2.668  -0.823  -7.198  0.00  0.00    +0.131 C 
ATOM     15  C   UNL     1       2.272  -2.264  -7.555  0.00  0.00    +0.135 C 
ATOM     16  N   UNL     1       2.684  -3.129  -6.437  0.00  0.00    -0.264 N 
ATOM     17  C   UNL     1       1.923  -3.944  -5.695  0.00  0.00    +0.317 C 
ATOM     18  O   UNL     1       0.765  -4.210  -5.950  0.00  0.00    -0.252 OA
ATOM     19  H   UNL     1       2.001   0.204  -9.000  0.00  0.00    +0.160 HD
ENDROOT
BRANCH  15  20
ATOM     20  C   UNL     1       0.781  -2.353  -7.755  0.00  0.00    -0.025 A 
ATOM     21  C   UNL     1      -0.077  -1.988  -6.734  0.00  0.00    +0.006 A 
ATOM     22  C   UNL     1      -1.444  -2.070  -6.918  0.00  0.00    +0.004 A 
ATOM     23  C   UNL     1      -1.954  -2.517  -8.122  0.00  0.00    -0.050 A 
ATOM     24  C   UNL     1      -1.097  -2.881  -9.143  0.00  0.00    +0.004 A 
ATOM     25  C   UNL     1       0.271  -2.795  -8.961  0.00  0.00    +0.006 A 
ATOM     26  C   UNL     1      -3.445  -2.607  -8.322  0.00  0.00    +0.044 C 
ENDBRANCH  15  20
BRANCH   1  32
ATOM     27  C   UNL     1       1.409  -4.701  -2.531  0.00  0.00    +0.059 A 
ATOM     28  C   UNL     1       0.839  -5.540  -1.572  0.00  0.00    +0.015 A 
ATOM     29  C   UNL     1       0.881  -6.907  -1.743  0.00  0.00    +0.001 A 
ATOM     30  C   UNL     1       1.487  -7.454  -2.862  0.00  0.00    +0.002 A 
ATOM     31  C   UNL     1       2.055  -6.636  -3.819  0.00  0.00    +0.025 A 
ATOM     32  C   UNL     1       2.017  -5.257  -3.666  0.00  0.00    +0.058 A 
BRANCH  27  34
ATOM     33  N   UNL     1       0.782  -2.706  -1.262  0.00  0.00    -0.311 N 
ATOM     34  C   UNL     1       1.367  -3.236  -2.355  0.00  0.00    +0.246 C 
ATOM     35  O   UNL     1       1.860  -2.508  -3.195  0.00  0.00    -0.270 OA
ATOM     36  H   UNL     1       0.389  -3.286  -0.593  0.00  0.00    +0.149 HD
BRANCH  33  37
ATOM     37  C   UNL     1       0.741  -1.252  -1.087  0.00  0.00    +0.104 C 
BRANCH  37  39
ATOM     38  C   UNL     1      -0.017   0.602   0.407  0.00  0.00    +0.005 C 
ATOM     39  C   UNL     1       0.027  -0.916   0.224  0.00  0.00    +0.015 C 
ENDBRANCH  37  39
ENDBRANCH  33  37
ENDBRANCH  27  34
ENDBRANCH   1  32
TORSDOF 5
