REMARK  Name = ZINC39580215
REMARK  9 active torsions:
REMARK  status: ('A' for Active; 'I' for Inactive)
REMARK    1  A    between atoms: C_1  and  C_2
REMARK    2  A    between atoms: C_3  and  C_12
REMARK    3  A    between atoms: C_12  and  O_13
REMARK    4  A    between atoms: O_13  and  C_14
REMARK    5  A    between atoms: C_14  and  C_16
REMARK    6  A    between atoms: C_16  and  N_17
REMARK    7  A    between atoms: C_22  and  C_29
REMARK    8  A    between atoms: C_25  and  C_27
REMARK    9  A    between atoms: C_25  and  C_28
REMARK                            x       y       z     vdW  Elec       q    Type
REMARK                         _______ _______ _______ _____ _____    ______ ____
ROOT
ATOM      1  C   UNL     1       2.666   1.329  -4.517  0.00  0.00    +0.238 C 
ENDROOT
BRANCH   1   2
ATOM      2  N   UNL     1       2.626   2.083  -5.772  0.00  0.00    -0.213 N 
ATOM      3  C   UNL     1       2.610   1.517  -6.997  0.00  0.00    +0.247 C 
ATOM      4  O   UNL     1       2.625   0.333  -7.258  0.00  0.00    -0.273 OA
ATOM      5  C   UNL     1       2.567   2.669  -7.974  0.00  0.00    +0.113 C 
ATOM      6  C   UNL     1       3.803   2.655  -8.867  0.00  0.00    +0.038 C 
ATOM      7  C   UNL     1       3.756   3.846  -9.827  0.00  0.00    -0.011 C 
ATOM      8  C   UNL     1       2.489   3.761 -10.680  0.00  0.00    +0.009 C 
ATOM      9  C   UNL     1       1.257   3.800  -9.773  0.00  0.00    -0.032 C 
ATOM     10  C   UNL     1       1.295   2.609  -8.812  0.00  0.00    +0.041 C 
ATOM     11  C   UNL     1      -0.009   3.727 -10.628  0.00  0.00    +0.011 C 
ATOM     12  C   UNL     1       1.256   5.103  -8.970  0.00  0.00    +0.011 C 
ATOM     13  C   UNL     1       4.986   3.818 -10.736  0.00  0.00    +0.007 C 
ATOM     14  N   UNL     1       2.564   3.862  -7.118  0.00  0.00    -0.285 N 
ATOM     15  C   UNL     1       2.594   3.419  -5.847  0.00  0.00    +0.310 C 
ATOM     16  O   UNL     1       2.596   4.150  -4.876  0.00  0.00    -0.252 OA
ATOM     17  H   UNL     1       2.541   4.787  -7.410  0.00  0.00    +0.151 HD
ENDBRANCH   1   2
BRANCH   1  18
ATOM     18  C   UNL     1       1.260   1.039  -4.060  0.00  0.00    +0.326 C 
ATOM     19  O   UNL     1       0.320   1.423  -4.715  0.00  0.00    -0.249 OA
BRANCH  18  20
ATOM     20  O   UNL     1       1.051   0.354  -2.924  0.00  0.00    -0.457 OA
BRANCH  20  21
ATOM     21  C   UNL     1      -0.308   0.115  -2.551  0.00  0.00    +0.289 C 
BRANCH  21  24
ATOM     22  C   UNL     1      -0.365   1.530  -0.035  0.00  0.00    +0.067 C 
ATOM     23  C   UNL     1      -0.373   0.023  -0.043  0.00  0.00    +0.063 A 
ATOM     24  C   UNL     1      -0.345  -0.661  -1.260  0.00  0.00    +0.100 A 
ATOM     25  N   UNL     1      -0.351  -1.974  -1.292  0.00  0.00    -0.245 NA
ATOM     26  C   UNL     1      -0.385  -2.664  -0.147  0.00  0.00    +0.090 A 
ATOM     27  C   UNL     1      -0.392  -4.070  -0.146  0.00  0.00    +0.030 A 
ATOM     28  C   UNL     1      -0.425  -4.744   1.036  0.00  0.00    +0.002 A 
ATOM     29  C   UNL     1      -0.454  -4.061   2.250  0.00  0.00    +0.002 A 
ATOM     30  C   UNL     1      -0.449  -2.701   2.289  0.00  0.00    +0.030 A 
ATOM     31  C   UNL     1      -0.413  -1.970   1.089  0.00  0.00    +0.089 A 
ATOM     32  N   UNL     1      -0.402  -0.632   1.095  0.00  0.00    -0.248 NA
ENDBRANCH  21  24
ENDBRANCH  20  21
ENDBRANCH  18  20
ENDBRANCH   1  18
TORSDOF 5
