REMARK  Name = ZINC10068296
REMARK  7 active torsions:
REMARK  status: ('A' for Active; 'I' for Inactive)
REMARK    1  A    between atoms: C_1  and  N_53
REMARK    2  A    between atoms: C_2  and  N_53
REMARK    3  A    between atoms: C_3  and  C_4
REMARK    4  A    between atoms: C_3  and  N_53
REMARK    5  A    between atoms: C_4  and  C_5
REMARK    6  A    between atoms: C_5  and  N_6
REMARK    7  A    between atoms: C_20  and  C_22
REMARK                            x       y       z     vdW  Elec       q    Type
REMARK                         _______ _______ _______ _____ _____    ______ ____
ROOT
ATOM      1  N   UNL     1       0.527  -0.655  -1.215  0.00  0.00    -0.246 N 
ATOM      2  C   UNL     1       1.871  -0.986  -1.265  0.00  0.00    +0.168 A 
ATOM      3  N   UNL     1       2.607  -1.284  -2.310  0.00  0.00    -0.224 NA
ATOM      4  C   UNL     1       3.920  -1.591  -2.211  0.00  0.00    +0.084 A 
ATOM      5  C   UNL     1       4.816  -1.929  -3.251  0.00  0.00    +0.078 A 
ATOM      6  C   UNL     1       6.136  -2.218  -2.984  0.00  0.00    +0.164 A 
ATOM      7  C   UNL     1       6.626  -2.183  -1.679  0.00  0.00    +0.163 A 
ATOM      8  C   UNL     1       5.771  -1.855  -0.638  0.00  0.00    +0.066 A 
ATOM      9  C   UNL     1       4.455  -1.568  -0.904  0.00  0.00    +0.044 A 
ATOM     10  S   UNL     1       3.047  -1.106   0.075  0.00  0.00    -0.052 S 
ATOM     11  O   UNL     1       7.930  -2.461  -1.410  0.00  0.00    -0.485 OA
ATOM     12  C   UNL     1       8.665  -3.146  -2.430  0.00  0.00    +0.270 C 
ATOM     13  C   UNL     1       8.368  -2.464  -3.773  0.00  0.00    +0.270 C 
ATOM     14  O   UNL     1       6.961  -2.547  -4.019  0.00  0.00    -0.485 OA
ATOM     15  C   UNL     1      -0.199  -0.611  -2.349  0.00  0.00    +0.252 C 
ATOM     16  O   UNL     1       0.307  -0.929  -3.408  0.00  0.00    -0.270 OA
ENDROOT
BRANCH  15  17
ATOM     17  C   UNL     1      -1.608  -0.176  -2.307  0.00  0.00    +0.038 A 
ATOM     18  C   UNL     1      -2.553  -0.741  -3.176  0.00  0.00    +0.015 A 
ATOM     19  C   UNL     1      -3.854  -0.361  -3.151  0.00  0.00    +0.029 A 
ATOM     20  C   UNL     1      -4.304   0.632  -2.248  0.00  0.00    +0.078 A 
ATOM     21  C   UNL     1      -3.333   1.192  -1.384  0.00  0.00    +0.040 A 
ATOM     22  C   UNL     1      -2.019   0.807  -1.403  0.00  0.00    +0.030 A 
ATOM     23  S   UNL     1      -4.294   2.358  -0.451  0.00  0.00    -0.075 S 
ATOM     24  C   UNL     1      -5.825   2.054  -1.212  0.00  0.00    +0.157 A 
ATOM     25  N   UNL     1      -5.546   1.131  -2.091  0.00  0.00    -0.247 NA
ENDBRANCH  15  17
BRANCH   1  26
ATOM     26  C   UNL     1      -0.105  -0.353   0.072  0.00  0.00    +0.114 C 
BRANCH  26  27
ATOM     27  C   UNL     1       0.333   1.035   0.543  0.00  0.00    +0.001 C 
BRANCH  27  28
ATOM     28  C   UNL     1      -0.444   1.414   1.805  0.00  0.00    -0.078 C 
BRANCH  28  31
ATOM     29  C   UNL     1      -0.906   3.246   3.319  0.00  0.00    -0.097 C 
ATOM     30  C   UNL     1       1.378   2.735   2.699  0.00  0.00    -0.097 C 
ATOM     31  N   UNL     1      -0.025   2.765   2.234  0.00  0.00    +0.376 N 
ATOM     32  H   UNL     1      -0.098   3.407   1.436  0.00  0.00    -0.083 HD
ENDBRANCH  28  31
ENDBRANCH  27  28
ENDBRANCH  26  27
ENDBRANCH   1  26
TORSDOF 5
