REMARK  Name = ZINC08918605
REMARK  5 active torsions:
REMARK  status: ('A' for Active; 'I' for Inactive)
REMARK    1  A    between atoms: C_1  and  C_2
REMARK    2  A    between atoms: C_13  and  C_34
REMARK    3  A    between atoms: C_15  and  C_27
REMARK    4  A    between atoms: C_27  and  C_29
REMARK    5  A    between atoms: C_34  and  C_36
REMARK                            x       y       z     vdW  Elec       q    Type
REMARK                         _______ _______ _______ _____ _____    ______ ____
ROOT
ATOM      1  C   UNL     1       0.172   1.088   0.137  0.00  0.00    +0.044 C 
ATOM      2  C   UNL     1      -0.568   1.577   1.356  0.00  0.00    -0.050 A 
ATOM      3  C   UNL     1      -1.938   1.762   1.300  0.00  0.00    +0.005 A 
ATOM      4  C   UNL     1      -2.633   2.207   2.410  0.00  0.00    +0.024 A 
ATOM      5  C   UNL     1      -1.955   2.481   3.582  0.00  0.00    +0.038 A 
ATOM      6  C   UNL     1      -0.556   2.296   3.640  0.00  0.00    -0.004 A 
ATOM      7  C   UNL     1       0.127   1.843   2.520  0.00  0.00    +0.013 A 
ATOM      8  C   UNL     1       0.146   2.589   4.913  0.00  0.00    +0.007 C 
ATOM      9  C   UNL     1      -0.438   3.458   5.759  0.00  0.00    -0.003 C 
ATOM     10  C   UNL     1      -1.746   4.036   5.316  0.00  0.00    +0.117 C 
ATOM     11  N   UNL     1      -2.563   2.940   4.725  0.00  0.00    -0.311 N 
ATOM     12  C   UNL     1      -3.910   3.514   4.629  0.00  0.00    +0.152 C 
ATOM     13  C   UNL     1      -4.074   4.280   5.973  0.00  0.00    +0.112 C 
ATOM     14  C   UNL     1      -2.631   4.583   6.426  0.00  0.00    +0.108 C 
ATOM     15  C   UNL     1      -2.334   3.981   7.757  0.00  0.00    -0.008 A 
ATOM     16  C   UNL     1      -2.341   2.676   8.201  0.00  0.00    +0.006 A 
ATOM     17  C   UNL     1      -2.008   2.460   9.533  0.00  0.00    +0.000 A 
ATOM     18  C   UNL     1      -1.682   3.506  10.373  0.00  0.00    +0.002 A 
ATOM     19  C   UNL     1      -1.671   4.821   9.934  0.00  0.00    +0.023 A 
ATOM     20  C   UNL     1      -2.005   5.053   8.599  0.00  0.00    +0.038 A 
ATOM     21  N   UNL     1      -2.075   6.249   7.906  0.00  0.00    -0.284 N 
ATOM     22  C   UNL     1      -2.436   6.066   6.617  0.00  0.00    +0.231 C 
ATOM     23  O   UNL     1      -2.577   6.929   5.776  0.00  0.00    -0.274 OA
ATOM     24  H   UNL     1      -1.886   7.115   8.299  0.00  0.00    +0.155 HD
ENDROOT
BRANCH  12  25
ATOM     25  C   UNL     1      -4.001   4.463   3.463  0.00  0.00    +0.151 C 
ATOM     26  O   UNL     1      -2.994   4.845   2.915  0.00  0.00    -0.296 OA
ATOM     27  C   UNL     1      -5.348   4.937   2.979  0.00  0.00    +0.088 C 
ENDBRANCH  12  25
BRANCH  13  28
ATOM     28  C   UNL     1      -4.773   3.415   6.990  0.00  0.00    +0.204 C 
ATOM     29  O   UNL     1      -4.749   2.206   6.878  0.00  0.00    -0.288 OA
BRANCH  28  30
ATOM     30  C   UNL     1      -5.457   4.011   8.073  0.00  0.00    +0.170 A 
ATOM     31  C   UNL     1      -6.137   3.343   9.073  0.00  0.00    +0.053 A 
ATOM     32  C   UNL     1      -6.654   4.325   9.928  0.00  0.00    +0.042 A 
ATOM     33  C   UNL     1      -6.280   5.526   9.431  0.00  0.00    +0.196 A 
ATOM     34  O   UNL     1      -5.557   5.334   8.321  0.00  0.00    -0.460 OA
ENDBRANCH  28  30
ENDBRANCH  13  28
TORSDOF 3
