REMARK  Name = ZINC62426612
REMARK  6 active torsions:
REMARK  status: ('A' for Active; 'I' for Inactive)
REMARK    1  A    between atoms: C_1  and  C_2
REMARK    2  A    between atoms: C_5  and  C_8
REMARK    3  A    between atoms: C_9  and  C_10
REMARK    4  A    between atoms: C_11  and  C_21
REMARK    5  A    between atoms: C_18  and  C_20
REMARK    6  A    between atoms: C_21  and  O_22
REMARK                            x       y       z     vdW  Elec       q    Type
REMARK                         _______ _______ _______ _____ _____    ______ ____
ROOT
ATOM      1  C   UNL     1       0.094  -6.393   1.132  0.00  0.00    +0.095 A 
ATOM      2  C   UNL     1       0.949  -7.214   1.836  0.00  0.00    +0.116 A 
ATOM      3  N   UNL     1       0.645  -8.479   1.560  0.00  0.00    -0.131 NA
ATOM      4  N   UNL     1      -0.339  -8.534   0.734  0.00  0.00    -0.058 NA
ATOM      5  N   UNL     1      -0.741  -7.226   0.426  0.00  0.00    -0.187 N 
ATOM      6  C   UNL     1      -1.776  -6.847  -0.426  0.00  0.00    +0.218 A 
ATOM      7  N   UNL     1      -2.200  -5.638  -0.764  0.00  0.00    -0.121 NA
ATOM      8  N   UNL     1      -3.172  -5.536  -1.566  0.00  0.00    -0.145 NA
ATOM      9  C   UNL     1      -3.773  -6.586  -2.073  0.00  0.00    +0.101 A 
ATOM     10  S   UNL     1      -2.905  -7.854  -1.378  0.00  0.00    -0.031 S 
ATOM     11  C   UNL     1      -4.934  -6.644  -3.032  0.00  0.00    +0.075 C 
ENDROOT
BRANCH   1  13
ATOM     12  C   UNL     1       0.060  -4.246  -0.021  0.00  0.00    +0.010 C 
ATOM     13  C   UNL     1       0.075  -4.926   1.140  0.00  0.00    +0.030 C 
BRANCH  12  18
ATOM     14  C   UNL     1      -0.018   1.503   0.010  0.00  0.00    +0.044 C 
ATOM     15  C   UNL     1       0.002  -0.004   0.002  0.00  0.00    -0.050 A 
ATOM     16  C   UNL     1       0.006  -0.686  -1.202  0.00  0.00    +0.004 A 
ATOM     17  C   UNL     1       0.024  -2.065  -1.218  0.00  0.00    +0.008 A 
ATOM     18  C   UNL     1       0.040  -2.774  -0.013  0.00  0.00    -0.025 A 
ATOM     19  C   UNL     1       0.037  -2.078   1.199  0.00  0.00    +0.008 A 
ATOM     20  C   UNL     1       0.023  -0.699   1.199  0.00  0.00    +0.004 A 
ENDBRANCH  12  18
ENDBRANCH   1  13
BRANCH   2  21
ATOM     21  C   UNL     1       2.046  -6.755   2.762  0.00  0.00    +0.215 C 
BRANCH  21  22
ATOM     22  O   UNL     1       1.527  -6.626   4.087  0.00  0.00    -0.389 OA
ATOM     23  H   UNL     1       2.180  -6.333   4.738  0.00  0.00    +0.210 HD
ENDBRANCH  21  22
ENDBRANCH   2  21
TORSDOF 4
