REMARK  Name = ZINC20709513
REMARK  6 active torsions:
REMARK  status: ('A' for Active; 'I' for Inactive)
REMARK    1  A    between atoms: C_4  and  C_7
REMARK    2  A    between atoms: C_7  and  N_8
REMARK    3  A    between atoms: C_9  and  C_11
REMARK    4  A    between atoms: C_18  and  C_27
REMARK    5  A    between atoms: C_29  and  N_34
REMARK    6  A    between atoms: C_32  and  O_33
REMARK                            x       y       z     vdW  Elec       q    Type
REMARK                         _______ _______ _______ _____ _____    ______ ____
ROOT
ATOM      1  C   UNL     1       2.384   1.401  -0.005  0.00  0.00    +0.058 A 
ATOM      2  C   UNL     1       1.169   2.083   0.002  0.00  0.00    +0.015 A 
ATOM      3  C   UNL     1      -0.017   1.381   0.010  0.00  0.00    +0.001 A 
ATOM      4  C   UNL     1       0.002  -0.004   0.002  0.00  0.00    +0.006 A 
ATOM      5  C   UNL     1       1.194  -0.694  -0.014  0.00  0.00    -0.019 A 
ATOM      6  C   UNL     1       2.412  -0.009  -0.006  0.00  0.00    +0.044 A 
ATOM      7  N   UNL     1       3.652  -0.625   0.023  0.00  0.00    -0.336 N 
ATOM      8  C   UNL     1       3.668  -2.093  -0.081  0.00  0.00    +0.108 C 
ATOM      9  C   UNL     1       2.504  -2.610   0.738  0.00  0.00    +0.029 C 
ATOM     10  C   UNL     1       1.236  -2.172  -0.061  0.00  0.00    +0.049 C 
ATOM     11  C   UNL     1       0.173  -3.054   0.504  0.00  0.00    -0.023 C 
ATOM     12  C   UNL     1       0.731  -4.170   0.962  0.00  0.00    -0.030 C 
ATOM     13  C   UNL     1       2.246  -4.121   0.748  0.00  0.00    +0.033 C 
ATOM     14  H   UNL     1       4.597  -0.070   0.118  0.00  0.00    +0.147 HD
ENDROOT
BRANCH   8  15
ATOM     15  C   UNL     1       4.963  -2.632   0.470  0.00  0.00    +0.017 A 
ATOM     16  C   UNL     1       5.675  -1.902   1.402  0.00  0.00    +0.041 A 
ATOM     17  C   UNL     1       6.860  -2.399   1.913  0.00  0.00    +0.127 A 
ATOM     18  C   UNL     1       7.342  -3.622   1.483  0.00  0.00    +0.036 A 
ATOM     19  C   UNL     1       6.636  -4.353   0.547  0.00  0.00    +0.048 A 
ATOM     20  C   UNL     1       5.444  -3.859   0.038  0.00  0.00    +0.122 A 
BRANCH  17  21
ATOM     21  N   UNL     1       7.618  -1.618   2.916  0.00  0.00    +0.056 N 
ATOM     22  O   UNL     1       8.664  -2.053   3.362  0.00  0.00    -0.126 OA
ATOM     23  O   UNL     1       7.195  -0.540   3.295  0.00  0.00    -0.126 OA
ENDBRANCH  17  21
BRANCH  20  24
ATOM     24  O   UNL     1       4.748  -4.577  -0.883  0.00  0.00    -0.506 OA
ATOM     25  H   UNL     1       5.130  -5.550  -1.225  0.00  0.00    +0.292 HD
ENDBRANCH  20  24
ENDBRANCH   8  15
BRANCH   1  27
ATOM     26  N   UNL     1       3.627   3.507  -0.012  0.00  0.00    -0.307 N 
ATOM     27  C   UNL     1       3.649   2.159  -0.012  0.00  0.00    +0.246 C 
ATOM     28  O   UNL     1       4.712   1.568  -0.018  0.00  0.00    -0.270 OA
ATOM     29  H   UNL     1       2.665   4.041  -0.006  0.00  0.00    +0.149 HD
BRANCH  26  30
ATOM     30  C   UNL     1       4.883   4.260  -0.019  0.00  0.00    +0.139 C 
BRANCH  30  34
ATOM     31  C   UNL     1       4.035   8.446  -0.013  0.00  0.00    +0.000 A 
ATOM     32  C   UNL     1       4.179   7.769   1.183  0.00  0.00    +0.000 A 
ATOM     33  C   UNL     1       4.453   6.414   1.182  0.00  0.00    +0.005 A 
ATOM     34  C   UNL     1       4.584   5.737  -0.017  0.00  0.00    -0.030 A 
ATOM     35  C   UNL     1       4.445   6.415  -1.213  0.00  0.00    +0.005 A 
ATOM     36  C   UNL     1       4.166   7.769  -1.211  0.00  0.00    +0.000 A 
ENDBRANCH  30  34
ENDBRANCH  26  30
ENDBRANCH   1  27
TORSDOF 6
