REMARK  Name = ZINC05313258
REMARK  4 active torsions:
REMARK  status: ('A' for Active; 'I' for Inactive)
REMARK    1  A    between atoms: C_7  and  C_13
REMARK    2  A    between atoms: C_13  and  N_14
REMARK    3  A    between atoms: C_15  and  C_17
REMARK    4  A    between atoms: C_18  and  C_19
REMARK                            x       y       z     vdW  Elec       q    Type
REMARK                         _______ _______ _______ _____ _____    ______ ____
ROOT
ATOM      1  N   UNL     1      -0.721   1.571  -1.179  0.00  0.00    -0.306 N 
ATOM      2  C   UNL     1      -0.268   1.258  -2.409  0.00  0.00    +0.237 C 
ATOM      3  O   UNL     1       0.730   0.573  -2.534  0.00  0.00    -0.271 OA
ATOM      4  H   UNL     1      -1.516   2.118  -1.079  0.00  0.00    +0.149 HD
ENDROOT
BRANCH   2   5
ATOM      5  C   UNL     1      -0.976   1.743  -3.594  0.00  0.00    +0.068 C 
ATOM      6  C   UNL     1      -0.522   1.430  -4.826  0.00  0.00    +0.013 C 
BRANCH   6   7
ATOM      7  C   UNL     1      -1.233   1.917  -6.017  0.00  0.00    -0.021 A 
ATOM      8  C   UNL     1      -2.380   2.705  -5.876  0.00  0.00    +0.012 A 
ATOM      9  C   UNL     1      -3.044   3.160  -6.994  0.00  0.00    +0.050 A 
ATOM     10  C   UNL     1      -2.579   2.840  -8.262  0.00  0.00    +0.166 A 
ATOM     11  C   UNL     1      -1.435   2.054  -8.411  0.00  0.00    +0.167 A 
ATOM     12  C   UNL     1      -0.761   1.598  -7.295  0.00  0.00    +0.057 A 
ATOM     13  O   UNL     1      -1.193   1.885  -9.744  0.00  0.00    -0.453 OA
ATOM     14  C   UNL     1      -1.957   2.911 -10.405  0.00  0.00    +0.466 C 
ATOM     15  O   UNL     1      -3.049   3.161  -9.502  0.00  0.00    -0.453 OA
ENDBRANCH   6   7
ENDBRANCH   2   5
BRANCH   1  16
ATOM     16  C   UNL     1      -0.013   1.086   0.008  0.00  0.00    +0.162 C 
BRANCH  16  23
ATOM     17  C   UNL     1       1.387   0.130   3.984  0.00  0.00    +0.001 A 
ATOM     18  C   UNL     1       0.717   0.593   5.109  0.00  0.00    +0.001 A 
ATOM     19  C   UNL     1      -0.414   1.369   4.984  0.00  0.00    +0.014 A 
ATOM     20  C   UNL     1      -0.886   1.691   3.712  0.00  0.00    +0.050 A 
ATOM     21  C   UNL     1      -0.204   1.213   2.570  0.00  0.00    +0.012 A 
ATOM     22  C   UNL     1       0.943   0.432   2.728  0.00  0.00    +0.010 A 
ATOM     23  C   UNL     1      -0.718   1.572   1.248  0.00  0.00    +0.086 A 
ATOM     24  N   UNL     1      -1.786   2.305   1.143  0.00  0.00    -0.174 NA
ATOM     25  N   UNL     1      -2.483   2.785   2.252  0.00  0.00    -0.242 N 
ATOM     26  H   UNL     1      -3.299   3.345   2.109  0.00  0.00    +0.192 HD
ATOM     27  C   UNL     1      -2.085   2.514   3.512  0.00  0.00    +0.272 A 
ATOM     28  O   UNL     1      -2.709   2.944   4.466  0.00  0.00    -0.266 OA
ENDBRANCH  16  23
ENDBRANCH   1  16
TORSDOF 4
