REMARK  Name = ZINC33499385
REMARK  13 active torsions:
REMARK  status: ('A' for Active; 'I' for Inactive)
REMARK    1  A    between atoms: C_1  and  C_2
REMARK    2  A    between atoms: C_2  and  C_3
REMARK    3  A    between atoms: C_3  and  C_4
REMARK    4  A    between atoms: C_4  and  C_5
REMARK    5  A    between atoms: C_5  and  C_7
REMARK    6  A    between atoms: C_5  and  C_9
REMARK    7  A    between atoms: C_7  and  C_8
REMARK    8  A    between atoms: C_9  and  N_10
REMARK    9  A    between atoms: C_14  and  C_15
REMARK   10  A    between atoms: C_16  and  N_27
REMARK   11  A    between atoms: C_21  and  C_26
REMARK   12  A    between atoms: N_27  and  C_28
REMARK   13  A    between atoms: C_31  and  C_34
REMARK                            x       y       z     vdW  Elec       q    Type
REMARK                         _______ _______ _______ _____ _____    ______ ____
ROOT
ATOM      1  C   UNL     1      -0.961   3.405  -1.969  0.00  0.00    +0.081 A 
ATOM      2  C   UNL     1       0.140   2.960  -1.199  0.00  0.00    +0.134 A 
ATOM      3  N   UNL     1       0.502   3.642  -0.122  0.00  0.00    -0.214 NA
ATOM      4  C   UNL     1      -0.149   4.740   0.262  0.00  0.00    +0.142 A 
ATOM      5  C   UNL     1       0.281   5.422   1.415  0.00  0.00    +0.047 A 
ATOM      6  C   UNL     1      -0.379   6.546   1.816  0.00  0.00    +0.008 A 
ATOM      7  C   UNL     1      -1.477   7.005   1.076  0.00  0.00    -0.034 A 
ATOM      8  C   UNL     1      -1.876   6.336  -0.030  0.00  0.00    +0.099 A 
ATOM      9  N   UNL     1      -1.223   5.212  -0.440  0.00  0.00    -0.267 N 
ATOM     10  C   UNL     1      -1.648   4.568  -1.548  0.00  0.00    +0.267 A 
ATOM     11  O   UNL     1      -2.606   4.984  -2.178  0.00  0.00    -0.267 OA
ATOM     12  C   UNL     1      -2.213   8.245   1.512  0.00  0.00    +0.045 C 
ENDROOT
BRANCH   1  17
ATOM     13  N   UNL     1      -0.668   4.879  -5.989  0.00  0.00    -0.255 N 
ATOM     14  C   UNL     1      -0.671   4.536  -4.713  0.00  0.00    +0.258 C 
ATOM     15  O   UNL     1      -0.198   5.272  -3.865  0.00  0.00    -0.269 OA
ATOM     16  C   UNL     1      -1.242   3.281  -4.356  0.00  0.00    +0.077 C 
ATOM     17  C   UNL     1      -1.367   2.702  -3.127  0.00  0.00    +0.037 C 
ATOM     18  S   UNL     1      -1.744   2.668  -5.958  0.00  0.00    -0.061 S 
ATOM     19  C   UNL     1      -1.193   4.062  -6.929  0.00  0.00    +0.121 C 
ATOM     20  S   UNL     1      -1.295   4.300  -8.622  0.00  0.00    -0.027 S 
BRANCH  13  21
ATOM     21  C   UNL     1      -0.088   6.163  -6.390  0.00  0.00    +0.118 C 
BRANCH  21  22
ATOM     22  C   UNL     1       1.428   6.014  -6.538  0.00  0.00    +0.007 C 
BRANCH  22  23
ATOM     23  C   UNL     1       1.736   5.082  -7.712  0.00  0.00    +0.002 C 
ATOM     24  C   UNL     1       1.281   5.739  -9.017  0.00  0.00    +0.004 C 
ENDBRANCH  22  23
BRANCH  22  25
ATOM     25  C   UNL     1       2.052   7.386  -6.799  0.00  0.00    +0.005 C 
BRANCH  25  26
ATOM     26  C   UNL     1       3.577   7.261  -6.797  0.00  0.00    +0.000 C 
BRANCH  26  28
ATOM     27  C   UNL     1       5.728   8.526  -6.927  0.00  0.00    +0.004 C 
ATOM     28  C   UNL     1       4.203   8.651  -6.929  0.00  0.00    -0.003 C 
ENDBRANCH  26  28
ENDBRANCH  25  26
ENDBRANCH  22  25
ENDBRANCH  21  22
ENDBRANCH  13  21
ENDBRANCH   1  17
BRANCH   2  29
ATOM     29  N   UNL     1       0.833   1.829  -1.569  0.00  0.00    -0.326 N 
ATOM     30  H   UNL     1       0.529   1.265  -2.464  0.00  0.00    +0.148 HD
BRANCH  29  31
ATOM     31  C   UNL     1       1.975   1.375  -0.772  0.00  0.00    +0.072 C 
ATOM     32  C   UNL     1       3.236   2.117  -1.219  0.00  0.00    +0.022 C 
ATOM     33  C   UNL     1       3.501   1.828  -2.698  0.00  0.00    +0.005 C 
ATOM     34  C   UNL     1       3.696   0.323  -2.897  0.00  0.00    -0.014 C 
ATOM     35  C   UNL     1       2.435  -0.418  -2.449  0.00  0.00    +0.005 C 
ATOM     36  C   UNL     1       2.171  -0.129  -0.970  0.00  0.00    +0.022 C 
ATOM     37  C   UNL     1       3.960   0.034  -4.375  0.00  0.00    +0.007 C 
ENDBRANCH  29  31
ENDBRANCH   2  29
TORSDOF 9
