REMARK  Name = ZINC12522299
REMARK  5 active torsions:
REMARK  status: ('A' for Active; 'I' for Inactive)
REMARK    1  A    between atoms: C_3  and  N_30
REMARK    2  A    between atoms: C_4  and  N_27
REMARK    3  A    between atoms: C_6  and  C_7
REMARK    4  A    between atoms: C_12  and  C_15
REMARK    5  A    between atoms: C_15  and  C_17
REMARK                            x       y       z     vdW  Elec       q    Type
REMARK                         _______ _______ _______ _____ _____    ______ ____
ROOT
ATOM      1  C   UNL     1      -8.873   0.034   1.350  0.00  0.00    +0.247 C 
ATOM      2  O   UNL     1      -9.165   0.941   2.104  0.00  0.00    -0.270 OA
ATOM      3  N   UNL     1      -7.586  -0.342   1.214  0.00  0.00    -0.297 N 
ATOM      4  C   UNL     1      -7.229  -1.514   0.402  0.00  0.00    +0.109 C 
ATOM      5  C   UNL     1      -6.378  -2.463   1.252  0.00  0.00    +0.030 C 
ATOM      6  C   UNL     1      -5.178  -1.699   1.815  0.00  0.00    +0.063 C 
ATOM      7  C   UNL     1      -5.670  -0.559   2.709  0.00  0.00    +0.030 C 
ATOM      8  C   UNL     1      -6.512   0.412   1.876  0.00  0.00    +0.109 C 
ENDROOT
BRANCH   1  14
ATOM      9  C   UNL     1      -9.669  -1.103  -0.717  0.00  0.00    +0.015 A 
ATOM     10  C   UNL     1     -10.653  -1.752  -1.427  0.00  0.00    +0.026 A 
ATOM     11  C   UNL     1     -11.908  -1.952  -0.859  0.00  0.00    +0.060 A 
ATOM     12  C   UNL     1     -12.170  -1.502   0.433  0.00  0.00    +0.148 A 
ATOM     13  C   UNL     1     -11.189  -0.859   1.151  0.00  0.00    +0.047 A 
ATOM     14  C   UNL     1      -9.927  -0.656   0.582  0.00  0.00    +0.039 A 
BRANCH  11  15
ATOM     15  N   UNL     1     -12.902  -2.603  -1.582  0.00  0.00    -0.324 N 
ATOM     16  C   UNL     1     -12.518  -3.991  -1.873  0.00  0.00    +0.133 C 
ATOM     17  C   UNL     1     -13.662  -4.686  -2.616  0.00  0.00    +0.178 C 
ATOM     18  O   UNL     1     -13.970  -3.950  -3.803  0.00  0.00    -0.377 OA
ATOM     19  C   UNL     1     -14.349  -2.593  -3.556  0.00  0.00    +0.178 C 
ATOM     20  C   UNL     1     -13.211  -1.877  -2.822  0.00  0.00    +0.133 C 
ENDBRANCH  11  15
BRANCH  12  21
ATOM     21  N   UNL     1     -13.505  -1.717   1.034  0.00  0.00    +0.058 N 
ATOM     22  O   UNL     1     -13.735  -1.324   2.163  0.00  0.00    -0.126 OA
ATOM     23  O   UNL     1     -14.375  -2.287   0.399  0.00  0.00    -0.126 OA
ENDBRANCH  12  21
ENDBRANCH   1  14
BRANCH   6  24
ATOM     24  C   UNL     1      -4.320  -2.637   2.624  0.00  0.00    +0.166 C 
ATOM     25  O   UNL     1      -4.809  -3.628   3.123  0.00  0.00    -0.292 OA
BRANCH  24  26
ATOM     26  C   UNL     1      -2.891  -2.352   2.807  0.00  0.00    +0.021 A 
ATOM     27  C   UNL     1      -2.323  -1.209   2.232  0.00  0.00    +0.015 A 
ATOM     28  C   UNL     1      -0.982  -0.949   2.402  0.00  0.00    +0.050 A 
ATOM     29  C   UNL     1      -0.189  -1.812   3.150  0.00  0.00    +0.162 A 
ATOM     30  C   UNL     1      -0.747  -2.950   3.728  0.00  0.00    +0.163 A 
ATOM     31  C   UNL     1      -2.091  -3.222   3.558  0.00  0.00    +0.060 A 
ATOM     32  O   UNL     1       0.017  -3.804   4.463  0.00  0.00    -0.485 OA
ATOM     33  C   UNL     1       1.435  -3.700   4.301  0.00  0.00    +0.270 C 
ATOM     34  C   UNL     1       1.817  -2.214   4.360  0.00  0.00    +0.270 C 
ATOM     35  O   UNL     1       1.133  -1.533   3.304  0.00  0.00    -0.485 OA
ENDBRANCH  24  26
ENDBRANCH   6  24
TORSDOF 5
