REMARK  Name = ZINC20816420
REMARK  11 active torsions:
REMARK  status: ('A' for Active; 'I' for Inactive)
REMARK    1  A    between atoms: C_1  and  C_2
REMARK    2  A    between atoms: C_2  and  C_3
REMARK    3  A    between atoms: C_3  and  C_4
REMARK    4  A    between atoms: C_4  and  N_5
REMARK    5  A    between atoms: N_8  and  C_11
REMARK    6  A    between atoms: C_11  and  C_12
REMARK    7  A    between atoms: C_12  and  N_13
REMARK    8  A    between atoms: C_14  and  C_30
REMARK    9  A    between atoms: C_15  and  C_29
REMARK   10  A    between atoms: N_23  and  C_28
REMARK   11  A    between atoms: N_26  and  C_27
REMARK                            x       y       z     vdW  Elec       q    Type
REMARK                         _______ _______ _______ _____ _____    ______ ____
ROOT
ATOM      1  N   UNL     1       1.291   1.774  -0.001  0.00  0.00    -0.312 N 
ATOM      2  C   UNL     1      -0.016   1.326   0.009  0.00  0.00    +0.038 A 
ATOM      3  C   UNL     1       0.002  -0.004   0.002  0.00  0.00    +0.043 A 
ATOM      4  N   UNL     1       1.321  -0.421  -0.013  0.00  0.00    -0.275 N 
ATOM      5  C   UNL     1       2.111   0.677  -0.015  0.00  0.00    +0.218 A 
ATOM      6  N   UNL     1       3.382   0.303  -0.029  0.00  0.00    -0.193 NA
ATOM      7  C   UNL     1       3.463  -1.025  -0.036  0.00  0.00    +0.170 A 
ATOM      8  C   UNL     1       2.162  -1.525  -0.027  0.00  0.00    +0.157 A 
ATOM      9  C   UNL     1       1.962  -2.915  -0.032  0.00  0.00    +0.283 A 
ATOM     10  O   UNL     1       0.833  -3.374  -0.024  0.00  0.00    -0.265 OA
ATOM     11  N   UNL     1       3.032  -3.736  -0.047  0.00  0.00    -0.262 N 
ATOM     12  C   UNL     1       4.283  -3.246  -0.057  0.00  0.00    +0.333 A 
ATOM     13  O   UNL     1       5.223  -4.018  -0.070  0.00  0.00    -0.246 OA
ATOM     14  N   UNL     1       4.522  -1.921  -0.052  0.00  0.00    -0.280 N 
ATOM     15  C   UNL     1       5.901  -1.425  -0.063  0.00  0.00    +0.155 C 
ATOM     16  C   UNL     1       2.826  -5.187  -0.053  0.00  0.00    +0.157 C 
ATOM     17  C   UNL     1      -1.208  -0.903   0.009  0.00  0.00    +0.066 C 
ATOM     18  C   UNL     1      -1.248   2.193   0.020  0.00  0.00    +0.065 C 
ENDROOT
BRANCH   1  19
ATOM     19  C   UNL     1       1.722   3.174   0.002  0.00  0.00    +0.140 C 
BRANCH  19  20
ATOM     20  C   UNL     1       1.886   3.655   1.446  0.00  0.00    +0.106 C 
BRANCH  20  24
ATOM     21  N   UNL     1       3.990   7.243   2.185  0.00  0.00    +0.381 N 
ATOM     22  C   UNL     1       2.640   7.106   2.751  0.00  0.00    -0.063 C 
ATOM     23  C   UNL     1       2.259   5.625   2.803  0.00  0.00    +0.066 C 
ATOM     24  N   UNL     1       2.319   5.058   1.449  0.00  0.00    -0.304 NA
ATOM     25  C   UNL     1       3.668   5.195   0.883  0.00  0.00    +0.066 C 
ATOM     26  C   UNL     1       4.049   6.676   0.831  0.00  0.00    -0.063 C 
ATOM     27  H   UNL     1       4.684   6.675   2.822  0.00  0.00    -0.082 HD
BRANCH  21  28
ATOM     28  C   UNL     1       4.422   8.647   2.188  0.00  0.00    -0.079 C 
BRANCH  28  29
ATOM     29  C   UNL     1       5.908   8.723   1.831  0.00  0.00    -0.019 C 
BRANCH  29  31
ATOM     30  C   UNL     1       7.844  10.262   1.476  0.00  0.00    +0.004 C 
ATOM     31  C   UNL     1       6.359  10.185   1.834  0.00  0.00    -0.005 C 
ENDBRANCH  29  31
ENDBRANCH  28  29
ENDBRANCH  21  28
ENDBRANCH  20  24
ENDBRANCH  19  20
ENDBRANCH   1  19
TORSDOF 6
