REMARK  Name = ZINC06446563
REMARK  9 active torsions:
REMARK  status: ('A' for Active; 'I' for Inactive)
REMARK    1  A    between atoms: C_4  and  C_7
REMARK    2  A    between atoms: C_7  and  N_8
REMARK    3  A    between atoms: N_8  and  C_9
REMARK    4  A    between atoms: C_9  and  N_11
REMARK    5  A    between atoms: N_11  and  C_12
REMARK    6  A    between atoms: N_11  and  C_19
REMARK    7  A    between atoms: C_12  and  C_13
REMARK    8  A    between atoms: C_13  and  N_62
REMARK    9  A    between atoms: C_19  and  C_20
REMARK                            x       y       z     vdW  Elec       q    Type
REMARK                         _______ _______ _______ _____ _____    ______ ____
ROOT
ATOM      1  N   UNL     1      -5.458   0.908   1.435  0.00  0.00    -0.310 N 
ENDROOT
BRANCH   1   2
ATOM      2  C   UNL     1      -5.123  -0.177   2.160  0.00  0.00    +0.133 C 
ATOM      3  S   UNL     1      -4.146  -1.401   1.469  0.00  0.00    -0.019 S 
BRANCH   2   4
ATOM      4  N   UNL     1      -5.559  -0.300   3.430  0.00  0.00    -0.322 N 
ATOM      5  H   UNL     1      -6.113   0.393   3.822  0.00  0.00    +0.148 HD
BRANCH   4   6
ATOM      6  C   UNL     1      -5.195  -1.481   4.218  0.00  0.00    +0.138 C 
BRANCH   6  10
ATOM      7  C   UNL     1      -6.921  -1.179   8.114  0.00  0.00    +0.000 A 
ATOM      8  C   UNL     1      -7.623  -1.791   7.093  0.00  0.00    +0.000 A 
ATOM      9  C   UNL     1      -7.065  -1.889   5.832  0.00  0.00    +0.005 A 
ATOM     10  C   UNL     1      -5.804  -1.374   5.593  0.00  0.00    -0.030 A 
ATOM     11  C   UNL     1      -5.100  -0.767   6.615  0.00  0.00    +0.005 A 
ATOM     12  C   UNL     1      -5.660  -0.665   7.875  0.00  0.00    +0.000 A 
ENDBRANCH   6  10
ENDBRANCH   4   6
ENDBRANCH   2   4
ENDBRANCH   1   2
BRANCH   1  13
ATOM     13  C   UNL     1      -6.295   1.955   2.028  0.00  0.00    +0.088 C 
BRANCH  13  14
ATOM     14  C   UNL     1      -7.768   1.641   1.763  0.00  0.00    -0.059 C 
BRANCH  14  20
ATOM     15  C   UNL     1      -8.511   2.675   3.823  0.00  0.00    -0.050 C 
ATOM     16  C   UNL     1      -9.352   3.819   4.396  0.00  0.00    +0.141 C 
ATOM     17  O   UNL     1     -10.701   3.688   3.941  0.00  0.00    -0.383 OA
ATOM     18  C   UNL     1     -10.831   3.700   2.516  0.00  0.00    +0.141 C 
ATOM     19  C   UNL     1     -10.006   2.554   1.924  0.00  0.00    -0.050 C 
ATOM     20  N   UNL     1      -8.599   2.715   2.348  0.00  0.00    +0.384 N 
ATOM     21  H   UNL     1      -8.252   3.623   2.017  0.00  0.00    -0.082 HD
ENDBRANCH  14  20
ENDBRANCH  13  14
ENDBRANCH   1  13
BRANCH   1  22
ATOM     22  C   UNL     1      -4.985   1.042   0.056  0.00  0.00    +0.147 C 
BRANCH  22  23
ATOM     23  C   UNL     1      -3.658   1.756   0.046  0.00  0.00    +0.035 A 
ATOM     24  C   UNL     1      -2.505   1.040   0.031  0.00  0.00    +0.020 A 
ATOM     25  C   UNL     1      -1.233   1.762   0.018  0.00  0.00    +0.003 A 
ATOM     26  C   UNL     1      -0.013   1.076   0.008  0.00  0.00    +0.059 A 
ATOM     27  C   UNL     1       1.169   1.783   0.001  0.00  0.00    +0.167 A 
ATOM     28  C   UNL     1       1.153   3.184   0.007  0.00  0.00    +0.168 A 
ATOM     29  C   UNL     1      -0.048   3.870   0.022  0.00  0.00    +0.075 A 
ATOM     30  C   UNL     1      -1.248   3.171   0.030  0.00  0.00    +0.053 A 
ATOM     31  N   UNL     1      -2.456   3.839   0.046  0.00  0.00    -0.322 N 
ATOM     32  H   UNL     1      -2.465   4.809   0.051  0.00  0.00    +0.169 HD
ATOM     33  C   UNL     1      -3.619   3.165   0.054  0.00  0.00    +0.254 A 
ATOM     34  O   UNL     1      -4.667   3.788   0.069  0.00  0.00    -0.268 OA
ATOM     35  O   UNL     1       2.442   3.631  -0.003  0.00  0.00    -0.453 OA
ATOM     36  C   UNL     1       3.244   2.506   0.399  0.00  0.00    +0.466 C 
ATOM     37  O   UNL     1       2.469   1.365  -0.013  0.00  0.00    -0.453 OA
ENDBRANCH  22  23
ENDBRANCH   1  22
TORSDOF 9
