REMARK  Name = ZINC39711105
REMARK  14 active torsions:
REMARK  status: ('A' for Active; 'I' for Inactive)
REMARK    1  A    between atoms: C_1  and  C_2
REMARK    2  A    between atoms: C_2  and  C_3
REMARK    3  A    between atoms: C_3  and  C_4
REMARK    4  A    between atoms: C_3  and  C_5
REMARK    5  A    between atoms: C_3  and  N_6
REMARK    6  A    between atoms: C_7  and  C_12
REMARK    7  A    between atoms: C_12  and  C_14
REMARK    8  A    between atoms: C_12  and  N_28
REMARK    9  A    between atoms: C_18  and  C_27
REMARK   10  A    between atoms: C_21  and  C_26
REMARK   11  A    between atoms: N_28  and  C_29
REMARK   12  A    between atoms: N_28  and  C_36
REMARK   13  A    between atoms: C_29  and  C_30
REMARK   14  A    between atoms: C_36  and  C_37
REMARK                            x       y       z     vdW  Elec       q    Type
REMARK                         _______ _______ _______ _____ _____    ______ ____
ROOT
ATOM      1  C   UNL     1       3.152  -4.272   3.240  0.00  0.00    -0.010 C 
ENDROOT
BRANCH   1   2
ATOM      2  C   UNL     1       3.944  -4.570   1.966  0.00  0.00    +0.088 C 
ATOM      3  C   UNL     1       4.413  -3.248   1.390  0.00  0.00    -0.006 C 
ATOM      4  C   UNL     1       4.027  -2.949   0.117  0.00  0.00    -0.004 A 
ATOM      5  C   UNL     1       4.435  -1.694  -0.516  0.00  0.00    -0.042 A 
ATOM      6  C   UNL     1       4.027  -1.438  -1.786  0.00  0.00    +0.004 A 
ATOM      7  C   UNL     1       3.232  -2.344  -2.490  0.00  0.00    +0.005 A 
ATOM      8  C   UNL     1       2.820  -3.524  -1.959  0.00  0.00    -0.029 A 
ATOM      9  C   UNL     1       3.189  -3.886  -0.650  0.00  0.00    +0.043 A 
ATOM     10  N   UNL     1       2.779  -5.048  -0.140  0.00  0.00    -0.284 N 
ATOM     11  C   UNL     1       3.087  -5.447   1.082  0.00  0.00    +0.223 C 
ATOM     12  O   UNL     1       2.682  -6.519   1.493  0.00  0.00    -0.275 OA
ATOM     13  C   UNL     1       1.962  -4.453  -2.779  0.00  0.00    +0.045 C 
ATOM     14  C   UNL     1       5.293  -0.703   0.228  0.00  0.00    +0.044 C 
ATOM     15  H   UNL     1       2.229  -5.626  -0.691  0.00  0.00    +0.155 HD
ENDBRANCH   1   2
BRANCH   1  17
ATOM     16  N   UNL     1       1.629  -2.632   2.188  0.00  0.00    -0.211 N 
ATOM     17  C   UNL     1       1.705  -3.935   2.875  0.00  0.00    +0.183 C 
ATOM     18  N   UNL     1       1.187  -4.872   1.860  0.00  0.00    -0.229 N 
ATOM     19  N   UNL     1       0.874  -4.090   0.741  0.00  0.00    -0.064 NA
ATOM     20  N   UNL     1       1.105  -2.897   0.918  0.00  0.00    -0.061 NA
ATOM     21  H   UNL     1       1.085  -5.833   1.948  0.00  0.00    +0.172 HD
BRANCH  16  22
ATOM     22  C   UNL     1       2.018  -1.326   2.728  0.00  0.00    +0.050 C 
ATOM     23  C   UNL     1       3.484  -1.370   3.163  0.00  0.00    +0.033 C 
ATOM     24  C   UNL     1       1.137  -0.990   3.933  0.00  0.00    +0.033 C 
BRANCH  22  26
ATOM     25  C   UNL     1       2.161   1.120   2.238  0.00  0.00    +0.006 C 
ATOM     26  C   UNL     1       1.838  -0.255   1.650  0.00  0.00    +0.023 C 
ENDBRANCH  22  26
ENDBRANCH  16  22
ENDBRANCH   1  17
BRANCH   1  27
ATOM     27  N   UNL     1       3.174  -5.450   4.117  0.00  0.00    +0.392 N 
ATOM     28  H   UNL     1       2.813  -6.248   3.617  0.00  0.00    -0.080 HD
BRANCH  27  29
ATOM     29  C   UNL     1       2.341  -5.196   5.300  0.00  0.00    -0.040 C 
BRANCH  29  30
ATOM     30  C   UNL     1       2.865  -3.988   6.034  0.00  0.00    -0.046 A 
ATOM     31  C   UNL     1       4.123  -4.013   6.617  0.00  0.00    +0.005 A 
ATOM     32  C   UNL     1       4.565  -2.879   7.281  0.00  0.00    +0.020 A 
ATOM     33  C   UNL     1       3.742  -1.770   7.341  0.00  0.00    +0.111 A 
ATOM     34  N   UNL     1       2.551  -1.783   6.776  0.00  0.00    -0.263 NA
ATOM     35  C   UNL     1       2.101  -2.841   6.130  0.00  0.00    +0.112 A 
ENDBRANCH  29  30
ENDBRANCH  27  29
BRANCH  27  36
ATOM     36  C   UNL     1       4.554  -5.720   4.540  0.00  0.00    -0.002 C 
BRANCH  36  37
ATOM     37  C   UNL     1       4.573  -6.909   5.466  0.00  0.00    +0.089 A 
ATOM     38  C   UNL     1       4.626  -8.199   5.089  0.00  0.00    +0.042 A 
ATOM     39  C   UNL     1       4.624  -8.972   6.273  0.00  0.00    +0.041 A 
ATOM     40  C   UNL     1       4.570  -8.108   7.302  0.00  0.00    +0.195 A 
ATOM     41  O   UNL     1       4.545  -6.860   6.808  0.00  0.00    -0.470 OA
ENDBRANCH  36  37
ENDBRANCH  27  36
ENDBRANCH   1  27
TORSDOF 9
