REMARK  Name = ZINC33306429
REMARK  10 active torsions:
REMARK  status: ('A' for Active; 'I' for Inactive)
REMARK    1  A    between atoms: C_1  and  C_2
REMARK    2  A    between atoms: C_5  and  C_29
REMARK    3  A    between atoms: C_6  and  N_8
REMARK    4  A    between atoms: N_8  and  S_9
REMARK    5  A    between atoms: S_9  and  C_12
REMARK    6  A    between atoms: C_15  and  C_17
REMARK    7  A    between atoms: C_18  and  C_19
REMARK    8  A    between atoms: C_20  and  N_25
REMARK    9  A    between atoms: C_21  and  C_24
REMARK   10  A    between atoms: C_26  and  C_28
REMARK                            x       y       z     vdW  Elec       q    Type
REMARK                         _______ _______ _______ _____ _____    ______ ____
ROOT
ATOM      1  C   UNL     1       1.014   1.064   2.619  0.00  0.00    +0.146 A 
ATOM      2  C   UNL     1       1.280   0.123   3.563  0.00  0.00    +0.037 A 
ATOM      3  C   UNL     1       1.374   0.500   4.881  0.00  0.00    +0.017 A 
ATOM      4  C   UNL     1       1.179   1.835   5.199  0.00  0.00    +0.014 A 
ATOM      5  S   UNL     1       0.870   2.552   3.594  0.00  0.00    -0.069 S 
ENDROOT
BRANCH   1   6
ATOM      6  S   UNL     1       0.847   0.865   0.876  0.00  0.00    +0.079 S 
ATOM      7  O   UNL     1       1.572  -0.308   0.530  0.00  0.00    -0.149 OA
ATOM      8  O   UNL     1       1.124   2.131   0.294  0.00  0.00    -0.149 OA
BRANCH   6   9
ATOM      9  N   UNL     1      -0.748   0.542   0.571  0.00  0.00    -0.216 N 
ATOM     10  H   UNL     1      -1.035  -0.399   0.078  0.00  0.00    +0.174 HD
BRANCH   9  16
ATOM     11  C   UNL     1      -2.168   5.213   1.128  0.00  0.00    +0.044 C 
ATOM     12  C   UNL     1      -2.446   3.735   1.220  0.00  0.00    -0.049 A 
ATOM     13  C   UNL     1      -3.676   3.291   1.671  0.00  0.00    +0.004 A 
ATOM     14  C   UNL     1      -3.937   1.935   1.752  0.00  0.00    +0.005 A 
ATOM     15  C   UNL     1      -2.966   1.020   1.393  0.00  0.00    -0.028 A 
ATOM     16  C   UNL     1      -1.730   1.464   0.940  0.00  0.00    +0.051 A 
ATOM     17  C   UNL     1      -1.473   2.826   0.855  0.00  0.00    +0.028 A 
ATOM     18  C   UNL     1      -3.250  -0.457   1.486  0.00  0.00    +0.046 C 
ENDBRANCH   9  16
ENDBRANCH   6   9
ENDBRANCH   1   6
BRANCH   4  19
ATOM     19  C   UNL     1       1.218   2.486   6.509  0.00  0.00    +0.019 C 
ATOM     20  C   UNL     1       0.998   3.818   6.609  0.00  0.00    +0.052 C 
BRANCH  20  21
ATOM     21  C   UNL     1       1.036   4.468   7.916  0.00  0.00    +0.182 A 
ATOM     22  C   UNL     1       0.833   5.813   8.169  0.00  0.00    +0.103 A 
ATOM     23  C   UNL     1       0.958   6.009   9.555  0.00  0.00    +0.102 A 
ATOM     24  N   UNL     1       1.222   4.859  10.111  0.00  0.00    -0.081 NA
ATOM     25  O   UNL     1       1.271   3.868   9.102  0.00  0.00    -0.353 OA
ATOM     26  C   UNL     1       0.814   7.324  10.276  0.00  0.00    +0.071 C 
BRANCH  22  27
ATOM     27  N   UNL     1       0.550   6.802   7.215  0.00  0.00    -0.281 N 
ATOM     28  C   UNL     1      -0.204   7.867   7.551  0.00  0.00    +0.214 C 
ATOM     29  O   UNL     1      -0.712   7.927   8.652  0.00  0.00    -0.276 OA
ATOM     30  C   UNL     1      -0.417   8.982   6.561  0.00  0.00    +0.109 C 
ATOM     31  H   UNL     1       0.945   6.708   6.193  0.00  0.00    +0.155 HD
ENDBRANCH  22  27
ENDBRANCH  20  21
ENDBRANCH   4  19
TORSDOF 6
