REMARK  Name = ZINC13064945
REMARK  12 active torsions:
REMARK  status: ('A' for Active; 'I' for Inactive)
REMARK    1  A    between atoms: C_1  and  C_2
REMARK    2  A    between atoms: C_2  and  C_3
REMARK    3  A    between atoms: C_3  and  C_5
REMARK    4  A    between atoms: C_3  and  N_69
REMARK    5  A    between atoms: N_9  and  C_10
REMARK    6  A    between atoms: C_10  and  C_11
REMARK    7  A    between atoms: C_18  and  C_19
REMARK    8  A    between atoms: C_18  and  N_69
REMARK    9  A    between atoms: C_26  and  C_27
REMARK   10  A    between atoms: C_26  and  N_69
REMARK   11  A    between atoms: C_30  and  C_40
REMARK   12  A    between atoms: C_32  and  C_39
REMARK                            x       y       z     vdW  Elec       q    Type
REMARK                         _______ _______ _______ _____ _____    ______ ____
ROOT
ATOM      1  N   UNL     1       0.862   4.145  -1.168  0.00  0.00    +0.392 N 
ATOM      2  H   UNL     1      -0.044   4.577  -0.949  0.00  0.00    -0.080 HD
ENDROOT
BRANCH   1   3
ATOM      3  C   UNL     1       1.107   3.038  -0.219  0.00  0.00    +0.003 C 
BRANCH   3   4
ATOM      4  C   UNL     1       0.137   1.921  -0.504  0.00  0.00    +0.138 A 
ATOM      5  N   UNL     1      -1.145   2.041  -0.749  0.00  0.00    -0.115 NA
ATOM      6  N   UNL     1      -1.626   0.862  -0.943  0.00  0.00    -0.023 NA
ATOM      7  N   UNL     1      -0.684  -0.008  -0.828  0.00  0.00    -0.044 NA
ATOM      8  N   UNL     1       0.418   0.606  -0.558  0.00  0.00    -0.226 N 
BRANCH   8   9
ATOM      9  C   UNL     1       1.730  -0.012  -0.349  0.00  0.00    +0.182 C 
BRANCH   9  10
ATOM     10  C   UNL     1       2.456  -0.108  -1.666  0.00  0.00    -0.026 A 
ATOM     11  C   UNL     1       2.313  -1.236  -2.453  0.00  0.00    +0.008 A 
ATOM     12  C   UNL     1       2.974  -1.323  -3.663  0.00  0.00    +0.038 A 
ATOM     13  C   UNL     1       3.788  -0.285  -4.083  0.00  0.00    +0.123 A 
ATOM     14  C   UNL     1       3.934   0.842  -3.292  0.00  0.00    +0.038 A 
ATOM     15  C   UNL     1       3.268   0.929  -2.085  0.00  0.00    +0.008 A 
ATOM     16  F   UNL     1       4.438  -0.371  -5.264  0.00  0.00    -0.205 F 
ENDBRANCH   9  10
ENDBRANCH   8   9
ENDBRANCH   3   4
BRANCH   3  18
ATOM     17  C   UNL     1       1.247   2.451   2.205  0.00  0.00    +0.002 C 
ATOM     18  C   UNL     1       0.888   3.552   1.205  0.00  0.00    -0.011 C 
ENDBRANCH   3  18
ENDBRANCH   1   3
BRANCH   1  19
ATOM     19  C   UNL     1       0.825   3.626  -2.551  0.00  0.00    -0.042 C 
BRANCH  19  20
ATOM     20  C   UNL     1       0.153   4.647  -3.432  0.00  0.00    -0.064 A 
ATOM     21  C   UNL     1      -1.227   4.697  -3.503  0.00  0.00    +0.004 A 
ATOM     22  C   UNL     1      -1.845   5.636  -4.307  0.00  0.00    +0.038 A 
ATOM     23  C   UNL     1      -1.081   6.520  -5.050  0.00  0.00    +0.123 A 
ATOM     24  C   UNL     1       0.301   6.465  -4.983  0.00  0.00    +0.038 A 
ATOM     25  C   UNL     1       0.916   5.529  -4.174  0.00  0.00    +0.004 A 
ATOM     26  F   UNL     1      -1.683   7.435  -5.840  0.00  0.00    -0.205 F 
ENDBRANCH  19  20
ENDBRANCH   1  19
BRANCH   1  27
ATOM     27  C   UNL     1       1.924   5.165  -1.039  0.00  0.00    -0.036 C 
BRANCH  27  28
ATOM     28  C   UNL     1       3.280   4.547  -1.266  0.00  0.00    +0.001 A 
ATOM     29  C   UNL     1       3.837   4.577  -2.502  0.00  0.00    +0.017 A 
ATOM     30  C   UNL     1       5.155   3.968  -2.690  0.00  0.00    +0.002 A 
ATOM     31  C   UNL     1       5.781   3.968  -3.941  0.00  0.00    -0.041 A 
ATOM     32  C   UNL     1       7.011   3.392  -4.083  0.00  0.00    +0.007 A 
ATOM     33  C   UNL     1       7.647   2.807  -2.996  0.00  0.00    -0.048 A 
ATOM     34  C   UNL     1       7.049   2.795  -1.754  0.00  0.00    +0.029 A 
ATOM     35  C   UNL     1       5.796   3.376  -1.586  0.00  0.00    +0.050 A 
ATOM     36  N   UNL     1       5.176   3.379  -0.355  0.00  0.00    -0.322 N 
ATOM     37  H   UNL     1       5.619   2.970   0.405  0.00  0.00    +0.169 HD
ATOM     38  C   UNL     1       3.967   3.945  -0.191  0.00  0.00    +0.251 A 
ATOM     39  O   UNL     1       3.451   3.934   0.913  0.00  0.00    -0.268 OA
ATOM     40  C   UNL     1       9.004   2.178  -3.176  0.00  0.00    +0.044 C 
ATOM     41  C   UNL     1       5.100   4.601  -5.127  0.00  0.00    +0.044 C 
ENDBRANCH  27  28
ENDBRANCH   1  27
TORSDOF 9
