REMARK  Name = ZINC39337169
REMARK  4 active torsions:
REMARK  status: ('A' for Active; 'I' for Inactive)
REMARK    1  A    between atoms: C_5  and  C_7
REMARK    2  A    between atoms: C_7  and  N_8
REMARK    3  A    between atoms: N_17  and  C_20
REMARK    4  A    between atoms: C_25  and  N_26
REMARK                            x       y       z     vdW  Elec       q    Type
REMARK                         _______ _______ _______ _____ _____    ______ ____
ROOT
ATOM      1  N   UNL     1       1.488  -2.679   1.333  0.00  0.00    -0.216 N 
ATOM      2  C   UNL     1       2.776  -2.883   1.739  0.00  0.00    +0.272 C 
ATOM      3  O   UNL     1       3.743  -2.679   1.033  0.00  0.00    -0.268 OA
ATOM      4  C   UNL     1       2.870  -3.380   3.132  0.00  0.00    +0.148 C 
ATOM      5  N   UNL     1       3.694  -3.228   4.093  0.00  0.00    -0.232 NA
ATOM      6  C   UNL     1       3.203  -3.725   5.254  0.00  0.00    +0.218 C 
ATOM      7  N   UNL     1       2.057  -4.320   5.105  0.00  0.00    -0.243 NA
ATOM      8  C   UNL     1       1.761  -4.284   3.678  0.00  0.00    +0.255 C 
ATOM      9  N   UNL     1       0.516  -3.612   3.313  0.00  0.00    -0.225 N 
ATOM     10  C   UNL     1       0.458  -2.918   2.157  0.00  0.00    +0.318 C 
ATOM     11  O   UNL     1      -0.626  -2.473   1.832  0.00  0.00    -0.252 OA
ENDROOT
BRANCH   9  12
ATOM     12  C   UNL     1      -0.603  -3.683   4.154  0.00  0.00    +0.061 A 
ATOM     13  C   UNL     1      -0.794  -2.726   5.139  0.00  0.00    +0.025 A 
ATOM     14  C   UNL     1      -1.899  -2.798   5.968  0.00  0.00    +0.002 A 
ATOM     15  C   UNL     1      -2.814  -3.823   5.819  0.00  0.00    +0.002 A 
ATOM     16  C   UNL     1      -2.631  -4.782   4.840  0.00  0.00    +0.024 A 
ATOM     17  C   UNL     1      -1.530  -4.714   4.000  0.00  0.00    +0.046 A 
BRANCH  17  18
ATOM     18  N   UNL     1      -1.345  -5.680   3.005  0.00  0.00    -0.357 N 
ATOM     19  H   UNL     1      -0.572  -5.633   2.421  0.00  0.00    +0.142 HD
ATOM     20  H   UNL     1      -1.990  -6.396   2.899  0.00  0.00    +0.142 HD
ENDBRANCH  17  18
ENDBRANCH   9  12
BRANCH   1  21
ATOM     21  C   UNL     1       1.228  -2.186  -0.022  0.00  0.00    +0.156 C 
BRANCH  21  26
ATOM     22  C   UNL     1      -0.017   1.378   0.010  0.00  0.00    +0.000 A 
ATOM     23  C   UNL     1       1.171   2.087   0.002  0.00  0.00    +0.003 A 
ATOM     24  C   UNL     1       2.377   1.414  -0.013  0.00  0.00    +0.038 A 
ATOM     25  C   UNL     1       2.397   0.029  -0.021  0.00  0.00    +0.128 A 
ATOM     26  C   UNL     1       1.208  -0.679  -0.013  0.00  0.00    +0.006 A 
ATOM     27  C   UNL     1       0.002  -0.004   0.002  0.00  0.00    +0.008 A 
ATOM     28  F   UNL     1       3.577  -0.630  -0.036  0.00  0.00    -0.205 F 
ENDBRANCH  21  26
ENDBRANCH   1  21
TORSDOF 4
