REMARK  Name = ZINC09514322
REMARK  4 active torsions:
REMARK  status: ('A' for Active; 'I' for Inactive)
REMARK    1  A    between atoms: C_4  and  N_7
REMARK    2  A    between atoms: C_11  and  N_14
REMARK    3  A    between atoms: C_19  and  N_20
REMARK    4  A    between atoms: C_19  and  N_51
REMARK                            x       y       z     vdW  Elec       q    Type
REMARK                         _______ _______ _______ _____ _____    ______ ____
ROOT
ATOM      1  N   UNL     1       2.109   0.006   1.221  0.00  0.00    -0.331 N 
ATOM      2  C   UNL     1       0.939  -0.846   0.969  0.00  0.00    +0.087 C 
ATOM      3  C   UNL     1       0.189  -0.329  -0.261  0.00  0.00    -0.057 C 
ATOM      4  C   UNL     1       0.953   1.917   0.218  0.00  0.00    -0.057 C 
ATOM      5  C   UNL     1       1.702   1.400   1.448  0.00  0.00    +0.087 C 
ATOM      6  N   UNL     1      -0.233   1.065  -0.011  0.00  0.00    +0.394 N 
ATOM      7  H   UNL     1      -0.827   1.089   0.826  0.00  0.00    -0.079 HD
ENDROOT
BRANCH   1  12
ATOM      8  N   UNL     1       4.306  -1.420   4.407  0.00  0.00    -0.195 N 
ATOM      9  C   UNL     1       4.900  -1.332   3.200  0.00  0.00    +0.292 A 
ATOM     10  O   UNL     1       6.066  -1.670   3.063  0.00  0.00    -0.264 OA
ATOM     11  C   UNL     1       4.171  -0.850   2.103  0.00  0.00    +0.129 A 
ATOM     12  C   UNL     1       2.853  -0.474   2.286  0.00  0.00    +0.074 A 
ATOM     13  C   UNL     1       2.274  -0.578   3.569  0.00  0.00    +0.158 A 
ATOM     14  N   UNL     1       2.971  -1.035   4.572  0.00  0.00    -0.170 NA
ATOM     15 CL   UNL     1       4.914  -0.727   0.539  0.00  0.00    -0.076 Cl
BRANCH   8  19
ATOM     16  C   UNL     1       6.463  -2.850   7.672  0.00  0.00    +0.000 A 
ATOM     17  C   UNL     1       5.730  -1.683   7.787  0.00  0.00    +0.002 A 
ATOM     18  C   UNL     1       5.014  -1.206   6.706  0.00  0.00    +0.028 A 
ATOM     19  C   UNL     1       5.030  -1.901   5.503  0.00  0.00    +0.069 A 
ATOM     20  C   UNL     1       5.762  -3.076   5.393  0.00  0.00    +0.028 A 
ATOM     21  C   UNL     1       6.481  -3.544   6.475  0.00  0.00    +0.002 A 
ENDBRANCH   8  19
ENDBRANCH   1  12
BRANCH   6  22
ATOM     22  C   UNL     1      -1.006   1.574  -1.163  0.00  0.00    +0.054 C 
BRANCH  22  23
ATOM     23  N   UNL     1      -1.871   2.663  -0.704  0.00  0.00    -0.291 N 
ATOM     24  C   UNL     1      -1.546   4.019  -0.677  0.00  0.00    +0.088 A 
ATOM     25  C   UNL     1      -0.414   4.734  -1.036  0.00  0.00    +0.029 A 
ATOM     26  C   UNL     1      -0.393   6.107  -0.889  0.00  0.00    +0.002 A 
ATOM     27  C   UNL     1      -1.498   6.770  -0.384  0.00  0.00    +0.004 A 
ATOM     28  C   UNL     1      -2.630   6.064  -0.024  0.00  0.00    +0.048 A 
ATOM     29  C   UNL     1      -2.660   4.686  -0.168  0.00  0.00    +0.157 A 
ATOM     30  O   UNL     1      -3.605   3.750   0.094  0.00  0.00    -0.407 OA
ATOM     31  C   UNL     1      -3.128   2.539  -0.234  0.00  0.00    +0.420 A 
ATOM     32  O   UNL     1      -3.736   1.491  -0.122  0.00  0.00    -0.223 OA
ENDBRANCH  22  23
ENDBRANCH   6  22
TORSDOF 4
