REMARK  Name = ZINC30785634
REMARK  5 active torsions:
REMARK  status: ('A' for Active; 'I' for Inactive)
REMARK    1  A    between atoms: C_1  and  C_2
REMARK    2  A    between atoms: C_5  and  S_7
REMARK    3  A    between atoms: S_7  and  N_10
REMARK    4  A    between atoms: N_13  and  C_16
REMARK    5  A    between atoms: C_17  and  N_27
REMARK                            x       y       z     vdW  Elec       q    Type
REMARK                         _______ _______ _______ _____ _____    ______ ____
ROOT
ATOM      1  N   UNL     1       2.033   0.183   1.397  0.00  0.00    -0.173 NA
ATOM      2  C   UNL     1       0.768  -0.539   1.194  0.00  0.00    +0.128 C 
ATOM      3  C   UNL     1       0.104  -0.009  -0.081  0.00  0.00    +0.123 C 
ATOM      4  N   UNL     1      -0.023   1.451   0.007  0.00  0.00    -0.311 N 
ATOM      5  C   UNL     1       1.295   2.097   0.079  0.00  0.00    +0.123 C 
ATOM      6  C   UNL     1       2.008   1.654   1.361  0.00  0.00    +0.128 C 
ENDROOT
BRANCH   4   7
ATOM      7  C   UNL     1      -0.762   1.949  -1.050  0.00  0.00    +0.160 A 
ATOM      8  C   UNL     1      -2.069   2.383  -0.845  0.00  0.00    +0.230 A 
ATOM      9  C   UNL     1      -2.791   2.880  -1.929  0.00  0.00    +0.291 A 
ATOM     10  O   UNL     1      -3.939   3.268  -1.781  0.00  0.00    -0.265 OA
ATOM     11  N   UNL     1      -2.203   2.928  -3.143  0.00  0.00    -0.266 N 
ATOM     12  C   UNL     1      -2.901   3.412  -4.208  0.00  0.00    +0.096 A 
ATOM     13  C   UNL     1      -2.338   3.471  -5.435  0.00  0.00    +0.018 A 
ATOM     14  C   UNL     1      -1.020   3.031  -5.628  0.00  0.00    +0.005 A 
ATOM     15  C   UNL     1      -0.313   2.545  -4.570  0.00  0.00    +0.047 A 
ATOM     16  C   UNL     1      -0.917   2.492  -3.299  0.00  0.00    +0.142 A 
ATOM     17  N   UNL     1      -0.224   2.021  -2.265  0.00  0.00    -0.212 NA
BRANCH   8  18
ATOM     18  N   UNL     1      -2.682   2.317   0.501  0.00  0.00    +0.065 N 
ATOM     19  O   UNL     1      -2.013   1.973   1.459  0.00  0.00    -0.126 OA
ATOM     20  O   UNL     1      -3.856   2.607   0.650  0.00  0.00    -0.126 OA
ENDBRANCH   8  18
ENDBRANCH   4   7
BRANCH   1  21
ATOM     21  S   UNL     1       3.448  -0.636   1.659  0.00  0.00    +0.067 S 
ATOM     22  O   UNL     1       4.313   0.256   2.348  0.00  0.00    -0.152 OA
ATOM     23  O   UNL     1       3.089  -1.907   2.184  0.00  0.00    -0.152 OA
BRANCH  21  28
ATOM     24  C   UNL     1       5.386  -2.469  -3.622  0.00  0.00    +0.051 C 
ATOM     25  C   UNL     1       5.052  -1.783  -2.322  0.00  0.00    -0.011 A 
ATOM     26  C   UNL     1       5.498  -0.596  -1.844  0.00  0.00    +0.013 A 
ATOM     27  C   UNL     1       5.051  -0.159  -0.611  0.00  0.00    +0.036 A 
ATOM     28  C   UNL     1       4.179  -0.931   0.083  0.00  0.00    +0.143 A 
ATOM     29  S   UNL     1       3.970  -2.327  -1.010  0.00  0.00    -0.074 S 
ENDBRANCH  21  28
ENDBRANCH   1  21
TORSDOF 4
