REMARK  Name = ZINC16675799
REMARK  4 active torsions:
REMARK  status: ('A' for Active; 'I' for Inactive)
REMARK    1  A    between atoms: C_1  and  C_2
REMARK    2  A    between atoms: C_5  and  C_25
REMARK    3  A    between atoms: N_13  and  C_16
REMARK    4  A    between atoms: C_20  and  N_22
REMARK                            x       y       z     vdW  Elec       q    Type
REMARK                         _______ _______ _______ _____ _____    ______ ____
ROOT
ATOM      1  C   UNL     1      -0.019   1.526   0.010  0.00  0.00    +0.047 C 
ATOM      2  C   UNL     1       0.002  -0.004   0.002  0.00  0.00    +0.098 C 
ATOM      3  C   UNL     1      -1.357  -0.752   0.143  0.00  0.00    +0.007 C 
ATOM      4  C   UNL     1      -1.022  -1.996   0.451  0.00  0.00    +0.007 C 
ATOM      5  C   UNL     1       0.479  -2.079   0.641  0.00  0.00    +0.098 C 
ATOM      6  O   UNL     1       0.701  -0.686   1.122  0.00  0.00    -0.358 OA
ATOM      7  C   UNL     1       1.269  -1.967  -0.656  0.00  0.00    +0.126 C 
ATOM      8  C   UNL     1       0.548  -0.670  -1.208  0.00  0.00    +0.126 C 
ATOM      9  C   UNL     1       1.020  -0.582  -2.551  0.00  0.00    +0.233 C 
ATOM     10  O   UNL     1       1.255   0.416  -3.198  0.00  0.00    -0.274 OA
ATOM     11  N   UNL     1       1.148  -1.900  -2.942  0.00  0.00    -0.210 N 
ATOM     12  C   UNL     1       1.002  -2.817  -1.858  0.00  0.00    +0.233 C 
ATOM     13  O   UNL     1       0.751  -4.003  -1.880  0.00  0.00    -0.274 OA
ATOM     14  C   UNL     1       0.940  -3.190   1.586  0.00  0.00    +0.047 C 
ENDROOT
BRANCH  11  15
ATOM     15  C   UNL     1       1.384  -2.301  -4.265  0.00  0.00    +0.046 A 
ATOM     16  C   UNL     1       1.508  -1.349  -5.268  0.00  0.00    +0.024 A 
ATOM     17  C   UNL     1       1.740  -1.747  -6.570  0.00  0.00    +0.004 A 
ATOM     18  C   UNL     1       1.849  -3.091  -6.875  0.00  0.00    +0.033 A 
ATOM     19  C   UNL     1       1.725  -4.041  -5.878  0.00  0.00    +0.128 A 
ATOM     20  C   UNL     1       1.499  -3.649  -4.573  0.00  0.00    +0.056 A 
BRANCH  19  21
ATOM     21  N   UNL     1       1.842  -5.479  -6.208  0.00  0.00    +0.056 N 
ATOM     22  O   UNL     1       2.045  -5.823  -7.350  0.00  0.00    -0.126 OA
ATOM     23  O   UNL     1       1.734  -6.311  -5.337  0.00  0.00    -0.126 OA
ENDBRANCH  19  21
ENDBRANCH  11  15
TORSDOF 2
