REMARK  Name = ZINC36218314
REMARK  5 active torsions:
REMARK  status: ('A' for Active; 'I' for Inactive)
REMARK    1  A    between atoms: C_1  and  C_2
REMARK    2  A    between atoms: C_5  and  N_8
REMARK    3  A    between atoms: C_19  and  C_20
REMARK    4  A    between atoms: C_23  and  O_29
REMARK    5  A    between atoms: C_24  and  N_26
REMARK                            x       y       z     vdW  Elec       q    Type
REMARK                         _______ _______ _______ _____ _____    ______ ____
ROOT
ATOM      1  N   UNL     1      -0.110  -4.190   0.072  0.00  0.00    -0.327 N 
ATOM      2  C   UNL     1      -0.315  -4.941  -1.175  0.00  0.00    +0.124 C 
ATOM      3  C   UNL     1       0.885  -5.872  -1.389  0.00  0.00    +0.125 C 
ATOM      4  N   UNL     1       1.129  -6.617  -0.145  0.00  0.00    -0.308 N 
ATOM      5  C   UNL     1       1.334  -5.866   1.101  0.00  0.00    +0.125 C 
ATOM      6  C   UNL     1       0.140  -4.935   1.314  0.00  0.00    +0.124 C 
ATOM      7  C   UNL     1       1.165  -7.986  -0.148  0.00  0.00    +0.154 C 
ATOM      8  N   UNL     1       1.007  -8.810  -1.173  0.00  0.00    -0.154 NA
ATOM      9  C   UNL     1       1.065 -10.117  -1.042  0.00  0.00    +0.276 C 
ATOM     10  O   UNL     1       0.919 -10.866  -1.994  0.00  0.00    -0.267 OA
ATOM     11  C   UNL     1       1.318 -10.630   0.325  0.00  0.00    +0.079 C 
ATOM     12  C   UNL     1       1.429 -11.908   0.767  0.00  0.00    +0.028 C 
ATOM     13  S   UNL     1       1.442  -9.091   1.227  0.00  0.00    -0.052 S 
ENDROOT
BRANCH   1  18
ATOM     14  C   UNL     1      -0.255   1.479   0.085  0.00  0.00    +0.044 C 
ATOM     15  C   UNL     1      -0.217  -0.028   0.081  0.00  0.00    -0.050 A 
ATOM     16  C   UNL     1      -0.104  -0.718   1.274  0.00  0.00    +0.005 A 
ATOM     17  C   UNL     1      -0.069  -2.098   1.275  0.00  0.00    +0.023 A 
ATOM     18  C   UNL     1      -0.146  -2.794   0.075  0.00  0.00    +0.030 A 
ATOM     19  C   UNL     1      -0.259  -2.098  -1.122  0.00  0.00    +0.023 A 
ATOM     20  C   UNL     1      -0.300  -0.717  -1.115  0.00  0.00    +0.005 A 
ENDBRANCH   1  18
BRANCH  12  21
ATOM     21  C   UNL     1       1.476 -13.016  -0.195  0.00  0.00    -0.021 A 
ATOM     22  C   UNL     1       2.170 -12.869  -1.403  0.00  0.00    +0.011 A 
ATOM     23  C   UNL     1       2.211 -13.911  -2.301  0.00  0.00    +0.048 A 
ATOM     24  C   UNL     1       1.565 -15.108  -2.012  0.00  0.00    +0.147 A 
ATOM     25  C   UNL     1       0.875 -15.259  -0.815  0.00  0.00    +0.168 A 
ATOM     26  C   UNL     1       0.832 -14.226   0.094  0.00  0.00    +0.044 A 
BRANCH  25  27
ATOM     27  N   UNL     1       0.189 -16.536  -0.513  0.00  0.00    +0.060 N 
ATOM     28  O   UNL     1      -0.411 -16.669   0.527  0.00  0.00    -0.126 OA
ATOM     29  O   UNL     1       0.231 -17.447  -1.308  0.00  0.00    -0.126 OA
ENDBRANCH  25  27
BRANCH  24  30
ATOM     30  O   UNL     1       1.609 -16.133  -2.901  0.00  0.00    -0.504 OA
ATOM     31  H   UNL     1       2.357 -16.733  -2.773  0.00  0.00    +0.292 HD
ENDBRANCH  24  30
ENDBRANCH  12  21
TORSDOF 4
