REMARK  Name = ZINC00683386
REMARK  5 active torsions:
REMARK  status: ('A' for Active; 'I' for Inactive)
REMARK    1  A    between atoms: C_4  and  C_7
REMARK    2  A    between atoms: C_7  and  S_8
REMARK    3  A    between atoms: S_8  and  C_9
REMARK    4  A    between atoms: C_22  and  C_25
REMARK    5  A    between atoms: C_29  and  O_31
REMARK                            x       y       z     vdW  Elec       q    Type
REMARK                         _______ _______ _______ _____ _____    ______ ____
ROOT
ATOM      1  C   UNL     1      -4.420  -0.233   1.559  0.00  0.00    +0.213 A 
ATOM      2  N   UNL     1      -5.137  -0.691   2.581  0.00  0.00    -0.184 NA
ATOM      3  C   UNL     1      -6.289  -1.295   2.344  0.00  0.00    +0.248 A 
ATOM      4  C   UNL     1      -6.719  -1.437   1.005  0.00  0.00    +0.156 A 
ATOM      5  N   UNL     1      -5.960  -0.955   0.033  0.00  0.00    -0.141 NA
ATOM      6  N   UNL     1      -4.847  -0.367   0.309  0.00  0.00    -0.122 NA
ATOM      7  C   UNL     1      -7.998  -2.119   0.718  0.00  0.00    +0.028 A 
ATOM      8  C   UNL     1      -8.927  -1.580  -0.163  0.00  0.00    +0.012 A 
ATOM      9  C   UNL     1     -10.097  -2.265  -0.430  0.00  0.00    +0.001 A 
ATOM     10  C   UNL     1     -10.349  -3.484   0.175  0.00  0.00    +0.002 A 
ATOM     11  C   UNL     1      -9.435  -4.029   1.059  0.00  0.00    +0.024 A 
ATOM     12  C   UNL     1      -8.262  -3.353   1.340  0.00  0.00    +0.039 A 
ATOM     13  N   UNL     1      -7.323  -3.866   2.240  0.00  0.00    -0.305 N 
ATOM     14  C   UNL     1      -7.123  -3.184   3.514  0.00  0.00    +0.294 C 
ATOM     15  O   UNL     1      -7.057  -1.771   3.353  0.00  0.00    -0.449 OA
ATOM     16  H   UNL     1      -6.813  -4.662   2.021  0.00  0.00    +0.150 HD
ENDROOT
BRANCH  14  17
ATOM     17  C   UNL     1      -8.268  -3.519   4.435  0.00  0.00    +0.015 A 
ATOM     18  C   UNL     1      -8.818  -4.788   4.421  0.00  0.00    +0.009 A 
ATOM     19  C   UNL     1      -9.867  -5.099   5.265  0.00  0.00    +0.004 A 
ATOM     20  C   UNL     1     -10.370  -4.142   6.125  0.00  0.00    +0.045 A 
ATOM     21  C   UNL     1      -9.821  -2.868   6.142  0.00  0.00    +0.117 A 
ATOM     22  C   UNL     1      -8.764  -2.560   5.297  0.00  0.00    +0.054 A 
BRANCH  21  23
ATOM     23  O   UNL     1     -10.313  -1.926   6.987  0.00  0.00    -0.507 OA
ATOM     24  H   UNL     1      -9.881  -1.908   7.852  0.00  0.00    +0.292 HD
ENDBRANCH  21  23
ENDBRANCH  14  17
BRANCH   1  25
ATOM     25  S   UNL     1      -2.884   0.571   1.868  0.00  0.00    -0.080 S 
BRANCH  25  26
ATOM     26  C   UNL     1      -2.385   0.961   0.172  0.00  0.00    +0.112 C 
BRANCH  26  30
ATOM     27  C   UNL     1       1.378   2.981   0.217  0.00  0.00    +0.000 A 
ATOM     28  C   UNL     1       1.335   1.602   0.134  0.00  0.00    +0.000 A 
ATOM     29  C   UNL     1       0.117   0.948   0.123  0.00  0.00    +0.004 A 
ATOM     30  C   UNL     1      -1.057   1.673   0.190  0.00  0.00    -0.037 A 
ATOM     31  C   UNL     1      -1.014   3.052   0.278  0.00  0.00    +0.004 A 
ATOM     32  C   UNL     1       0.204   3.706   0.289  0.00  0.00    +0.000 A 
ENDBRANCH  26  30
ENDBRANCH  25  26
ENDBRANCH   1  25
TORSDOF 5
