REMARK  Name = ZINC00167994
REMARK  4 active torsions:
REMARK  status: ('A' for Active; 'I' for Inactive)
REMARK    1  A    between atoms: C_1  and  S_2
REMARK    2  A    between atoms: S_2  and  C_3
REMARK    3  A    between atoms: C_6  and  C_20
REMARK    4  A    between atoms: C_9  and  C_13
REMARK                            x       y       z     vdW  Elec       q    Type
REMARK                         _______ _______ _______ _____ _____    ______ ____
ROOT
ATOM      1  C   UNL     1      -1.458   7.929  -2.706  0.00  0.00    +0.176 C 
ATOM      2  N   UNL     1      -0.828   8.593  -3.653  0.00  0.00    -0.231 NA
ATOM      3  C   UNL     1       0.493   8.646  -3.733  0.00  0.00    +0.135 C 
ATOM      4  C   UNL     1       1.276   7.984  -2.791  0.00  0.00    +0.111 C 
ATOM      5  C   UNL     1       0.582   7.236  -1.724  0.00  0.00    +0.157 C 
ATOM      6  N   UNL     1       1.061   6.535  -0.725  0.00  0.00    -0.241 NA
ATOM      7  C   UNL     1      -0.079   6.003   0.034  0.00  0.00    +0.222 C 
ATOM      8  N   UNL     1      -1.270   6.505  -0.677  0.00  0.00    -0.204 NA
ATOM      9  N   UNL     1      -0.795   7.242  -1.729  0.00  0.00    -0.193 N 
ATOM     10  H   UNL     1      -1.846   5.743  -1.001  0.00  0.00    +0.148 HD
ENDROOT
BRANCH   7  11
ATOM     11  C   UNL     1      -0.059   4.497   0.026  0.00  0.00    -0.007 A 
ATOM     12  C   UNL     1       1.148   3.822   0.012  0.00  0.00    +0.008 A 
ATOM     13  C   UNL     1       1.167   2.440   0.004  0.00  0.00    +0.020 A 
ATOM     14  C   UNL     1      -0.021   1.732   0.012  0.00  0.00    +0.041 A 
ATOM     15  C   UNL     1      -1.229   2.407   0.021  0.00  0.00    +0.020 A 
ATOM     16  C   UNL     1      -1.247   3.789   0.034  0.00  0.00    +0.008 A 
ATOM     17 CL   UNL     1       0.002  -0.004   0.002  0.00  0.00    -0.084 Cl
ENDBRANCH   7  11
BRANCH   1  19
ATOM     18  C   UNL     1      -3.542   8.951  -4.155  0.00  0.00    +0.093 C 
ATOM     19  S   UNL     1      -3.220   7.928  -2.697  0.00  0.00    -0.092 S 
ENDBRANCH   1  19
BRANCH   4  20
ATOM     20  C   UNL     1       2.705   8.026  -2.856  0.00  0.00    +0.104 C 
ATOM     21  N   UNL     1       3.840   8.060  -2.908  0.00  0.00    -0.191 NA
ENDBRANCH   4  20
TORSDOF 3
