REMARK  Name = ZINC12244190
REMARK  13 active torsions:
REMARK  status: ('A' for Active; 'I' for Inactive)
REMARK    1  A    between atoms: C_1  and  O_2
REMARK    2  A    between atoms: O_2  and  C_3
REMARK    3  A    between atoms: C_3  and  C_4
REMARK    4  A    between atoms: C_4  and  N_5
REMARK    5  A    between atoms: C_8  and  C_12
REMARK    6  A    between atoms: C_8  and  C_21
REMARK    7  A    between atoms: C_12  and  C_13
REMARK    8  A    between atoms: C_17  and  O_19
REMARK    9  A    between atoms: O_19  and  C_20
REMARK   10  A    between atoms: C_26  and  C_27
REMARK   11  A    between atoms: C_26  and  N_70
REMARK   12  A    between atoms: C_30  and  O_33
REMARK   13  A    between atoms: O_33  and  C_34
REMARK                            x       y       z     vdW  Elec       q    Type
REMARK                         _______ _______ _______ _____ _____    ______ ____
ROOT
ATOM      1  N   UNL     1       9.605  -3.554   4.682  0.00  0.00    -0.222 N 
ATOM      2  C   UNL     1       8.803  -4.619   4.464  0.00  0.00    +0.247 C 
ATOM      3  O   UNL     1       8.773  -5.657   5.091  0.00  0.00    -0.273 OA
ATOM      4  C   UNL     1       7.947  -4.245   3.271  0.00  0.00    +0.119 C 
ATOM      5  N   UNL     1       8.408  -2.890   2.921  0.00  0.00    -0.284 N 
ATOM      6  C   UNL     1       9.376  -2.574   3.800  0.00  0.00    +0.309 C 
ATOM      7  O   UNL     1       9.975  -1.517   3.794  0.00  0.00    -0.252 OA
ATOM      8  H   UNL     1       8.078  -2.335   2.197  0.00  0.00    +0.151 HD
ENDROOT
BRANCH   4   9
ATOM      9  C   UNL     1       6.466  -4.226   3.656  0.00  0.00    +0.018 C 
ATOM     10  C   UNL     1       6.252  -3.252   4.818  0.00  0.00    -0.013 C 
ATOM     11  C   UNL     1       4.761  -3.193   5.160  0.00  0.00    -0.078 C 
ATOM     12  C   UNL     1       4.157  -3.696   2.867  0.00  0.00    -0.078 C 
ATOM     13  C   UNL     1       5.630  -3.770   2.457  0.00  0.00    -0.013 C 
ATOM     14  N   UNL     1       4.015  -2.724   3.973  0.00  0.00    +0.382 N 
ATOM     15  H   UNL     1       4.399  -1.821   3.673  0.00  0.00    -0.081 HD
BRANCH  14  16
ATOM     16  C   UNL     1       2.587  -2.550   4.310  0.00  0.00    -0.043 C 
BRANCH  16  17
ATOM     17  C   UNL     1       1.895  -1.869   3.158  0.00  0.00    -0.064 A 
ATOM     18  C   UNL     1       1.317  -2.626   2.155  0.00  0.00    +0.005 A 
ATOM     19  C   UNL     1       0.682  -2.003   1.098  0.00  0.00    +0.046 A 
ATOM     20  C   UNL     1       0.626  -0.618   1.042  0.00  0.00    +0.120 A 
ATOM     21  C   UNL     1       1.212   0.139   2.045  0.00  0.00    +0.046 A 
ATOM     22  C   UNL     1       1.841  -0.488   3.104  0.00  0.00    +0.005 A 
BRANCH  20  23
ATOM     23  O   UNL     1       0.002  -0.004   0.002  0.00  0.00    -0.495 OA
ATOM     24  C   UNL     1      -0.017   1.425   0.010  0.00  0.00    +0.277 C 
ENDBRANCH  20  23
ENDBRANCH  16  17
ENDBRANCH  14  16
ENDBRANCH   4   9
BRANCH   1  25
ATOM     25  C   UNL     1      10.603  -3.481   5.752  0.00  0.00    +0.146 C 
BRANCH  25  26
ATOM     26  C   UNL     1       9.962  -2.890   7.009  0.00  0.00    +0.179 C 
BRANCH  26  28
ATOM     27  C   UNL     1       8.289  -3.320   8.670  0.00  0.00    +0.194 C 
ATOM     28  O   UNL     1       8.954  -3.780   7.492  0.00  0.00    -0.381 OA
ENDBRANCH  26  28
ENDBRANCH  25  26
ENDBRANCH   1  25
BRANCH   4  29
ATOM     29  C   UNL     1       8.187  -5.212   2.111  0.00  0.00    +0.070 C 
BRANCH  29  30
ATOM     30  C   UNL     1       9.651  -5.212   1.751  0.00  0.00    -0.041 A 
ATOM     31  C   UNL     1      10.129  -4.327   0.802  0.00  0.00    +0.004 A 
ATOM     32  C   UNL     1      11.472  -4.320   0.474  0.00  0.00    +0.004 A 
ATOM     33  C   UNL     1      12.338  -5.205   1.087  0.00  0.00    +0.045 A 
ATOM     34  C   UNL     1      11.860  -6.098   2.035  0.00  0.00    +0.120 A 
ATOM     35  C   UNL     1      10.512  -6.099   2.366  0.00  0.00    +0.049 A 
BRANCH  34  36
ATOM     36  O   UNL     1      12.710  -6.970   2.638  0.00  0.00    -0.495 OA
ATOM     37  C   UNL     1      14.083  -6.912   2.248  0.00  0.00    +0.277 C 
ENDBRANCH  34  36
ENDBRANCH  29  30
ENDBRANCH   4  29
TORSDOF 10
