REMARK  Name = ZINC06601674
REMARK  12 active torsions:
REMARK  status: ('A' for Active; 'I' for Inactive)
REMARK    1  A    between atoms: C_1  and  C_2
REMARK    2  A    between atoms: C_2  and  O_3
REMARK    3  A    between atoms: O_3  and  C_4
REMARK    4  A    between atoms: C_7  and  C_10
REMARK    5  A    between atoms: C_10  and  C_12
REMARK    6  A    between atoms: C_10  and  N_22
REMARK    7  A    between atoms: N_14  and  C_15
REMARK    8  A    between atoms: C_15  and  C_16
REMARK    9  A    between atoms: N_22  and  C_23
REMARK   10  A    between atoms: C_28  and  C_30
REMARK   11  A    between atoms: C_31  and  N_38
REMARK   12  A    between atoms: C_32  and  C_35
REMARK                            x       y       z     vdW  Elec       q    Type
REMARK                         _______ _______ _______ _____ _____    ______ ____
ROOT
ATOM      1  N   UNL     1       2.177   4.143   1.093  0.00  0.00    -0.278 N 
ATOM      2  C   UNL     1       1.675   4.992   2.011  0.00  0.00    +0.258 C 
ATOM      3  O   UNL     1       0.470   5.113   2.134  0.00  0.00    -0.269 OA
ENDROOT
BRANCH   1   4
ATOM      4  C   UNL     1       3.621   3.910   1.023  0.00  0.00    +0.077 C 
ATOM      5  C   UNL     1       3.949   2.971  -0.156  0.00  0.00    +0.022 C 
ATOM      6  C   UNL     1       5.104   2.086   0.373  0.00  0.00    +0.002 C 
ATOM      7  C   UNL     1       4.706   1.850   1.851  0.00  0.00    +0.002 C 
ATOM      8  C   UNL     1       4.103   3.197   2.299  0.00  0.00    +0.022 C 
ENDBRANCH   1   4
BRANCH   2   9
ATOM      9  C   UNL     1       2.579   5.771   2.860  0.00  0.00    +0.115 A 
ATOM     10  C   UNL     1       2.284   6.583   3.956  0.00  0.00    +0.076 A 
ATOM     11  C   UNL     1       3.423   7.162   4.515  0.00  0.00    +0.155 A 
ATOM     12  N   UNL     1       4.599   6.911   3.982  0.00  0.00    -0.203 NA
ATOM     13  S   UNL     1       4.349   5.940   2.766  0.00  0.00    +0.019 S 
BRANCH  11  14
ATOM     14  C   UNL     1       3.310   8.049   5.687  0.00  0.00    +0.262 C 
ATOM     15  O   UNL     1       2.220   8.277   6.174  0.00  0.00    -0.269 OA
ATOM     16  N   UNL     1       4.415   8.609   6.217  0.00  0.00    -0.324 N 
ATOM     17  H   UNL     1       5.285   8.427   5.829  0.00  0.00    +0.145 HD
ATOM     18  H   UNL     1       4.341   9.193   6.988  0.00  0.00    +0.145 HD
ENDBRANCH  11  14
BRANCH  10  19
ATOM     19  N   UNL     1       0.998   6.789   4.439  0.00  0.00    -0.355 N 
ATOM     20  H   UNL     1       0.244   6.357   4.010  0.00  0.00    +0.142 HD
ATOM     21  H   UNL     1       0.855   7.366   5.206  0.00  0.00    +0.142 HD
ENDBRANCH  10  19
ENDBRANCH   2   9
BRANCH   1  22
ATOM     22  C   UNL     1       1.278   3.452   0.165  0.00  0.00    +0.193 C 
BRANCH  22  26
ATOM     23  C   UNL     1       1.596  -0.769   0.750  0.00  0.00    +0.121 A 
ATOM     24  C   UNL     1       1.766   0.095   1.821  0.00  0.00    +0.046 A 
ATOM     25  C   UNL     1       1.663   1.460   1.630  0.00  0.00    +0.009 A 
ATOM     26  C   UNL     1       1.390   1.963   0.371  0.00  0.00    -0.018 A 
ATOM     27  C   UNL     1       1.220   1.104  -0.698  0.00  0.00    +0.009 A 
ATOM     28  C   UNL     1       1.322  -0.261  -0.512  0.00  0.00    +0.046 A 
BRANCH  23  29
ATOM     29  O   UNL     1       1.696  -2.112   0.936  0.00  0.00    -0.492 OA
BRANCH  29  31
ATOM     30  C   UNL     1       1.658  -4.410   0.190  0.00  0.00    +0.048 C 
ATOM     31  C   UNL     1       1.509  -2.942  -0.212  0.00  0.00    +0.225 C 
ENDBRANCH  29  31
ENDBRANCH  23  29
ENDBRANCH  22  26
BRANCH  22  32
ATOM     32  C   UNL     1       1.659   3.793  -1.252  0.00  0.00    +0.238 C 
ATOM     33  O   UNL     1       2.641   4.471  -1.469  0.00  0.00    -0.273 OA
ATOM     34  N   UNL     1       0.910   3.345  -2.278  0.00  0.00    -0.311 N 
ATOM     35  H   UNL     1       0.083   2.868  -2.103  0.00  0.00    +0.149 HD
BRANCH  34  36
ATOM     36  C   UNL     1       1.343   3.578  -3.658  0.00  0.00    +0.135 C 
BRANCH  36  37
ATOM     37  C   UNL     1       0.321   2.972  -4.623  0.00  0.00    +0.135 C 
ATOM     38  C   UNL     1       0.818   3.095  -6.080  0.00  0.00    +0.035 C 
ATOM     39  C   UNL     1      -0.464   3.391  -6.891  0.00  0.00    +0.031 C 
ATOM     40  C   UNL     1      -1.584   3.412  -5.827  0.00  0.00    +0.160 C 
ATOM     41  O   UNL     1      -0.911   3.726  -4.588  0.00  0.00    -0.375 OA
ENDBRANCH  36  37
ENDBRANCH  34  36
ENDBRANCH  22  32
ENDBRANCH   1  22
TORSDOF 11
