REMARK  Name = ZINC13799187
REMARK  8 active torsions:
REMARK  status: ('A' for Active; 'I' for Inactive)
REMARK    1  A    between atoms: C_1  and  C_2
REMARK    2  A    between atoms: C_5  and  C_8
REMARK    3  A    between atoms: N_12  and  C_16
REMARK    4  A    between atoms: C_16  and  C_17
REMARK    5  A    between atoms: C_17  and  C_18
REMARK    6  A    between atoms: N_20  and  C_21
REMARK    7  A    between atoms: C_23  and  N_28
REMARK    8  A    between atoms: C_26  and  O_27
REMARK                            x       y       z     vdW  Elec       q    Type
REMARK                         _______ _______ _______ _____ _____    ______ ____
ROOT
ATOM      1  C   UNL     1       0.592  -8.230   2.671  0.00  0.00    +0.124 C 
ENDROOT
BRANCH   1   6
ATOM      2  C   UNL     1       0.331  -4.241  -0.267  0.00  0.00    +0.028 C 
ATOM      3  C   UNL     1       0.339  -4.939   0.896  0.00  0.00    +0.077 C 
ATOM      4  C   UNL     1       0.482  -6.393   1.122  0.00  0.00    +0.258 C 
ATOM      5  O   UNL     1       0.619  -7.173   0.198  0.00  0.00    -0.269 OA
ATOM      6  N   UNL     1       0.455  -6.801   2.379  0.00  0.00    -0.255 N 
ATOM      7  C   UNL     1       0.304  -5.933   3.400  0.00  0.00    +0.121 C 
ATOM      8  S   UNL     1       0.245  -6.265   5.078  0.00  0.00    -0.027 S 
ATOM      9  S   UNL     1       0.188  -4.352   2.578  0.00  0.00    -0.061 S 
BRANCH   2  14
ATOM     10  C   UNL     1      -0.937   1.365  -0.248  0.00  0.00    +0.044 C 
ATOM     11  C   UNL     1      -0.604  -0.105  -0.253  0.00  0.00    -0.050 A 
ATOM     12  C   UNL     1      -0.004  -0.671  -1.364  0.00  0.00    +0.004 A 
ATOM     13  C   UNL     1       0.303  -2.015  -1.377  0.00  0.00    +0.008 A 
ATOM     14  C   UNL     1       0.007  -2.807  -0.262  0.00  0.00    -0.024 A 
ATOM     15  C   UNL     1      -0.599  -2.227   0.858  0.00  0.00    +0.008 A 
ATOM     16  C   UNL     1      -0.896  -0.880   0.856  0.00  0.00    +0.004 A 
ENDBRANCH   2  14
ENDBRANCH   1   6
BRANCH   1  17
ATOM     17  C   UNL     1       2.072  -8.574   2.853  0.00  0.00    +0.115 C 
BRANCH  17  18
ATOM     18  C   UNL     1       2.212 -10.044   3.152  0.00  0.00    +0.219 C 
ATOM     19  O   UNL     1       1.226 -10.748   3.214  0.00  0.00    -0.275 OA
ATOM     20  N   UNL     1       3.434 -10.578   3.352  0.00  0.00    -0.282 N 
ATOM     21  H   UNL     1       4.216 -10.004   3.372  0.00  0.00    +0.155 HD
BRANCH  20  22
ATOM     22  C   UNL     1       3.575 -11.960   3.530  0.00  0.00    +0.078 A 
ATOM     23  C   UNL     1       2.567 -12.820   3.119  0.00  0.00    +0.059 A 
ATOM     24  C   UNL     1       2.708 -14.184   3.296  0.00  0.00    +0.128 A 
ATOM     25  C   UNL     1       3.851 -14.694   3.882  0.00  0.00    +0.036 A 
ATOM     26  C   UNL     1       4.860 -13.843   4.295  0.00  0.00    +0.049 A 
ATOM     27  C   UNL     1       4.729 -12.475   4.115  0.00  0.00    +0.138 A 
BRANCH  24  28
ATOM     28  N   UNL     1       1.631 -15.100   2.857  0.00  0.00    +0.056 N 
ATOM     29  O   UNL     1       0.631 -14.656   2.344  0.00  0.00    -0.126 OA
ATOM     30  O   UNL     1       1.753 -16.293   3.011  0.00  0.00    -0.126 OA
ENDBRANCH  24  28
BRANCH  27  31
ATOM     31  O   UNL     1       5.722 -11.637   4.516  0.00  0.00    -0.505 OA
ATOM     32  H   UNL     1       5.634 -11.331   5.428  0.00  0.00    +0.292 HD
ENDBRANCH  27  31
ENDBRANCH  20  22
ENDBRANCH  17  18
ENDBRANCH   1  17
TORSDOF 7
