REMARK  Name = ZINC09327919
REMARK  6 active torsions:
REMARK  status: ('A' for Active; 'I' for Inactive)
REMARK    1  A    between atoms: C_1  and  C_2
REMARK    2  A    between atoms: N_23  and  C_26
REMARK    3  A    between atoms: C_28  and  O_36
REMARK    4  A    between atoms: C_29  and  N_33
REMARK    5  A    between atoms: C_31  and  C_32
REMARK    6  A    between atoms: O_36  and  C_37
REMARK                            x       y       z     vdW  Elec       q    Type
REMARK                         _______ _______ _______ _____ _____    ______ ____
ROOT
ATOM      1  C   UNL     1       4.327   2.094  -0.029  0.00  0.00    +0.045 C 
ATOM      2  C   UNL     1       3.550   0.803  -0.029  0.00  0.00    -0.029 A 
ATOM      3  C   UNL     1       4.220  -0.403  -0.043  0.00  0.00    +0.005 A 
ATOM      4  C   UNL     1       3.516  -1.593  -0.043  0.00  0.00    +0.001 A 
ATOM      5  C   UNL     1       2.132  -1.574  -0.029  0.00  0.00    +0.004 A 
ATOM      6  C   UNL     1       1.459  -0.373  -0.015  0.00  0.00    -0.027 A 
ATOM      7  C   UNL     1       2.157   0.831  -0.015  0.00  0.00    +0.039 A 
ATOM      8  N   UNL     1       1.266   1.906   0.000  0.00  0.00    -0.286 N 
ATOM      9  C   UNL     1      -0.018   1.501   0.010  0.00  0.00    +0.212 C 
ATOM     10  O   UNL     1      -1.001   2.211   0.019  0.00  0.00    -0.277 OA
ATOM     11  C   UNL     1       0.002  -0.004   0.002  0.00  0.00    +0.053 C 
ATOM     12  C   UNL     1      -0.732  -0.565  -1.221  0.00  0.00    +0.089 C 
ATOM     13  C   UNL     1      -2.141  -0.922  -0.699  0.00  0.00    +0.074 C 
ATOM     14  C   UNL     1      -2.126  -0.579   0.802  0.00  0.00    -0.054 C 
ATOM     15  C   UNL     1      -0.316  -1.983   1.355  0.00  0.00    -0.076 C 
ATOM     16  C   UNL     1      -1.554  -2.643   1.996  0.00  0.00    -0.020 C 
ATOM     17  C   UNL     1      -2.738  -1.733   1.617  0.00  0.00    -0.016 C 
ATOM     18  C   UNL     1      -3.063   0.032  -1.423  0.00  0.00    +0.228 C 
ATOM     19  O   UNL     1      -4.269   0.068  -1.303  0.00  0.00    -0.275 OA
ATOM     20  N   UNL     1      -2.341   0.831  -2.217  0.00  0.00    -0.210 N 
ATOM     21  C   UNL     1      -1.023   0.605  -2.182  0.00  0.00    +0.229 C 
ATOM     22  O   UNL     1      -0.191   1.212  -2.822  0.00  0.00    -0.275 OA
ATOM     23  H   UNL     1       1.540   2.836   0.003  0.00  0.00    +0.155 HD
ATOM     24  N   UNL     1      -0.722  -0.583   1.144  0.00  0.00    +0.395 N 
ATOM     25  H   UNL     1      -0.549  -0.031   1.993  0.00  0.00    -0.079 HD
ENDROOT
BRANCH  20  26
ATOM     26  C   UNL     1      -2.919   1.825  -3.020  0.00  0.00    +0.050 A 
ATOM     27  C   UNL     1      -3.098   3.106  -2.517  0.00  0.00    +0.072 A 
ATOM     28  C   UNL     1      -3.664   4.088  -3.316  0.00  0.00    +0.152 A 
ATOM     29  C   UNL     1      -4.060   3.785  -4.611  0.00  0.00    +0.168 A 
ATOM     30  C   UNL     1      -3.886   2.507  -5.107  0.00  0.00    +0.041 A 
ATOM     31  C   UNL     1      -3.317   1.527  -4.316  0.00  0.00    -0.026 A 
ATOM     32  C   UNL     1      -3.129   0.135  -4.861  0.00  0.00    +0.046 C 
BRANCH  29  33
ATOM     33  N   UNL     1      -4.669   4.832  -5.462  0.00  0.00    +0.060 N 
ATOM     34  O   UNL     1      -5.016   4.567  -6.599  0.00  0.00    -0.126 OA
ATOM     35  O   UNL     1      -4.822   5.958  -5.025  0.00  0.00    -0.126 OA
ENDBRANCH  29  33
BRANCH  28  36
ATOM     36  O   UNL     1      -3.835   5.345  -2.829  0.00  0.00    -0.493 OA
ATOM     37  C   UNL     1      -3.404   5.586  -1.488  0.00  0.00    +0.277 C 
ENDBRANCH  28  36
ENDBRANCH  20  26
TORSDOF 3
