REMARK  Name = ZINC57316469
REMARK  7 active torsions:
REMARK  status: ('A' for Active; 'I' for Inactive)
REMARK    1  A    between atoms: C_4  and  C_7
REMARK    2  A    between atoms: C_10  and  C_13
REMARK    3  A    between atoms: N_15  and  C_16
REMARK    4  A    between atoms: C_16  and  N_18
REMARK    5  A    between atoms: N_18  and  C_19
REMARK    6  A    between atoms: C_19  and  C_20
REMARK    7  A    between atoms: C_23  and  C_25
REMARK                            x       y       z     vdW  Elec       q    Type
REMARK                         _______ _______ _______ _____ _____    ______ ____
ROOT
ATOM      1  C   UNL     1       8.610  -4.757  -0.116  0.00  0.00    +0.137 C 
ATOM      2  S   UNL     1      10.079  -3.877  -0.119  0.00  0.00    -0.018 S 
ENDROOT
BRANCH   1   5
ATOM      3  C   UNL     1       7.411  -2.754  -0.086  0.00  0.00    +0.250 C 
ATOM      4  O   UNL     1       8.454  -2.130  -0.089  0.00  0.00    -0.270 OA
ATOM      5  N   UNL     1       7.432  -4.101  -0.100  0.00  0.00    -0.264 N 
ATOM      6  H   UNL     1       6.600  -4.600  -0.097  0.00  0.00    +0.157 HD
BRANCH   3  10
ATOM      7  C   UNL     1       3.698  -0.688  -0.037  0.00  0.00    -0.018 A 
ATOM      8  C   UNL     1       4.895   0.029  -0.040  0.00  0.00    +0.009 A 
ATOM      9  C   UNL     1       6.098  -0.639  -0.056  0.00  0.00    +0.013 A 
ATOM     10  C   UNL     1       6.121  -2.036  -0.069  0.00  0.00    +0.037 A 
ATOM     11  C   UNL     1       4.921  -2.753  -0.066  0.00  0.00    +0.013 A 
ATOM     12  C   UNL     1       3.719  -2.083  -0.045  0.00  0.00    +0.009 A 
BRANCH   7  16
ATOM     13  C   UNL     1      -0.017   1.379   0.010  0.00  0.00    +0.000 A 
ATOM     14  C   UNL     1       1.169   2.092   0.002  0.00  0.00    +0.001 A 
ATOM     15  C   UNL     1       2.377   1.427  -0.013  0.00  0.00    +0.008 A 
ATOM     16  C   UNL     1       2.402   0.033  -0.021  0.00  0.00    -0.018 A 
ATOM     17  C   UNL     1       1.205  -0.680  -0.013  0.00  0.00    +0.008 A 
ATOM     18  C   UNL     1       0.002  -0.004   0.002  0.00  0.00    +0.001 A 
ENDBRANCH   7  16
ENDBRANCH   3  10
ENDBRANCH   1   5
BRANCH   1  19
ATOM     19  N   UNL     1       8.631  -6.104  -0.129  0.00  0.00    -0.319 N 
ATOM     20  H   UNL     1       7.799  -6.602  -0.126  0.00  0.00    +0.148 HD
BRANCH  19  21
ATOM     21  C   UNL     1       9.911  -6.816  -0.146  0.00  0.00    +0.177 C 
BRANCH  21  22
ATOM     22  C   UNL     1       9.659  -8.302  -0.158  0.00  0.00    +0.123 A 
ATOM     23  C   UNL     1       9.524  -9.067  -1.259  0.00  0.00    +0.047 A 
ATOM     24  C   UNL     1       9.302 -10.388  -0.819  0.00  0.00    +0.050 A 
ATOM     25  C   UNL     1       9.315 -10.355   0.540  0.00  0.00    +0.135 A 
ATOM     26  O   UNL     1       9.538  -9.085   0.927  0.00  0.00    -0.458 OA
BRANCH  25  27
ATOM     27  C   UNL     1       9.123 -11.514   1.437  0.00  0.00    +0.017 A 
ATOM     28  C   UNL     1       8.910 -12.786   0.903  0.00  0.00    +0.012 A 
ATOM     29  C   UNL     1       8.732 -13.864   1.745  0.00  0.00    +0.016 A 
ATOM     30  C   UNL     1       8.762 -13.685   3.118  0.00  0.00    +0.018 A 
ATOM     31  C   UNL     1       8.973 -12.426   3.654  0.00  0.00    +0.016 A 
ATOM     32  C   UNL     1       9.159 -11.342   2.822  0.00  0.00    +0.012 A 
ATOM     33 BR   UNL     1       8.515 -15.168   4.265  0.00  0.00    -0.050 Br
ENDBRANCH  25  27
ENDBRANCH  21  22
ENDBRANCH  19  21
ENDBRANCH   1  19
TORSDOF 7
