REMARK  Name = ZINC33916777
REMARK  6 active torsions:
REMARK  status: ('A' for Active; 'I' for Inactive)
REMARK    1  A    between atoms: C_4  and  N_7
REMARK    2  A    between atoms: C_12  and  C_24
REMARK    3  A    between atoms: N_14  and  C_20
REMARK    4  A    between atoms: C_20  and  C_21
REMARK    5  A    between atoms: C_27  and  O_30
REMARK    6  A    between atoms: O_30  and  C_31
REMARK                            x       y       z     vdW  Elec       q    Type
REMARK                         _______ _______ _______ _____ _____    ______ ____
ROOT
ATOM      1  N   UNL     1       1.793  -1.082  -0.684  0.00  0.00    -0.208 N 
ATOM      2  C   UNL     1       2.283  -2.357  -0.562  0.00  0.00    +0.234 C 
ATOM      3  O   UNL     1       1.692  -3.398  -0.758  0.00  0.00    -0.274 OA
ATOM      4  C   UNL     1       3.657  -2.189  -0.149  0.00  0.00    +0.139 C 
ATOM      5  C   UNL     1       4.920  -2.946  -0.152  0.00  0.00    +0.130 C 
ATOM      6  N   UNL     1       5.950  -1.856  -0.058  0.00  0.00    -0.170 NA
ATOM      7  O   UNL     1       5.213  -0.559  -0.110  0.00  0.00    -0.282 OA
ATOM      8  C   UNL     1       4.065  -0.872  -0.920  0.00  0.00    +0.242 C 
ATOM      9  C   UNL     1       2.777  -0.135  -0.672  0.00  0.00    +0.258 C 
ATOM     10  O   UNL     1       2.641   1.056  -0.496  0.00  0.00    -0.272 OA
ENDROOT
BRANCH   1  14
ATOM     11  C   UNL     1      -2.261  -0.193  -1.069  0.00  0.00    +0.000 A 
ATOM     12  C   UNL     1      -1.329   0.828  -1.065  0.00  0.00    +0.002 A 
ATOM     13  C   UNL     1       0.016   0.536  -0.938  0.00  0.00    +0.024 A 
ATOM     14  C   UNL     1       0.430  -0.783  -0.813  0.00  0.00    +0.044 A 
ATOM     15  C   UNL     1      -0.509  -1.806  -0.817  0.00  0.00    +0.024 A 
ATOM     16  C   UNL     1      -1.852  -1.508  -0.945  0.00  0.00    +0.002 A 
ENDBRANCH   1  14
BRANCH   5  17
ATOM     17  C   UNL     1       5.074  -3.726  -1.432  0.00  0.00    -0.027 A 
ATOM     18  C   UNL     1       5.518  -3.092  -2.578  0.00  0.00    +0.009 A 
ATOM     19  C   UNL     1       5.661  -3.804  -3.752  0.00  0.00    +0.046 A 
ATOM     20  C   UNL     1       5.358  -5.158  -3.782  0.00  0.00    +0.128 A 
ATOM     21  C   UNL     1       4.913  -5.793  -2.631  0.00  0.00    +0.046 A 
ATOM     22  C   UNL     1       4.777  -5.077  -1.458  0.00  0.00    +0.009 A 
BRANCH  20  23
ATOM     23  O   UNL     1       5.497  -5.862  -4.937  0.00  0.00    -0.456 OA
BRANCH  23  24
ATOM     24  C   UNL     1       5.943  -5.200  -6.037  0.00  0.00    +0.128 A 
ATOM     25  C   UNL     1       7.304  -5.129  -6.301  0.00  0.00    +0.046 A 
ATOM     26  C   UNL     1       7.754  -4.456  -7.420  0.00  0.00    +0.004 A 
ATOM     27  C   UNL     1       6.851  -3.853  -8.276  0.00  0.00    +0.000 A 
ATOM     28  C   UNL     1       5.495  -3.922  -8.015  0.00  0.00    +0.004 A 
ATOM     29  C   UNL     1       5.039  -4.600  -6.901  0.00  0.00    +0.046 A 
ENDBRANCH  23  24
ENDBRANCH  20  23
ENDBRANCH   5  17
BRANCH   6  30
ATOM     30  C   UNL     1       6.727  -1.972   1.183  0.00  0.00    +0.210 C 
BRANCH  30  31
ATOM     31  C   UNL     1       7.827  -0.941   1.185  0.00  0.00    +0.227 C 
ATOM     32  O   UNL     1       7.951  -0.185   0.244  0.00  0.00    -0.275 OA
ATOM     33  N   UNL     1       8.672  -0.859   2.231  0.00  0.00    -0.328 N 
ATOM     34  H   UNL     1       8.573  -1.464   2.983  0.00  0.00    +0.145 HD
ATOM     35  H   UNL     1       9.380  -0.196   2.232  0.00  0.00    +0.145 HD
ENDBRANCH  30  31
ENDBRANCH   6  30
TORSDOF 6
