REMARK  Name = ZINC39673829
REMARK  10 active torsions:
REMARK  status: ('A' for Active; 'I' for Inactive)
REMARK    1  A    between atoms: C_1  and  C_2
REMARK    2  A    between atoms: C_2  and  C_3
REMARK    3  A    between atoms: C_3  and  C_4
REMARK    4  A    between atoms: C_4  and  C_6
REMARK    5  A    between atoms: C_4  and  N_7
REMARK    6  A    between atoms: C_8  and  C_10
REMARK    7  A    between atoms: C_21  and  C_23
REMARK    8  A    between atoms: C_23  and  O_24
REMARK    9  A    between atoms: O_24  and  C_25
REMARK   10  A    between atoms: C_35  and  C_36
REMARK                            x       y       z     vdW  Elec       q    Type
REMARK                         _______ _______ _______ _____ _____    ______ ____
ROOT
ATOM      1  C   UNL     1       2.131  -4.220  -1.602  0.00  0.00    +0.100 C 
ATOM      2  C   UNL     1       3.637  -4.213  -1.255  0.00  0.00    +0.121 C 
ATOM      3  N   UNL     1       3.924  -5.595  -0.805  0.00  0.00    -0.297 N 
ATOM      4  C   UNL     1       3.129  -6.452  -1.718  0.00  0.00    +0.115 C 
ATOM      5  C   UNL     1       1.803  -5.690  -1.908  0.00  0.00    -0.004 C 
ATOM      6  C   UNL     1       1.312  -5.834  -3.346  0.00  0.00    -0.010 C 
ATOM      7  C   UNL     1       0.937  -7.295  -3.609  0.00  0.00    -0.082 C 
ATOM      8  N   UNL     1      -0.112  -7.709  -2.669  0.00  0.00    +0.379 N 
ATOM      9  C   UNL     1       0.398  -7.657  -1.294  0.00  0.00    -0.082 C 
ATOM     10  C   UNL     1       0.751  -6.211  -0.933  0.00  0.00    -0.010 C 
ATOM     11  C   UNL     1       4.726  -5.986   0.205  0.00  0.00    +0.253 C 
ATOM     12  O   UNL     1       4.859  -7.165   0.452  0.00  0.00    -0.272 OA
ATOM     13  H   UNL     1      -0.904  -7.090  -2.756  0.00  0.00    -0.086 HD
ATOM     14  H   UNL     1      -0.401  -8.652  -2.884  0.00  0.00    -0.086 HD
ENDROOT
BRANCH   1  16
ATOM     15  N   UNL     1       0.142  -3.114  -0.632  0.00  0.00    -0.312 N 
ATOM     16  C   UNL     1       1.321  -3.735  -0.427  0.00  0.00    +0.218 C 
ATOM     17  O   UNL     1       1.729  -3.902   0.702  0.00  0.00    -0.275 OA
ATOM     18  H   UNL     1      -0.185  -2.980  -1.536  0.00  0.00    +0.149 HD
BRANCH  15  19
ATOM     19  C   UNL     1      -0.646  -2.643   0.509  0.00  0.00    +0.070 C 
ATOM     20  C   UNL     1      -0.156  -1.256   0.929  0.00  0.00    +0.028 C 
BRANCH  19  21
ATOM     21  C   UNL     1      -2.122  -2.564   0.113  0.00  0.00    +0.022 C 
BRANCH  21  23
ATOM     22  C   UNL     1      -4.121  -3.892  -0.584  0.00  0.00    +0.004 C 
ATOM     23  C   UNL     1      -2.645  -3.970  -0.187  0.00  0.00    -0.002 C 
ENDBRANCH  21  23
ENDBRANCH  19  21
ENDBRANCH  15  19
ENDBRANCH   1  16
BRANCH  11  24
ATOM     24  C   UNL     1       5.457  -4.956   1.028  0.00  0.00    +0.324 C 
BRANCH  24  25
ATOM     25  O   UNL     1       6.236  -5.612   2.029  0.00  0.00    -0.479 OA
BRANCH  25  26
ATOM     26  C   UNL     1       6.963  -4.821   2.863  0.00  0.00    +0.164 A 
ATOM     27  C   UNL     1       6.921  -3.446   2.724  0.00  0.00    +0.049 A 
ATOM     28  C   UNL     1       7.658  -2.628   3.568  0.00  0.00    +0.004 A 
ATOM     29  C   UNL     1       8.442  -3.175   4.559  0.00  0.00    +0.012 A 
ATOM     30  C   UNL     1       8.495  -4.564   4.714  0.00  0.00    +0.024 A 
ATOM     31  C   UNL     1       7.746  -5.394   3.863  0.00  0.00    +0.181 A 
ATOM     32  O   UNL     1       7.795  -6.735   4.018  0.00  0.00    -0.418 OA
ATOM     33  C   UNL     1       8.543  -7.303   4.975  0.00  0.00    +0.338 A 
ATOM     34  O   UNL     1       8.557  -8.516   5.077  0.00  0.00    -0.245 OA
ATOM     35  C   UNL     1       9.316  -6.529   5.868  0.00  0.00    +0.096 A 
ATOM     36  C   UNL     1       9.320  -5.177   5.759  0.00  0.00    -0.033 A 
ATOM     37  C   UNL     1      10.137  -4.326   6.698  0.00  0.00    +0.045 C 
ENDBRANCH  25  26
ENDBRANCH  24  25
ENDBRANCH  11  24
TORSDOF 7
