REMARK  Name = ZINC33872687
REMARK  2 active torsions:
REMARK  status: ('A' for Active; 'I' for Inactive)
REMARK    1  A    between atoms: C_6  and  N_7
REMARK    2  A    between atoms: N_9  and  C_10
REMARK                            x       y       z     vdW  Elec       q    Type
REMARK                         _______ _______ _______ _____ _____    ______ ____
ROOT
ATOM      1  N   UNL     1      -1.268  -0.612  -0.098  0.00  0.00    -0.240 NA
ATOM      2  C   UNL     1      -2.078  -0.445   0.908  0.00  0.00    +0.186 C 
ATOM      3  N   UNL     1      -1.936   0.642   1.729  0.00  0.00    -0.305 N 
ATOM      4  H   UNL     1      -1.184   1.243   1.612  0.00  0.00    +0.153 HD
ENDROOT
BRANCH   1  10
ATOM      5  C   UNL     1      -0.777   1.666  -0.659  0.00  0.00    +0.031 A 
ATOM      6  C   UNL     1       0.146   2.644  -0.973  0.00  0.00    +0.051 A 
ATOM      7  C   UNL     1       1.495   2.334  -1.041  0.00  0.00    +0.166 A 
ATOM      8  C   UNL     1       1.926   1.032  -0.792  0.00  0.00    +0.168 A 
ATOM      9  C   UNL     1       1.006   0.048  -0.477  0.00  0.00    +0.077 A 
ATOM     10  C   UNL     1      -0.352   0.361  -0.409  0.00  0.00    +0.069 A 
ATOM     11  O   UNL     1       3.284   0.989  -0.921  0.00  0.00    -0.453 OA
ATOM     12  C   UNL     1       3.638   2.179  -1.651  0.00  0.00    +0.466 C 
ATOM     13  O   UNL     1       2.586   3.106  -1.326  0.00  0.00    -0.453 OA
ENDBRANCH   1  10
BRANCH   3  14
ATOM     14  C   UNL     1      -2.876   0.885   2.738  0.00  0.00    +0.036 A 
ATOM     15  C   UNL     1      -4.022   0.105   2.821  0.00  0.00    +0.027 A 
ATOM     16  C   UNL     1      -4.950   0.344   3.817  0.00  0.00    +0.051 A 
ATOM     17  C   UNL     1      -4.740   1.360   4.735  0.00  0.00    +0.166 A 
ATOM     18  C   UNL     1      -3.591   2.144   4.654  0.00  0.00    +0.168 A 
ATOM     19  C   UNL     1      -2.659   1.901   3.659  0.00  0.00    +0.072 A 
ATOM     20  O   UNL     1      -3.620   3.065   5.660  0.00  0.00    -0.453 OA
ATOM     21  C   UNL     1      -4.988   3.104   6.107  0.00  0.00    +0.466 C 
ATOM     22  O   UNL     1      -5.488   1.792   5.793  0.00  0.00    -0.453 OA
ENDBRANCH   3  14
TORSDOF 2
