REMARK  Name = ZINC08313893
REMARK  9 active torsions:
REMARK  status: ('A' for Active; 'I' for Inactive)
REMARK    1  A    between atoms: C_1  and  C_2
REMARK    2  A    between atoms: N_5  and  S_8
REMARK    3  A    between atoms: S_8  and  C_11
REMARK    4  A    between atoms: C_14  and  C_17
REMARK    5  A    between atoms: N_19  and  CA_20
REMARK    6  A    between atoms: CA_20  and  CB_22
REMARK    7  A    between atoms: CA_20  and  C_26
REMARK    8  A    between atoms: CB_22  and  CG2_24
REMARK    9  A    between atoms: CB_22  and  OG1_25
REMARK                            x       y       z     vdW  Elec       q    Type
REMARK                         _______ _______ _______ _____ _____    ______ ____
ROOT
ATOM      1  C   UNK A   0      -3.647  -2.178   0.027  0.00  0.00    +0.106 A 
ATOM      2  C   UNK A   0      -2.442  -2.856   0.011  0.00  0.00    +0.029 A 
ATOM      3  C   UNK A   0      -1.253  -2.156   0.002  0.00  0.00    +0.015 A 
ATOM      4  C   UNK A   0      -1.268  -0.761   0.010  0.00  0.00    +0.037 A 
ATOM      5  C   UNK A   0      -2.488  -0.082   0.031  0.00  0.00    +0.015 A 
ATOM      6  C   UNK A   0      -3.670  -0.794   0.034  0.00  0.00    +0.029 A 
ENDROOT
BRANCH   4   7
ATOM      7  C   UNK A   0       0.002  -0.004   0.002  0.00  0.00    +0.245 C 
ATOM      8  O   UNK A   0       1.063  -0.597  -0.011  0.00  0.00    -0.270 OA
ATOM      9  N   THR A   1      -0.016   1.344   0.009  0.00  0.00    -0.296 N 
ATOM     10  H   THR A   1      -0.863   1.817   0.016  0.00  0.00    +0.150 HD
BRANCH   9  11
ATOM     11  CA  THR A   1       1.242   2.093   0.001  0.00  0.00    +0.215 C 
BRANCH  11  12
ATOM     12  C   THR A   1       1.724   2.252  -1.418  0.00  0.00    +0.378 C 
ATOM     13  O   THR A   1       1.081   1.786  -2.329  0.00  0.00    -0.244 OA
ATOM     14  OXT THR A   1       2.866   2.910  -1.669  0.00  0.00    -0.244 OA
ENDBRANCH  11  12
BRANCH  11  15
ATOM     15  CB  THR A   1       1.018   3.474   0.621  0.00  0.00    +0.143 C 
ATOM     16  CG2 THR A   1       2.355   4.210   0.727  0.00  0.00    +0.040 C 
BRANCH  15  17
ATOM     17  OG1 THR A   1       0.124   4.226  -0.203  0.00  0.00    -0.390 OA
ATOM     18  HG1 THR A   1       0.445   4.366  -1.105  0.00  0.00    +0.210 HD
ENDBRANCH  15  17
ENDBRANCH  11  15
ENDBRANCH   9  11
ENDBRANCH   4   7
BRANCH   1  19
ATOM     19  S   UNK A   0      -5.161  -3.079   0.037  0.00  0.00    +0.061 S 
ATOM     20  O   UNK A   0      -6.153  -2.214  -0.499  0.00  0.00    -0.153 OA
ATOM     21  O   UNK A   0      -4.878  -4.354  -0.524  0.00  0.00    -0.153 OA
BRANCH  19  26
ATOM     22  C   UNK A   0      -8.280  -4.988   4.454  0.00  0.00    +0.007 C 
ATOM     23  C   UNK A   0      -7.088  -4.271   3.815  0.00  0.00    -0.012 C 
ATOM     24  C   UNK A   0      -7.592  -3.107   2.960  0.00  0.00    +0.020 C 
ATOM     25  C   UNK A   0      -6.395  -2.370   2.351  0.00  0.00    +0.110 C 
ATOM     26  N   UNK A   0      -5.566  -3.339   1.621  0.00  0.00    -0.177 NA
ATOM     27  C   UNK A   0      -5.107  -4.545   2.323  0.00  0.00    +0.110 C 
ATOM     28  C   UNK A   0      -6.314  -5.255   2.935  0.00  0.00    +0.020 C 
ENDBRANCH  19  26
ENDBRANCH   1  19
TORSDOF 7
