REMARK  Name = ZINC39887817
REMARK  7 active torsions:
REMARK  status: ('A' for Active; 'I' for Inactive)
REMARK    1  A    between atoms: C_1  and  C_2
REMARK    2  A    between atoms: C_5  and  N_8
REMARK    3  A    between atoms: C_9  and  C_11
REMARK    4  A    between atoms: C_11  and  C_12
REMARK    5  A    between atoms: N_18  and  N_19
REMARK    6  A    between atoms: C_20  and  C_21
REMARK    7  A    between atoms: C_24  and  C_26
REMARK                            x       y       z     vdW  Elec       q    Type
REMARK                         _______ _______ _______ _____ _____    ______ ____
ROOT
ATOM      1  C   UNL     1       0.424  -6.867   2.557  0.00  0.00    +0.149 C 
ATOM      2  C   UNL     1       0.532  -8.383   2.589  0.00  0.00    +0.233 C 
ATOM      3  O   UNL     1      -0.353  -9.101   2.175  0.00  0.00    -0.274 OA
ATOM      4  N   UNL     1       1.652  -8.870   3.096  0.00  0.00    -0.263 N 
ATOM      5  C   UNL     1       2.664  -8.060   3.568  0.00  0.00    +0.183 C 
ATOM      6  N   UNL     1       3.817  -8.422   4.091  0.00  0.00    -0.127 NA
ATOM      7  S   UNL     1       2.042  -6.405   3.304  0.00  0.00    -0.075 S 
ATOM      8  H   UNL     1       1.766  -9.832   3.137  0.00  0.00    +0.157 HD
ENDROOT
BRANCH   6   9
ATOM      9  N   UNL     1       4.108  -9.673   4.210  0.00  0.00    -0.152 NA
ATOM     10  C   UNL     1       5.254 -10.033   4.731  0.00  0.00    +0.181 C 
BRANCH  10  11
ATOM     11  C   UNL     1       5.574 -11.407   4.861  0.00  0.00    +0.148 A 
ATOM     12  C   UNL     1       6.738 -11.922   5.394  0.00  0.00    +0.051 A 
ATOM     13  C   UNL     1       6.631 -13.317   5.327  0.00  0.00    +0.050 A 
ATOM     14  C   UNL     1       5.421 -13.600   4.763  0.00  0.00    +0.137 A 
ATOM     15  O   UNL     1       4.790 -12.441   4.492  0.00  0.00    -0.454 OA
BRANCH  14  16
ATOM     16  C   UNL     1       4.891 -14.951   4.499  0.00  0.00    +0.037 A 
ATOM     17  C   UNL     1       5.676 -15.896   3.835  0.00  0.00    +0.033 A 
ATOM     18  C   UNL     1       5.173 -17.158   3.591  0.00  0.00    +0.042 A 
ATOM     19  C   UNL     1       3.893 -17.489   4.005  0.00  0.00    +0.021 A 
ATOM     20  C   UNL     1       3.109 -16.558   4.663  0.00  0.00    +0.022 A 
ATOM     21  C   UNL     1       3.602 -15.293   4.919  0.00  0.00    +0.052 A 
ATOM     22 CL   UNL     1       2.620 -14.129   5.752  0.00  0.00    -0.083 Cl
ATOM     23 CL   UNL     1       6.146 -18.334   2.765  0.00  0.00    -0.084 Cl
ENDBRANCH  14  16
ENDBRANCH  10  11
ENDBRANCH   6   9
BRANCH   1  24
ATOM     24  C   UNL     1       0.309  -6.349   1.121  0.00  0.00    +0.120 C 
BRANCH  24  26
ATOM     25  N   UNL     1       0.059  -4.170  -0.021  0.00  0.00    -0.285 N 
ATOM     26  C   UNL     1       0.175  -4.848   1.138  0.00  0.00    +0.219 C 
ATOM     27  O   UNL     1       0.173  -4.251   2.193  0.00  0.00    -0.275 OA
ATOM     28  H   UNL     1      -0.017  -4.651  -0.860  0.00  0.00    +0.155 HD
BRANCH  25  33
ATOM     29  C   UNL     1       0.008   1.503   0.007  0.00  0.00    +0.044 C 
ATOM     30  C   UNL     1       0.022  -0.004  -0.001  0.00  0.00    -0.050 A 
ATOM     31  C   UNL     1       0.777  -0.692   0.931  0.00  0.00    +0.005 A 
ATOM     32  C   UNL     1       0.791  -2.073   0.927  0.00  0.00    +0.023 A 
ATOM     33  C   UNL     1       0.046  -2.771  -0.014  0.00  0.00    +0.033 A 
ATOM     34  C   UNL     1      -0.712  -2.077  -0.948  0.00  0.00    +0.023 A 
ATOM     35  C   UNL     1      -0.726  -0.696  -0.936  0.00  0.00    +0.005 A 
ENDBRANCH  25  33
ENDBRANCH  24  26
ENDBRANCH   1  24
TORSDOF 6
