REMARK  Name = ZINC59791442
REMARK  8 active torsions:
REMARK  status: ('A' for Active; 'I' for Inactive)
REMARK    1  A    between atoms: C_1  and  N_2
REMARK    2  A    between atoms: C_6  and  S_7
REMARK    3  A    between atoms: S_7  and  C_8
REMARK    4  A    between atoms: C_11  and  C_19
REMARK    5  A    between atoms: N_12  and  C_13
REMARK    6  A    between atoms: C_22  and  N_25
REMARK    7  A    between atoms: N_28  and  C_35
REMARK    8  A    between atoms: N_31  and  C_34
REMARK                            x       y       z     vdW  Elec       q    Type
REMARK                         _______ _______ _______ _____ _____    ______ ____
ROOT
ATOM      1  C   UNL     1       0.061  -1.694   3.647  0.00  0.00    +0.204 A 
ATOM      2  N   UNL     1       0.079  -2.945   3.146  0.00  0.00    -0.121 NA
ATOM      3  N   UNL     1       0.098  -3.795   4.111  0.00  0.00    -0.128 NA
ATOM      4  C   UNL     1       0.093  -3.143   5.290  0.00  0.00    +0.169 A 
ATOM      5  N   UNL     1       0.076  -1.803   5.017  0.00  0.00    -0.270 N 
ENDROOT
BRANCH   5   6
ATOM      6  C   UNL     1       0.071  -0.754   5.945  0.00  0.00    +0.051 A 
ATOM      7  C   UNL     1       1.168  -0.551   6.772  0.00  0.00    +0.026 A 
ATOM      8  C   UNL     1       1.160   0.484   7.686  0.00  0.00    +0.002 A 
ATOM      9  C   UNL     1       0.061   1.318   7.779  0.00  0.00    +0.000 A 
ATOM     10  C   UNL     1      -1.034   1.118   6.958  0.00  0.00    +0.002 A 
ATOM     11  C   UNL     1      -1.029   0.088   6.037  0.00  0.00    +0.026 A 
ENDBRANCH   5   6
BRANCH   4  12
ATOM     12  C   UNL     1       0.111  -3.755   6.619  0.00  0.00    +0.020 A 
ATOM     13  C   UNL     1      -0.217  -2.993   7.755  0.00  0.00    +0.014 A 
ATOM     14  C   UNL     1      -0.199  -3.576   8.995  0.00  0.00    +0.033 A 
ATOM     15  C   UNL     1       0.142  -4.914   9.132  0.00  0.00    +0.126 A 
ATOM     16  C   UNL     1       0.467  -5.675   8.019  0.00  0.00    +0.033 A 
ATOM     17  C   UNL     1       0.449  -5.112   6.769  0.00  0.00    +0.014 A 
BRANCH  15  18
ATOM     18  N   UNL     1       0.159  -5.534  10.476  0.00  0.00    +0.056 N 
ATOM     19  O   UNL     1      -0.148  -4.816  11.537  0.00  0.00    -0.126 OA
ATOM     20  O   UNL     1       0.481  -6.803  10.612  0.00  0.00    -0.126 OA
ENDBRANCH  15  18
ENDBRANCH   4  12
BRANCH   1  21
ATOM     21  S   UNL     1       0.033  -0.284   2.772  0.00  0.00    -0.012 S 
BRANCH  21  27
ATOM     22  C   UNL     1      -0.018   1.461   0.010  0.00  0.00    +0.151 C 
ATOM     23  N   UNL     1       0.002  -0.004   0.002  0.00  0.00    -0.316 N 
ATOM     24  C   UNL     1       0.008  -0.812  -1.101  0.00  0.00    +0.152 A 
ATOM     25  C   UNL     1       0.029  -2.136  -0.629  0.00  0.00    +0.169 A 
ATOM     26  N   UNL     1       0.035  -2.085   0.696  0.00  0.00    -0.203 NA
ATOM     27  C   UNL     1       0.024  -0.823   1.094  0.00  0.00    +0.179 A 
ATOM     28  N   UNL     1       0.039  -3.166  -1.551  0.00  0.00    -0.280 N 
ATOM     29  C   UNL     1       0.030  -2.909  -2.870  0.00  0.00    +0.333 A 
ATOM     30  O   UNL     1       0.039  -3.844  -3.647  0.00  0.00    -0.246 OA
ATOM     31  N   UNL     1       0.010  -1.661  -3.366  0.00  0.00    -0.262 N 
ATOM     32  C   UNL     1      -0.002  -0.586  -2.548  0.00  0.00    +0.282 A 
ATOM     33  O   UNL     1      -0.020   0.542  -3.002  0.00  0.00    -0.265 OA
ATOM     34  C   UNL     1       0.001  -1.462  -4.817  0.00  0.00    +0.157 C 
ATOM     35  C   UNL     1       0.061  -4.555  -1.085  0.00  0.00    +0.155 C 
ENDBRANCH  21  27
ENDBRANCH   1  21
TORSDOF 5
