REMARK  Name = ZINC40476933
REMARK  10 active torsions:
REMARK  status: ('A' for Active; 'I' for Inactive)
REMARK    1  A    between atoms: C_1  and  C_2
REMARK    2  A    between atoms: C_2  and  O_3
REMARK    3  A    between atoms: O_3  and  C_4
REMARK    4  A    between atoms: C_4  and  C_6
REMARK    5  A    between atoms: C_10  and  N_11
REMARK    6  A    between atoms: N_11  and  C_12
REMARK    7  A    between atoms: C_23  and  C_27
REMARK    8  A    between atoms: C_27  and  C_28
REMARK    9  A    between atoms: C_27  and  C_29
REMARK   10  A    between atoms: C_27  and  C_30
REMARK                            x       y       z     vdW  Elec       q    Type
REMARK                         _______ _______ _______ _____ _____    ______ ____
ROOT
ATOM      1  C   UNL     1       1.522  -2.236   2.499  0.00  0.00    +0.091 A 
ATOM      2  C   UNL     1       0.860  -2.292   3.791  0.00  0.00    -0.021 A 
ATOM      3  C   UNL     1       1.685  -2.571   4.823  0.00  0.00    -0.004 A 
ATOM      4  S   UNL     1       3.283  -2.750   4.085  0.00  0.00    -0.077 S 
ATOM      5  C   UNL     1       2.888  -2.475   2.476  0.00  0.00    +0.084 A 
ATOM      6  C   UNL     1       1.309  -2.695   6.267  0.00  0.00    +0.046 C 
ATOM      7  C   UNL     1      -0.089  -2.087   6.455  0.00  0.00    -0.000 C 
ATOM      8  C   UNL     1      -1.019  -2.640   5.372  0.00  0.00    +0.009 C 
ATOM      9  C   UNL     1      -0.629  -2.065   4.008  0.00  0.00    +0.037 C 
ENDROOT
BRANCH   7  10
ATOM     10  C   UNL     1      -0.628  -2.461   7.837  0.00  0.00    -0.035 C 
ATOM     11  C   UNL     1       0.311  -1.919   8.916  0.00  0.00    +0.011 C 
ATOM     12  C   UNL     1      -2.021  -1.855   8.022  0.00  0.00    +0.011 C 
ATOM     13  C   UNL     1      -0.715  -3.984   7.955  0.00  0.00    +0.011 C 
ENDBRANCH   7  10
BRANCH   1  14
ATOM     14  C   UNL     1       0.777  -1.946   1.272  0.00  0.00    +0.342 C 
ATOM     15  O   UNL     1       0.286  -2.855   0.629  0.00  0.00    -0.245 OA
BRANCH  14  16
ATOM     16  O   UNL     1       0.635  -0.671   0.854  0.00  0.00    -0.461 OA
BRANCH  16  18
ATOM     17  C   UNL     1      -0.158   1.035  -0.662  0.00  0.00    +0.048 C 
ATOM     18  C   UNL     1      -0.104  -0.462  -0.351  0.00  0.00    +0.229 C 
ENDBRANCH  16  18
ENDBRANCH  14  16
ENDBRANCH   1  14
BRANCH   5  19
ATOM     19  N   UNL     1       3.733  -2.482   1.379  0.00  0.00    -0.314 N 
ATOM     20  H   UNL     1       3.379  -2.305   0.494  0.00  0.00    +0.152 HD
BRANCH  19  21
ATOM     21  C   UNL     1       5.050  -2.736   1.542  0.00  0.00    +0.090 C 
ATOM     22  C   UNL     1       5.912  -2.630   0.468  0.00  0.00    +0.113 C 
ATOM     23  C   UNL     1       5.468  -2.073  -0.823  0.00  0.00    +0.256 C 
ATOM     24  O   UNL     1       4.324  -1.689  -0.978  0.00  0.00    -0.270 OA
ATOM     25  N   UNL     1       6.365  -2.000  -1.828  0.00  0.00    -0.263 N 
ATOM     26  C   UNL     1       7.629  -2.418  -1.671  0.00  0.00    +0.143 C 
ATOM     27  S   UNL     1       8.697  -2.287  -3.002  0.00  0.00    -0.018 S 
ATOM     28  N   UNL     1       8.100  -2.934  -0.527  0.00  0.00    -0.263 N 
ATOM     29  C   UNL     1       7.318  -3.063   0.564  0.00  0.00    +0.256 C 
ATOM     30  O   UNL     1       7.759  -3.529   1.598  0.00  0.00    -0.270 OA
ATOM     31  H   UNL     1       6.090  -1.635  -2.683  0.00  0.00    +0.157 HD
ATOM     32  H   UNL     1       9.027  -3.218  -0.482  0.00  0.00    +0.157 HD
ENDBRANCH  19  21
ENDBRANCH   5  19
TORSDOF 6
