REMARK  Name = ZINC05673183
REMARK  3 active torsions:
REMARK  status: ('A' for Active; 'I' for Inactive)
REMARK    1  A    between atoms: C_11  and  C_14
REMARK    2  A    between atoms: N_12  and  O_13
REMARK    3  A    between atoms: C_18  and  N_20
REMARK                            x       y       z     vdW  Elec       q    Type
REMARK                         _______ _______ _______ _____ _____    ______ ____
ROOT
ATOM      1  C   UNL     1       0.895   0.670   2.697  0.00  0.00    +0.000 A 
ATOM      2  C   UNL     1       2.160   1.226   2.637  0.00  0.00    +0.002 A 
ATOM      3  C   UNL     1       3.068   0.773   1.701  0.00  0.00    +0.024 A 
ATOM      4  C   UNL     1       2.711  -0.242   0.820  0.00  0.00    +0.038 A 
ATOM      5  C   UNL     1       1.445  -0.801   0.882  0.00  0.00    -0.026 A 
ATOM      6  C   UNL     1       0.539  -0.340   1.823  0.00  0.00    +0.005 A 
ATOM      7  C   UNL     1       1.027  -1.909  -0.048  0.00  0.00    +0.038 C 
ATOM      8  C   UNL     1       1.918  -1.930  -1.290  0.00  0.00    +0.024 C 
ATOM      9  C   UNL     1       3.387  -1.938  -0.846  0.00  0.00    +0.113 C 
ATOM     10  N   UNL     1       3.645  -0.684  -0.126  0.00  0.00    -0.282 N 
ATOM     11  C   UNL     1       4.793   0.050  -0.378  0.00  0.00    +0.172 C 
ATOM     12  N   UNL     1       4.732   1.347  -0.454  0.00  0.00    -0.071 NA
ENDROOT
BRANCH  11  13
ATOM     13  C   UNL     1       6.088  -0.642  -0.561  0.00  0.00    +0.021 A 
ATOM     14  C   UNL     1       6.188  -2.014  -0.330  0.00  0.00    +0.011 A 
ATOM     15  C   UNL     1       7.398  -2.654  -0.502  0.00  0.00    +0.003 A 
ATOM     16  C   UNL     1       8.512  -1.937  -0.903  0.00  0.00    +0.033 A 
ATOM     17  C   UNL     1       8.419  -0.576  -1.133  0.00  0.00    +0.127 A 
ATOM     18  C   UNL     1       7.213   0.074  -0.971  0.00  0.00    +0.044 A 
BRANCH  17  19
ATOM     19  N   UNL     1       9.616   0.184  -1.561  0.00  0.00    +0.056 N 
ATOM     20  O   UNL     1      10.672  -0.385  -1.708  0.00  0.00    -0.126 OA
ATOM     21  O   UNL     1       9.536   1.373  -1.762  0.00  0.00    -0.126 OA
ENDBRANCH  17  19
ENDBRANCH  11  13
BRANCH  12  22
ATOM     22  O   UNL     1       3.475   2.000  -0.434  0.00  0.00    -0.408 OA
ATOM     23  H   UNL     1       3.533   2.965  -0.450  0.00  0.00    +0.328 HD
ENDBRANCH  12  22
TORSDOF 3
