REMARK  Name = ZINC16037198
REMARK  6 active torsions:
REMARK  status: ('A' for Active; 'I' for Inactive)
REMARK    1  A    between atoms: C_1  and  O_2
REMARK    2  A    between atoms: O_2  and  C_3
REMARK    3  A    between atoms: C_6  and  C_9
REMARK    4  A    between atoms: C_9  and  C_11
REMARK    5  A    between atoms: N_30  and  C_33
REMARK    6  A    between atoms: C_36  and  N_39
REMARK                            x       y       z     vdW  Elec       q    Type
REMARK                         _______ _______ _______ _____ _____    ______ ____
ROOT
ATOM      1  C   UNL     1       2.645  -4.008   4.303  0.00  0.00    +0.157 C 
ATOM      2  C   UNL     1       3.791  -4.554   3.426  0.00  0.00    +0.118 C 
ATOM      3  C   UNL     1       4.242  -5.843   4.172  0.00  0.00    +0.115 C 
ATOM      4  C   UNL     1       3.787  -5.648   5.619  0.00  0.00    +0.117 C 
ATOM      5  N   UNL     1       2.944  -4.435   5.668  0.00  0.00    -0.317 N 
ATOM      6  C   UNL     1       2.592  -3.815   6.857  0.00  0.00    +0.072 C 
ATOM      7  C   UNL     1       3.493  -3.878   7.858  0.00  0.00    +0.023 C 
ATOM      8  C   UNL     1       4.780  -4.566   7.631  0.00  0.00    -0.019 A 
ATOM      9  C   UNL     1       4.964  -5.456   6.540  0.00  0.00    -0.019 A 
ATOM     10  C   UNL     1       6.148  -6.122   6.326  0.00  0.00    +0.006 A 
ATOM     11  C   UNL     1       7.218  -5.925   7.183  0.00  0.00    +0.000 A 
ATOM     12  C   UNL     1       7.102  -5.059   8.256  0.00  0.00    +0.001 A 
ATOM     13  C   UNL     1       5.853  -4.350   8.498  0.00  0.00    +0.008 A 
ATOM     14  C   UNL     1       3.409  -6.912   3.493  0.00  0.00    +0.232 C 
ATOM     15  O   UNL     1       3.195  -8.024   3.927  0.00  0.00    -0.274 OA
ATOM     16  N   UNL     1       2.949  -6.423   2.332  0.00  0.00    -0.210 N 
ATOM     17  C   UNL     1       3.203  -5.097   2.138  0.00  0.00    +0.232 C 
ATOM     18  O   UNL     1       3.004  -4.459   1.126  0.00  0.00    -0.274 OA
ENDROOT
BRANCH  16  19
ATOM     19  C   UNL     1       2.265  -7.207   1.393  0.00  0.00    +0.044 A 
ATOM     20  C   UNL     1       1.703  -6.615   0.270  0.00  0.00    +0.026 A 
ATOM     21  C   UNL     1       1.030  -7.390  -0.654  0.00  0.00    +0.034 A 
ATOM     22  C   UNL     1       0.915  -8.754  -0.461  0.00  0.00    +0.126 A 
ATOM     23  C   UNL     1       1.473  -9.347   0.657  0.00  0.00    +0.034 A 
ATOM     24  C   UNL     1       2.152  -8.578   1.581  0.00  0.00    +0.026 A 
BRANCH  22  25
ATOM     25  N   UNL     1       0.193  -9.582  -1.453  0.00  0.00    +0.056 N 
ATOM     26  O   UNL     1      -0.296  -9.066  -2.431  0.00  0.00    -0.126 OA
ATOM     27  O   UNL     1       0.092 -10.775  -1.286  0.00  0.00    -0.126 OA
ENDBRANCH  22  25
ENDBRANCH  16  19
BRANCH   1  28
ATOM     28  C   UNL     1       2.606  -2.503   4.228  0.00  0.00    +0.184 C 
ATOM     29  O   UNL     1       3.108  -1.838   5.109  0.00  0.00    -0.290 OA
BRANCH  28  33
ATOM     30  C   UNL     1       0.738  -0.596   0.939  0.00  0.00    +0.120 A 
ATOM     31  C   UNL     1       1.314   0.169   1.948  0.00  0.00    +0.046 A 
ATOM     32  C   UNL     1       1.919  -0.444   3.015  0.00  0.00    +0.015 A 
ATOM     33  C   UNL     1       1.958  -1.842   3.088  0.00  0.00    +0.020 A 
ATOM     34  C   UNL     1       1.377  -2.607   2.069  0.00  0.00    +0.015 A 
ATOM     35  C   UNL     1       0.769  -1.985   1.009  0.00  0.00    +0.046 A 
BRANCH  30  37
ATOM     36  C   UNL     1       0.144   1.444  -0.123  0.00  0.00    +0.277 C 
ATOM     37  O   UNL     1       0.140   0.015  -0.114  0.00  0.00    -0.495 OA
ENDBRANCH  30  37
ENDBRANCH  28  33
ENDBRANCH   1  28
TORSDOF 5
