REMARK  Name = ZINC38577246
REMARK  9 active torsions:
REMARK  status: ('A' for Active; 'I' for Inactive)
REMARK    1  A    between atoms: C_1  and  C_2
REMARK    2  A    between atoms: C_5  and  C_8
REMARK    3  A    between atoms: C_8  and  C_10
REMARK    4  A    between atoms: C_12  and  N_21
REMARK    5  A    between atoms: C_22  and  C_24
REMARK    6  A    between atoms: C_27  and  C_29
REMARK    7  A    between atoms: C_32  and  C_37
REMARK    8  A    between atoms: C_33  and  C_36
REMARK    9  A    between atoms: C_34  and  O_35
REMARK                            x       y       z     vdW  Elec       q    Type
REMARK                         _______ _______ _______ _____ _____    ______ ____
ROOT
ATOM      1  N   UNL     1       1.600  -3.959   2.934  0.00  0.00    -0.299 N 
ATOM      2  C   UNL     1       2.804  -3.436   3.238  0.00  0.00    +0.261 C 
ATOM      3  O   UNL     1       3.801  -3.824   2.658  0.00  0.00    -0.269 OA
ATOM      4  H   UNL     1       0.806  -3.649   3.397  0.00  0.00    +0.150 HD
ENDROOT
BRANCH   1   6
ATOM      5  C   UNL     1       0.075  -5.006   1.280  0.00  0.00    +0.268 C 
ATOM      6  C   UNL     1       1.490  -4.994   1.903  0.00  0.00    +0.155 C 
ATOM      7  C   UNL     1       1.575  -6.379   2.515  0.00  0.00    +0.018 A 
ATOM      8  C   UNL     1       2.432  -6.931   3.441  0.00  0.00    +0.009 A 
ATOM      9  C   UNL     1       2.272  -8.248   3.833  0.00  0.00    +0.001 A 
ATOM     10  C   UNL     1       1.250  -9.006   3.293  0.00  0.00    +0.004 A 
ATOM     11  C   UNL     1       0.392  -8.457   2.362  0.00  0.00    +0.046 A 
ATOM     12  C   UNL     1       0.549  -7.133   1.960  0.00  0.00    +0.127 A 
ATOM     13  O   UNL     1      -0.167  -6.405   1.055  0.00  0.00    -0.478 OA
BRANCH   5  14
ATOM     14  C   UNL     1       0.058  -4.245  -0.021  0.00  0.00    +0.205 C 
ATOM     15  O   UNL     1       0.060  -4.846  -1.075  0.00  0.00    -0.288 OA
BRANCH  14  20
ATOM     16  C   UNL     1      -0.018   1.503   0.010  0.00  0.00    +0.044 C 
ATOM     17  C   UNL     1       0.002  -0.004   0.002  0.00  0.00    -0.050 A 
ATOM     18  C   UNL     1       0.006  -0.686  -1.202  0.00  0.00    +0.004 A 
ATOM     19  C   UNL     1       0.024  -2.064  -1.218  0.00  0.00    +0.012 A 
ATOM     20  C   UNL     1       0.039  -2.774  -0.013  0.00  0.00    +0.021 A 
ATOM     21  C   UNL     1       0.036  -2.078   1.200  0.00  0.00    +0.012 A 
ATOM     22  C   UNL     1       0.023  -0.699   1.199  0.00  0.00    +0.004 A 
ENDBRANCH  14  20
ENDBRANCH   5  14
ENDBRANCH   1   6
BRANCH   2  23
ATOM     23  C   UNL     1       2.914  -2.400   4.269  0.00  0.00    +0.131 C 
ATOM     24  N   UNL     1       1.949  -1.882   4.984  0.00  0.00    -0.148 NA
ATOM     25  N   UNL     1       2.327  -0.991   5.814  0.00  0.00    -0.153 NA
ATOM     26  C   UNL     1       3.619  -0.756   5.801  0.00  0.00    +0.080 C 
ATOM     27  C   UNL     1       4.175  -1.698   4.745  0.00  0.00    +0.120 C 
BRANCH  26  28
ATOM     28  C   UNL     1       4.362   0.199   6.625  0.00  0.00    +0.040 A 
ATOM     29  C   UNL     1       5.750   0.330   6.478  0.00  0.00    +0.013 A 
ATOM     30  C   UNL     1       6.440   1.231   7.257  0.00  0.00    +0.004 A 
ATOM     31  C   UNL     1       5.770   2.010   8.188  0.00  0.00    -0.044 A 
ATOM     32  C   UNL     1       4.403   1.893   8.346  0.00  0.00    -0.005 A 
ATOM     33  C   UNL     1       3.687   0.997   7.568  0.00  0.00    +0.129 A 
ATOM     34  C   UNL     1       3.688   2.746   9.362  0.00  0.00    +0.048 C 
ATOM     35  C   UNL     1       6.540   2.991   9.035  0.00  0.00    +0.044 C 
BRANCH  33  36
ATOM     36  O   UNL     1       2.344   0.884   7.718  0.00  0.00    -0.506 OA
ATOM     37  H   UNL     1       2.075   0.228   8.376  0.00  0.00    +0.292 HD
ENDBRANCH  33  36
ENDBRANCH  26  28
ENDBRANCH   2  23
TORSDOF 6
