REMARK  Name = ZINC24043630
REMARK  6 active torsions:
REMARK  status: ('A' for Active; 'I' for Inactive)
REMARK    1  A    between atoms: C_3  and  N_21
REMARK    2  A    between atoms: C_6  and  N_7
REMARK    3  A    between atoms: C_8  and  C_10
REMARK    4  A    between atoms: C_10  and  C_11
REMARK    5  A    between atoms: N_21  and  S_22
REMARK    6  A    between atoms: S_22  and  C_25
REMARK                            x       y       z     vdW  Elec       q    Type
REMARK                         _______ _______ _______ _____ _____    ______ ____
ROOT
ATOM      1  C   UNL     1      -0.029   1.810  -0.480  0.00  0.00    +0.025 A 
ATOM      2  C   UNL     1       1.223   2.393  -0.438  0.00  0.00    +0.026 A 
ATOM      3  C   UNL     1       2.329   1.637  -0.072  0.00  0.00    +0.048 A 
ATOM      4  C   UNL     1       2.176   0.294   0.251  0.00  0.00    +0.026 A 
ATOM      5  C   UNL     1       0.925  -0.288   0.209  0.00  0.00    +0.025 A 
ATOM      6  C   UNL     1      -0.181   0.469  -0.157  0.00  0.00    +0.033 A 
ENDROOT
BRANCH   6   7
ATOM      7  N   UNL     1      -1.451  -0.122  -0.200  0.00  0.00    -0.285 N 
ATOM      8  C   UNL     1      -1.584  -1.406  -0.587  0.00  0.00    +0.217 C 
ATOM      9  O   UNL     1      -0.599  -2.076  -0.815  0.00  0.00    -0.275 OA
ATOM     10  H   UNL     1      -2.234   0.393   0.050  0.00  0.00    +0.155 HD
BRANCH   8  11
ATOM     11  C   UNL     1      -2.957  -2.009  -0.738  0.00  0.00    +0.100 C 
BRANCH  11  12
ATOM     12  C   UNL     1      -2.827  -3.467  -1.185  0.00  0.00    +0.001 C 
ATOM     13  C   UNL     1      -2.273  -3.541  -2.626  0.00  0.00    +0.007 C 
ATOM     14  C   UNL     1      -3.395  -4.249  -3.445  0.00  0.00    -0.010 C 
ATOM     15  C   UNL     1      -3.362  -5.729  -2.954  0.00  0.00    +0.004 C 
ATOM     16  C   UNL     1      -3.908  -5.673  -1.509  0.00  0.00    +0.004 C 
ATOM     17  C   UNL     1      -4.233  -4.138  -1.266  0.00  0.00    -0.007 C 
ATOM     18  C   UNL     1      -4.674  -3.707  -2.713  0.00  0.00    +0.007 C 
ENDBRANCH  11  12
ENDBRANCH   8  11
ENDBRANCH   6   7
BRANCH   3  19
ATOM     19  N   UNL     1       3.596   2.226  -0.030  0.00  0.00    -0.216 N 
ATOM     20  H   UNL     1       3.897   2.784  -0.764  0.00  0.00    +0.174 HD
BRANCH  19  21
ATOM     21  S   UNL     1       4.584   1.973   1.275  0.00  0.00    +0.072 S 
ATOM     22  O   UNL     1       4.638   0.567   1.477  0.00  0.00    -0.150 OA
ATOM     23  O   UNL     1       5.750   2.756   1.060  0.00  0.00    -0.150 OA
BRANCH  21  24
ATOM     24  C   UNL     1       3.773   2.654   2.683  0.00  0.00    +0.112 A 
ATOM     25  C   UNL     1       3.899   4.001   2.967  0.00  0.00    +0.032 A 
ATOM     26  C   UNL     1       3.264   4.542   4.070  0.00  0.00    +0.051 A 
ATOM     27  C   UNL     1       2.501   3.729   4.891  0.00  0.00    +0.162 A 
ATOM     28  C   UNL     1       2.374   2.377   4.606  0.00  0.00    +0.164 A 
ATOM     29  C   UNL     1       3.007   1.839   3.498  0.00  0.00    +0.078 A 
ATOM     30  O   UNL     1       1.619   1.584   5.420  0.00  0.00    -0.488 OA
ATOM     31  C   UNL     1       2.135   1.367   6.735  0.00  0.00    +0.232 C 
ATOM     32  C   UNL     1       1.742   2.504   7.664  0.00  0.00    +0.082 C 
ATOM     33  C   UNL     1       2.366   3.829   7.253  0.00  0.00    +0.232 C 
ATOM     34  O   UNL     1       1.868   4.251   5.982  0.00  0.00    -0.488 OA
ENDBRANCH  21  24
ENDBRANCH  19  21
ENDBRANCH   3  19
TORSDOF 6
