REMARK  Name = ZINC13723259
REMARK  5 active torsions:
REMARK  status: ('A' for Active; 'I' for Inactive)
REMARK    1  A    between atoms: C_1  and  O_2
REMARK    2  A    between atoms: O_2  and  C_3
REMARK    3  A    between atoms: C_3  and  C_5
REMARK    4  A    between atoms: C_8  and  C_10
REMARK    5  A    between atoms: C_10  and  N_11
REMARK                            x       y       z     vdW  Elec       q    Type
REMARK                         _______ _______ _______ _____ _____    ______ ____
ROOT
ATOM      1  N   UNL     1       5.949  -3.138   7.861  0.00  0.00    -0.203 N 
ATOM      2  C   UNL     1       4.644  -3.345   7.561  0.00  0.00    +0.285 A 
ATOM      3  O   UNL     1       3.933  -4.035   8.272  0.00  0.00    -0.265 OA
ATOM      4  C   UNL     1       4.142  -2.735   6.402  0.00  0.00    +0.108 A 
ATOM      5  C   UNL     1       4.975  -1.949   5.604  0.00  0.00    +0.117 A 
ATOM      6  C   UNL     1       4.352  -1.353   4.412  0.00  0.00    +0.037 A 
ATOM      7  C   UNL     1       4.962  -0.520   3.442  0.00  0.00    -0.029 A 
ATOM      8  C   UNL     1       4.227  -0.061   2.392  0.00  0.00    -0.005 A 
ATOM      9  C   UNL     1       2.874  -0.404   2.285  0.00  0.00    +0.103 A 
ATOM     10  C   UNL     1       2.989  -1.647   4.218  0.00  0.00    +0.089 A 
ATOM     11  S   UNL     1       2.568  -2.688   5.594  0.00  0.00    -0.064 S 
ATOM     12  N   UNL     1       2.125   0.070   1.217  0.00  0.00    -0.312 N 
ATOM     13  C   UNL     1       1.610  -1.040   0.402  0.00  0.00    +0.134 C 
ATOM     14  C   UNL     1       0.842  -0.473  -0.795  0.00  0.00    +0.178 C 
ATOM     15  O   UNL     1      -0.202   0.383  -0.323  0.00  0.00    -0.377 OA
ATOM     16  C   UNL     1       0.264   1.475   0.474  0.00  0.00    +0.178 C 
ATOM     17  C   UNL     1       1.026   0.927   1.684  0.00  0.00    +0.134 C 
ATOM     18  C   UNL     1       5.089   0.806   1.499  0.00  0.00    +0.039 C 
ATOM     19  C   UNL     1       6.325   1.163   2.354  0.00  0.00    +0.009 C 
ATOM     20  C   UNL     1       6.384  -0.017   3.349  0.00  0.00    +0.036 C 
ATOM     21  N   UNL     1       6.264  -1.832   6.032  0.00  0.00    -0.130 NA
ATOM     22  N   UNL     1       6.678  -2.407   7.096  0.00  0.00    -0.062 NA
ATOM     23  N   UNL     1       2.232  -1.200   3.186  0.00  0.00    -0.337 N 
ATOM     24  H   UNL     1       1.239  -1.445   3.090  0.00  0.00    +0.168 HD
ENDROOT
BRANCH   1  25
ATOM     25  C   UNL     1       6.530  -3.749   9.058  0.00  0.00    +0.223 C 
BRANCH  25  29
ATOM     26  C   UNL     1       7.220  -7.272   8.385  0.00  0.00    +0.212 A 
ATOM     27  C   UNL     1       8.442  -6.742   8.080  0.00  0.00    +0.057 A 
ATOM     28  C   UNL     1       8.345  -5.358   8.291  0.00  0.00    +0.047 A 
ATOM     29  C   UNL     1       7.085  -5.107   8.710  0.00  0.00    +0.127 A 
ATOM     30  O   UNL     1       6.412  -6.263   8.771  0.00  0.00    -0.451 OA
BRANCH  26  31
ATOM     31  C   UNL     1       6.854  -8.689   8.312  0.00  0.00    +0.375 C 
ATOM     32  O   UNL     1       7.675  -9.511   7.954  0.00  0.00    -0.241 OA
BRANCH  31  34
ATOM     33  C   UNL     1       5.314 -10.500   8.547  0.00  0.00    +0.280 C 
ATOM     34  O   UNL     1       5.606  -9.081   8.643  0.00  0.00    -0.462 OA
ENDBRANCH  31  34
ENDBRANCH  26  31
ENDBRANCH  25  29
ENDBRANCH   1  25
TORSDOF 4
