REMARK  Name = ZINC04456012
REMARK  3 active torsions:
REMARK  status: ('A' for Active; 'I' for Inactive)
REMARK    1  A    between atoms: C_10  and  C_11
REMARK    2  A    between atoms: C_22  and  S_27
REMARK    3  A    between atoms: S_27  and  N_30
REMARK                            x       y       z     vdW  Elec       q    Type
REMARK                         _______ _______ _______ _____ _____    ______ ____
ROOT
ATOM      1  C   UNL     1       3.692   1.792  -0.007  0.00  0.00    +0.105 C 
ATOM      2  C   UNL     1       3.418   3.026   0.834  0.00  0.00    +0.029 C 
ATOM      3  C   UNL     1       4.540   4.067   0.937  0.00  0.00    +0.033 C 
ATOM      4  C   UNL     1       3.745   5.358   1.139  0.00  0.00    -0.030 C 
ATOM      5  C   UNL     1       2.531   5.231   0.616  0.00  0.00    -0.023 C 
ATOM      6  C   UNL     1       2.397   3.869   0.013  0.00  0.00    +0.049 C 
ATOM      7  C   UNL     1       1.118   3.126  -0.020  0.00  0.00    -0.018 A 
ATOM      8  C   UNL     1      -0.106   3.758  -0.009  0.00  0.00    +0.034 A 
ATOM      9  C   UNL     1      -1.273   3.019  -0.060  0.00  0.00    +0.105 A 
ATOM     10  C   UNL     1      -1.215   1.639  -0.129  0.00  0.00    +0.030 A 
ATOM     11  C   UNL     1       0.006   0.996  -0.127  0.00  0.00    +0.025 A 
ATOM     12  C   UNL     1       1.185   1.729  -0.074  0.00  0.00    +0.031 A 
ATOM     13  N   UNL     1       2.412   1.054  -0.060  0.00  0.00    -0.336 N 
ATOM     14  H   UNL     1       2.422   0.084  -0.085  0.00  0.00    +0.147 HD
ENDROOT
BRANCH   1  24
ATOM     15  C   UNL     1       8.792   1.466  -0.306  0.00  0.00    +0.001 A 
ATOM     16  C   UNL     1       7.823   2.260  -0.917  0.00  0.00    +0.001 A 
ATOM     17  C   UNL     1       6.503   2.106  -0.623  0.00  0.00    +0.009 A 
ATOM     18  C   UNL     1       6.108   1.134   0.313  0.00  0.00    -0.013 A 
ATOM     19  C   UNL     1       7.094   0.327   0.934  0.00  0.00    -0.018 A 
ATOM     20  C   UNL     1       8.447   0.515   0.604  0.00  0.00    +0.008 A 
ATOM     21  C   UNL     1       6.700  -0.645   1.869  0.00  0.00    +0.008 A 
ATOM     22  C   UNL     1       5.380  -0.799   2.164  0.00  0.00    +0.001 A 
ATOM     23  C   UNL     1       4.411  -0.003   1.556  0.00  0.00    +0.006 A 
ATOM     24  C   UNL     1       4.756   0.945   0.643  0.00  0.00    -0.019 A 
ENDBRANCH   1  24
BRANCH   9  25
ATOM     25  S   UNL     1      -2.835   3.835  -0.048  0.00  0.00    +0.056 S 
ATOM     26  O   UNL     1      -3.780   2.896   0.446  0.00  0.00    -0.153 OA
ATOM     27  O   UNL     1      -2.627   5.100   0.565  0.00  0.00    -0.153 OA
BRANCH  25  28
ATOM     28  N   UNL     1      -3.244   4.134  -1.624  0.00  0.00    -0.204 NA
ATOM     29  H   UNL     1      -2.649   3.861  -2.340  0.00  0.00    +0.144 HD
ATOM     30  H   UNL     1      -4.079   4.582  -1.832  0.00  0.00    +0.144 HD
ENDBRANCH  25  28
ENDBRANCH   9  25
TORSDOF 3
