REMARK  Name = ZINC01877024
REMARK  8 active torsions:
REMARK  status: ('A' for Active; 'I' for Inactive)
REMARK    1  A    between atoms: C_4  and  N_7
REMARK    2  A    between atoms: C_8  and  C_30
REMARK    3  A    between atoms: C_11  and  S_12
REMARK    4  A    between atoms: S_12  and  C_13
REMARK    5  A    between atoms: C_13  and  C_14
REMARK    6  A    between atoms: N_16  and  N_17
REMARK    7  A    between atoms: C_18  and  C_19
REMARK    8  A    between atoms: C_28  and  O_29
REMARK                            x       y       z     vdW  Elec       q    Type
REMARK                         _______ _______ _______ _____ _____    ______ ____
ROOT
ATOM      1  S   UNL     1       4.642   0.436   2.334  0.00  0.00    -0.076 S 
ENDROOT
BRANCH   1   6
ATOM      2  N   UNL     1       3.643  -0.619  -0.059  0.00  0.00    -0.270 N 
ATOM      3  C   UNL     1       4.076  -1.528  -1.000  0.00  0.00    +0.169 A 
ATOM      4  N   UNL     1       5.248  -1.966  -0.600  0.00  0.00    -0.128 NA
ATOM      5  N   UNL     1       5.573  -1.403   0.508  0.00  0.00    -0.122 NA
ATOM      6  C   UNL     1       4.632  -0.566   0.884  0.00  0.00    +0.197 A 
BRANCH   3   7
ATOM      7  C   UNL     1       3.358  -1.933  -2.227  0.00  0.00    +0.020 A 
ATOM      8  C   UNL     1       2.323  -1.142  -2.727  0.00  0.00    +0.012 A 
ATOM      9  C   UNL     1       1.657  -1.525  -3.872  0.00  0.00    +0.016 A 
ATOM     10  C   UNL     1       2.013  -2.693  -4.525  0.00  0.00    +0.018 A 
ATOM     11  C   UNL     1       3.039  -3.483  -4.034  0.00  0.00    +0.016 A 
ATOM     12  C   UNL     1       3.716  -3.107  -2.893  0.00  0.00    +0.012 A 
ATOM     13 BR   UNL     1       1.095  -3.212  -6.094  0.00  0.00    -0.050 Br
ENDBRANCH   3   7
BRANCH   2  17
ATOM     14  C   UNL     1       0.071   1.530  -0.092  0.00  0.00    +0.000 A 
ATOM     15  C   UNL     1       1.274   2.189  -0.267  0.00  0.00    +0.002 A 
ATOM     16  C   UNL     1       2.459   1.479  -0.256  0.00  0.00    +0.026 A 
ATOM     17  C   UNL     1       2.442   0.104  -0.070  0.00  0.00    +0.051 A 
ATOM     18  C   UNL     1       1.232  -0.555   0.106  0.00  0.00    +0.026 A 
ATOM     19  C   UNL     1       0.050   0.160   0.094  0.00  0.00    +0.002 A 
ENDBRANCH   2  17
ENDBRANCH   1   6
BRANCH   1  20
ATOM     20  C   UNL     1       6.219   0.033   3.135  0.00  0.00    +0.174 C 
BRANCH  20  21
ATOM     21  C   UNL     1       6.355   0.833   4.405  0.00  0.00    +0.242 C 
ATOM     22  O   UNL     1       5.475   1.599   4.737  0.00  0.00    -0.273 OA
ATOM     23  N   UNL     1       7.455   0.697   5.172  0.00  0.00    -0.206 N 
ATOM     24  H   UNL     1       8.159   0.084   4.906  0.00  0.00    +0.177 HD
BRANCH  23  25
ATOM     25  N   UNL     1       7.582   1.440   6.352  0.00  0.00    -0.188 NA
ATOM     26  C   UNL     1       8.643   1.309   7.092  0.00  0.00    +0.142 C 
BRANCH  26  27
ATOM     27  C   UNL     1       8.777   2.088   8.331  0.00  0.00    +0.044 A 
ATOM     28  C   UNL     1       9.965   1.958   9.171  0.00  0.00    -0.006 A 
ATOM     29  C   UNL     1      11.011   1.092   8.828  0.00  0.00    +0.009 A 
ATOM     30  C   UNL     1      12.102   0.999   9.639  0.00  0.00    +0.001 A 
ATOM     31  C   UNL     1      12.193   1.755  10.806  0.00  0.00    +0.001 A 
ATOM     32  C   UNL     1      11.194   2.607  11.169  0.00  0.00    +0.008 A 
ATOM     33  C   UNL     1      10.054   2.728  10.356  0.00  0.00    -0.017 A 
ATOM     34  C   UNL     1       9.004   3.597  10.698  0.00  0.00    +0.012 A 
ATOM     35  C   UNL     1       7.905   3.707   9.905  0.00  0.00    +0.046 A 
ATOM     36  C   UNL     1       7.774   2.974   8.727  0.00  0.00    +0.126 A 
BRANCH  36  37
ATOM     37  O   UNL     1       6.662   3.119   7.962  0.00  0.00    -0.506 OA
ATOM     38  H   UNL     1       5.945   2.512   8.192  0.00  0.00    +0.292 HD
ENDBRANCH  36  37
ENDBRANCH  26  27
ENDBRANCH  23  25
ENDBRANCH  20  21
ENDBRANCH   1  20
TORSDOF 8
