REMARK  Name = ZINC16509115
REMARK  11 active torsions:
REMARK  status: ('A' for Active; 'I' for Inactive)
REMARK    1  A    between atoms: C_1  and  C_2
REMARK    2  A    between atoms: C_2  and  C_3
REMARK    3  A    between atoms: C_3  and  N_4
REMARK    4  A    between atoms: N_4  and  C_5
REMARK    5  A    between atoms: N_4  and  S_25
REMARK    6  A    between atoms: C_5  and  C_6
REMARK    7  A    between atoms: C_16  and  C_18
REMARK    8  A    between atoms: C_21  and  C_24
REMARK    9  A    between atoms: S_25  and  C_28
REMARK   10  A    between atoms: C_31  and  N_34
REMARK   11  A    between atoms: C_35  and  C_37
REMARK                            x       y       z     vdW  Elec       q    Type
REMARK                         _______ _______ _______ _____ _____    ______ ____
ROOT
ATOM      1  C   UNL     1      -3.959   1.817  -2.855  0.00  0.00    +0.205 C 
ENDROOT
BRANCH   1   2
ATOM      2  C   UNL     1      -3.021   2.369  -1.812  0.00  0.00    +0.232 C 
ATOM      3  O   UNL     1      -1.860   2.018  -1.794  0.00  0.00    -0.274 OA
ATOM      4  N   UNL     1      -3.473   3.252  -0.899  0.00  0.00    -0.289 N 
ATOM      5  C   UNL     1      -4.895   3.623  -0.861  0.00  0.00    +0.114 C 
ATOM      6  C   UNL     1      -5.486   3.134   0.470  0.00  0.00    +0.062 C 
ATOM      7  C   UNL     1      -4.519   3.442   1.566  0.00  0.00    -0.003 A 
ATOM      8  C   UNL     1      -3.201   3.767   1.452  0.00  0.00    -0.012 A 
ATOM      9  C   UNL     1      -2.511   4.004   2.639  0.00  0.00    +0.013 A 
ATOM     10  C   UNL     1      -3.154   3.912   3.826  0.00  0.00    +0.046 A 
ATOM     11  S   UNL     1      -4.808   3.471   3.315  0.00  0.00    -0.101 S 
ATOM     12  C   UNL     1      -2.551   3.856   0.073  0.00  0.00    +0.137 C 
BRANCH  12  13
ATOM     13  C   UNL     1      -1.246   3.103   0.074  0.00  0.00    -0.023 A 
ATOM     14  C   UNL     1      -0.088   3.726  -0.351  0.00  0.00    +0.006 A 
ATOM     15  C   UNL     1       1.109   3.034  -0.355  0.00  0.00    +0.004 A 
ATOM     16  C   UNL     1       1.149   1.722   0.078  0.00  0.00    -0.050 A 
ATOM     17  C   UNL     1      -0.008   1.100   0.508  0.00  0.00    +0.004 A 
ATOM     18  C   UNL     1      -1.205   1.790   0.507  0.00  0.00    +0.006 A 
ATOM     19  C   UNL     1       2.455   0.969   0.080  0.00  0.00    +0.044 C 
ENDBRANCH  12  13
ENDBRANCH   1   2
BRANCH   1  20
ATOM     20  N   UNL     1      -3.232   0.886  -3.721  0.00  0.00    -0.168 NA
BRANCH  20  21
ATOM     21  S   UNL     1      -2.587   1.417  -5.151  0.00  0.00    +0.061 S 
ATOM     22  O   UNL     1      -2.465   0.276  -5.990  0.00  0.00    -0.153 OA
ATOM     23  O   UNL     1      -3.331   2.566  -5.530  0.00  0.00    -0.153 OA
BRANCH  21  24
ATOM     24  C   UNL     1      -0.948   1.968  -4.810  0.00  0.00    +0.106 A 
ATOM     25  C   UNL     1      -0.723   3.287  -4.461  0.00  0.00    +0.030 A 
ATOM     26  C   UNL     1       0.560   3.721  -4.188  0.00  0.00    +0.025 A 
ATOM     27  C   UNL     1       1.625   2.834  -4.275  0.00  0.00    +0.033 A 
ATOM     28  C   UNL     1       1.396   1.512  -4.630  0.00  0.00    +0.025 A 
ATOM     29  C   UNL     1       0.110   1.082  -4.897  0.00  0.00    +0.030 A 
BRANCH  27  30
ATOM     30  N   UNL     1       2.926   3.272  -4.003  0.00  0.00    -0.286 N 
ATOM     31  C   UNL     1       3.965   2.765  -4.695  0.00  0.00    +0.214 C 
ATOM     32  O   UNL     1       3.784   1.870  -5.493  0.00  0.00    -0.276 OA
ATOM     33  C   UNL     1       5.353   3.310  -4.476  0.00  0.00    +0.109 C 
ATOM     34  H   UNL     1       3.079   3.941  -3.318  0.00  0.00    +0.155 HD
ENDBRANCH  27  30
ENDBRANCH  21  24
ENDBRANCH  20  21
BRANCH  20  35
ATOM     35  C   UNL     1      -3.076  -0.515  -3.322  0.00  0.00    +0.110 C 
BRANCH  35  37
ATOM     36  C   UNL     1      -4.149  -2.772  -3.337  0.00  0.00    +0.005 C 
ATOM     37  C   UNL     1      -4.312  -1.308  -3.753  0.00  0.00    +0.014 C 
ENDBRANCH  35  37
ENDBRANCH  20  35
ENDBRANCH   1  20
TORSDOF 8
