REMARK  Name = ZINC36630895
REMARK  8 active torsions:
REMARK  status: ('A' for Active; 'I' for Inactive)
REMARK    1  A    between atoms: C_1  and  C_2
REMARK    2  A    between atoms: C_5  and  C_38
REMARK    3  A    between atoms: N_8  and  S_10
REMARK    4  A    between atoms: S_10  and  C_13
REMARK    5  A    between atoms: C_16  and  C_19
REMARK    6  A    between atoms: C_19  and  N_21
REMARK    7  A    between atoms: N_23  and  C_35
REMARK    8  A    between atoms: C_35  and  C_36
REMARK                            x       y       z     vdW  Elec       q    Type
REMARK                         _______ _______ _______ _____ _____    ______ ____
ROOT
ATOM      1  C   UNL     1       3.869  -4.122  -4.165  0.00  0.00    +0.269 C 
ATOM      2  O   UNL     1       3.458  -5.112  -4.745  0.00  0.00    -0.268 OA
ENDROOT
BRANCH   1   3
ATOM      3  N   UNL     1       4.737  -3.306  -4.771  0.00  0.00    -0.152 NA
ATOM      4  C   UNL     1       5.151  -3.574  -6.005  0.00  0.00    +0.167 A 
ATOM      5  N   UNL     1       6.025  -2.864  -6.764  0.00  0.00    -0.317 N 
ATOM      6  C   UNL     1       6.340  -3.299  -8.038  0.00  0.00    +0.058 A 
ATOM      7  C   UNL     1       7.218  -2.711  -8.978  0.00  0.00    +0.027 A 
ATOM      8  C   UNL     1       7.426  -3.260 -10.198  0.00  0.00    +0.010 A 
ATOM      9  C   UNL     1       6.772  -4.445 -10.580  0.00  0.00    -0.017 A 
ATOM     10  C   UNL     1       6.977  -5.027 -11.840  0.00  0.00    +0.008 A 
ATOM     11  C   UNL     1       6.323  -6.175 -12.168  0.00  0.00    +0.001 A 
ATOM     12  C   UNL     1       5.450  -6.783 -11.268  0.00  0.00    +0.001 A 
ATOM     13  C   UNL     1       5.227  -6.247 -10.037  0.00  0.00    +0.009 A 
ATOM     14  C   UNL     1       5.883  -5.064  -9.662  0.00  0.00    -0.002 A 
ATOM     15  C   UNL     1       5.690  -4.473  -8.410  0.00  0.00    +0.047 A 
ATOM     16  S   UNL     1       4.717  -4.871  -6.982  0.00  0.00    -0.051 S 
BRANCH   5  17
ATOM     17  C   UNL     1       6.632  -1.641  -6.234  0.00  0.00    +0.151 C 
BRANCH  17  18
ATOM     18  C   UNL     1       7.917  -1.984  -5.526  0.00  0.00    -0.013 C 
ATOM     19  C   UNL     1       9.034  -1.393  -5.872  0.00  0.00    +0.005 C 
ENDBRANCH  17  18
ENDBRANCH   5  17
ENDBRANCH   1   3
BRANCH   1  23
ATOM     20  C   UNL     1       2.547  -3.268  -0.217  0.00  0.00    +0.106 A 
ATOM     21  C   UNL     1       2.077  -4.392  -0.873  0.00  0.00    +0.029 A 
ATOM     22  C   UNL     1       2.503  -4.675  -2.155  0.00  0.00    +0.015 A 
ATOM     23  C   UNL     1       3.408  -3.824  -2.789  0.00  0.00    +0.039 A 
ATOM     24  C   UNL     1       3.878  -2.692  -2.123  0.00  0.00    +0.015 A 
ATOM     25  C   UNL     1       3.441  -2.418  -0.843  0.00  0.00    +0.029 A 
BRANCH  20  26
ATOM     26  S   UNL     1       1.999  -2.914   1.419  0.00  0.00    +0.061 S 
ATOM     27  O   UNL     1       2.998  -2.098   2.015  0.00  0.00    -0.153 OA
ATOM     28  O   UNL     1       1.587  -4.150   1.986  0.00  0.00    -0.153 OA
BRANCH  26  34
ATOM     29  C   UNL     1      -0.019   1.526   0.010  0.00  0.00    +0.009 C 
ATOM     30  C   UNL     1       0.002  -0.004   0.002  0.00  0.00    +0.002 C 
ATOM     31  C   UNL     1      -1.433  -0.534   0.015  0.00  0.00    +0.009 C 
ATOM     32  C   UNL     1      -1.414  -2.064  -0.027  0.00  0.00    +0.002 C 
ATOM     33  C   UNL     1      -0.692  -2.596   1.215  0.00  0.00    +0.112 C 
ATOM     34  N   UNL     1       0.639  -1.977   1.288  0.00  0.00    -0.176 NA
ATOM     35  C   UNL     1       0.742  -0.512   1.244  0.00  0.00    +0.112 C 
ATOM     36  C   UNL     1      -2.850  -2.592  -0.049  0.00  0.00    +0.009 C 
ENDBRANCH  26  34
ENDBRANCH  20  26
ENDBRANCH   1  23
TORSDOF 6
