REMARK  Name = ZINC12376902
REMARK  4 active torsions:
REMARK  status: ('A' for Active; 'I' for Inactive)
REMARK    1  A    between atoms: C_4  and  C_7
REMARK    2  A    between atoms: C_8  and  N_15
REMARK    3  A    between atoms: N_15  and  N_16
REMARK    4  A    between atoms: C_19  and  C_24
REMARK                            x       y       z     vdW  Elec       q    Type
REMARK                         _______ _______ _______ _____ _____    ______ ____
ROOT
ATOM      1  N   UNL     1      -0.371  -2.184  -1.648  0.00  0.00    -0.194 N 
ATOM      2  C   UNL     1      -0.901  -3.216  -0.914  0.00  0.00    +0.040 C 
ATOM      3  C   UNL     1      -2.240  -3.399  -0.872  0.00  0.00    +0.022 C 
ATOM      4  C   UNL     1      -3.144  -2.487  -1.669  0.00  0.00    +0.063 C 
ATOM      5  C   UNL     1      -2.449  -2.126  -2.985  0.00  0.00    +0.111 C 
ATOM      6  C   UNL     1      -1.049  -1.653  -2.681  0.00  0.00    +0.237 C 
ATOM      7  O   UNL     1      -0.536  -0.796  -3.368  0.00  0.00    -0.274 OA
ATOM      8  C   UNL     1      -2.814  -4.425  -0.105  0.00  0.00    +0.161 C 
ATOM      9  O   UNL     1      -4.021  -4.561  -0.095  0.00  0.00    -0.292 OA
ATOM     10  C   UNL     1      -1.956  -5.360   0.705  0.00  0.00    +0.080 C 
ATOM     11  C   UNL     1      -0.671  -4.631   1.113  0.00  0.00    +0.014 C 
ATOM     12  C   UNL     1       0.027  -4.124  -0.151  0.00  0.00    +0.053 C 
ENDROOT
BRANCH   4  13
ATOM     13  C   UNL     1      -4.443  -3.193  -1.961  0.00  0.00    -0.039 A 
ATOM     14  C   UNL     1      -4.440  -4.376  -2.676  0.00  0.00    +0.004 A 
ATOM     15  C   UNL     1      -5.631  -5.027  -2.940  0.00  0.00    +0.000 A 
ATOM     16  C   UNL     1      -6.825  -4.489  -2.498  0.00  0.00    +0.000 A 
ATOM     17  C   UNL     1      -6.828  -3.304  -1.787  0.00  0.00    +0.000 A 
ATOM     18  C   UNL     1      -5.637  -2.656  -1.518  0.00  0.00    +0.004 A 
ENDBRANCH   4  13
BRANCH   1  19
ATOM     19  N   UNL     1       0.895  -1.681  -1.320  0.00  0.00    -0.255 N 
ATOM     20  H   UNL     1       1.691  -2.187  -1.544  0.00  0.00    +0.171 HD
BRANCH  19  22
ATOM     21  C   UNL     1       2.320   0.149  -0.430  0.00  0.00    +0.114 A 
ATOM     22  C   UNL     1       1.009  -0.463  -0.676  0.00  0.00    +0.078 A 
ATOM     23  C   UNL     1      -0.110   0.227  -0.237  0.00  0.00    +0.098 A 
ATOM     24  C   UNL     1       0.094   1.457   0.409  0.00  0.00    +0.267 A 
ATOM     25  O   UNL     1      -0.864   2.101   0.807  0.00  0.00    -0.266 OA
ATOM     26  N   UNL     1       1.339   1.930   0.585  0.00  0.00    -0.243 N 
ATOM     27  H   UNL     1       1.451   2.783   1.034  0.00  0.00    +0.192 HD
ATOM     28  N   UNL     1       2.384   1.306   0.185  0.00  0.00    -0.169 NA
BRANCH  21  32
ATOM     29  C   UNL     1       5.875  -1.807  -1.699  0.00  0.00    +0.000 A 
ATOM     30  C   UNL     1       4.733  -1.878  -2.478  0.00  0.00    +0.001 A 
ATOM     31  C   UNL     1       3.577  -1.245  -2.071  0.00  0.00    +0.010 A 
ATOM     32  C   UNL     1       3.560  -0.533  -0.873  0.00  0.00    +0.004 A 
ATOM     33  C   UNL     1       4.714  -0.460  -0.095  0.00  0.00    +0.010 A 
ATOM     34  C   UNL     1       5.864  -1.103  -0.509  0.00  0.00    +0.001 A 
ENDBRANCH  21  32
ENDBRANCH  19  22
ENDBRANCH   1  19
TORSDOF 4
