REMARK  Name = ZINC39998964
REMARK  8 active torsions:
REMARK  status: ('A' for Active; 'I' for Inactive)
REMARK    1  A    between atoms: C_1  and  C_2
REMARK    2  A    between atoms: C_7  and  O_25
REMARK    3  A    between atoms: C_8  and  C_13
REMARK    4  A    between atoms: C_14  and  C_15
REMARK    5  A    between atoms: C_14  and  C_17
REMARK    6  A    between atoms: O_25  and  C_26
REMARK    7  A    between atoms: C_28  and  C_33
REMARK    8  A    between atoms: C_30  and  C_32
REMARK                            x       y       z     vdW  Elec       q    Type
REMARK                         _______ _______ _______ _____ _____    ______ ____
ROOT
ATOM      1  C   UNL     1       0.598   1.255  -0.337  0.00  0.00    +0.045 C 
ATOM      2  C   UNL     1       0.156  -0.180  -0.207  0.00  0.00    -0.034 A 
ATOM      3  C   UNL     1      -0.496  -0.811  -1.274  0.00  0.00    +0.008 A 
ATOM      4  C   UNL     1      -0.892  -2.111  -1.147  0.00  0.00    +0.047 A 
ATOM      5  C   UNL     1      -0.641  -2.797   0.053  0.00  0.00    +0.144 A 
ATOM      6  N   UNL     1      -1.033  -4.069   0.168  0.00  0.00    -0.194 NA
ATOM      7  C   UNL     1      -0.824  -4.764   1.272  0.00  0.00    +0.235 A 
ATOM      8  C   UNL     1      -0.168  -4.154   2.368  0.00  0.00    +0.103 A 
ATOM      9  C   UNL     1       0.245  -2.801   2.237  0.00  0.00    +0.269 A 
ATOM     10  O   UNL     1       0.813  -2.235   3.153  0.00  0.00    -0.266 OA
ATOM     11  N   UNL     1      -0.003  -2.155   1.077  0.00  0.00    -0.267 N 
ATOM     12  C   UNL     1       0.393  -0.859   0.939  0.00  0.00    +0.099 A 
ENDROOT
BRANCH   8  13
ATOM     13  C   UNL     1       0.069  -4.868   3.557  0.00  0.00    +0.042 C 
ATOM     14  C   UNL     1       0.788  -6.054   3.522  0.00  0.00    +0.114 C 
BRANCH  14  15
ATOM     15  C   UNL     1       0.913  -6.872   4.734  0.00  0.00    +0.257 C 
ATOM     16  O   UNL     1       0.259  -6.598   5.723  0.00  0.00    -0.269 OA
ATOM     17  N   UNL     1       1.752  -7.926   4.751  0.00  0.00    -0.297 N 
ATOM     18  C   UNL     1       2.838  -8.035   3.768  0.00  0.00    +0.108 C 
ATOM     19  C   UNL     1       4.161  -8.237   4.514  0.00  0.00    +0.019 C 
ATOM     20  C   UNL     1       4.035  -9.443   5.448  0.00  0.00    +0.003 C 
ATOM     21  C   UNL     1       2.935  -9.180   6.478  0.00  0.00    +0.019 C 
ATOM     22  C   UNL     1       1.602  -8.985   5.758  0.00  0.00    +0.108 C 
ENDBRANCH  14  15
BRANCH  14  23
ATOM     23  C   UNL     1       1.407  -6.481   2.303  0.00  0.00    +0.104 C 
ATOM     24  N   UNL     1       1.899  -6.819   1.337  0.00  0.00    -0.191 NA
ENDBRANCH  14  23
ENDBRANCH   8  13
BRANCH   7  25
ATOM     25  O   UNL     1      -1.234  -6.050   1.354  0.00  0.00    -0.437 OA
BRANCH  25  26
ATOM     26  C   UNL     1      -1.951  -6.558   0.318  0.00  0.00    +0.131 A 
ATOM     27  C   UNL     1      -1.312  -6.908  -0.864  0.00  0.00    +0.049 A 
ATOM     28  C   UNL     1      -2.043  -7.425  -1.916  0.00  0.00    -0.047 A 
ATOM     29  C   UNL     1      -3.410  -7.593  -1.792  0.00  0.00    +0.007 A 
ATOM     30  C   UNL     1      -4.049  -7.245  -0.617  0.00  0.00    -0.047 A 
ATOM     31  C   UNL     1      -3.322  -6.734   0.441  0.00  0.00    +0.049 A 
ATOM     32  C   UNL     1      -5.539  -7.429  -0.486  0.00  0.00    +0.044 C 
ATOM     33  C   UNL     1      -1.351  -7.805  -3.199  0.00  0.00    +0.044 C 
ENDBRANCH  25  26
ENDBRANCH   7  25
TORSDOF 5
