REMARK  Name = ZINC05059935
REMARK  6 active torsions:
REMARK  status: ('A' for Active; 'I' for Inactive)
REMARK    1  A    between atoms: C_1  and  C_2
REMARK    2  A    between atoms: C_4  and  N_25
REMARK    3  A    between atoms: N_8  and  C_24
REMARK    4  A    between atoms: C_11  and  C_12
REMARK    5  A    between atoms: C_11  and  O_23
REMARK    6  A    between atoms: C_13  and  C_22
REMARK                            x       y       z     vdW  Elec       q    Type
REMARK                         _______ _______ _______ _____ _____    ______ ____
ROOT
ATOM      1  C   UNL     1      -2.779   5.866  -0.286  0.00  0.00    +0.046 C 
ATOM      2  C   UNL     1      -2.606   4.369  -0.259  0.00  0.00    -0.027 A 
ATOM      3  C   UNL     1      -1.344   3.820  -0.358  0.00  0.00    +0.038 A 
ATOM      4  C   UNL     1      -1.175   2.448  -0.340  0.00  0.00    +0.127 A 
ATOM      5  C   UNL     1      -2.278   1.621  -0.210  0.00  0.00    +0.041 A 
ATOM      6  C   UNL     1      -3.537   2.166  -0.105  0.00  0.00    +0.021 A 
ATOM      7  C   UNL     1      -3.720   3.543  -0.129  0.00  0.00    +0.046 A 
ATOM      8  N   UNL     1      -5.076   3.851  -0.009  0.00  0.00    -0.271 N 
ATOM      9  C   UNL     1      -5.840   2.751   0.097  0.00  0.00    +0.261 C 
ATOM     10  O   UNL     1      -7.047   2.721   0.213  0.00  0.00    -0.271 OA
ATOM     11  C   UNL     1      -4.912   1.556   0.043  0.00  0.00    +0.197 C 
ATOM     12  C   UNL     1      -5.605   5.217   0.001  0.00  0.00    +0.138 C 
ENDROOT
BRANCH  11  13
ATOM     13  C   UNL     1      -5.002   0.761   1.320  0.00  0.00    +0.025 A 
ATOM     14  C   UNL     1      -5.744  -0.338   1.526  0.00  0.00    +0.021 A 
ATOM     15  N   UNL     1      -5.571  -0.786   2.807  0.00  0.00    -0.358 N 
ATOM     16  H   UNL     1      -6.003  -1.566   3.188  0.00  0.00    +0.166 HD
ATOM     17  C   UNL     1      -4.689   0.035   3.474  0.00  0.00    +0.047 A 
ATOM     18  C   UNL     1      -4.290   1.037   2.570  0.00  0.00    +0.007 A 
ATOM     19  C   UNL     1      -3.383   2.018   2.975  0.00  0.00    +0.010 A 
ATOM     20  C   UNL     1      -2.886   2.000   4.247  0.00  0.00    +0.001 A 
ATOM     21  C   UNL     1      -3.274   1.012   5.142  0.00  0.00    +0.002 A 
ATOM     22  C   UNL     1      -4.173   0.038   4.766  0.00  0.00    +0.026 A 
ATOM     23  C   UNL     1      -6.638  -0.983   0.498  0.00  0.00    +0.064 C 
ENDBRANCH  11  13
BRANCH   4  24
ATOM     24  N   UNL     1       0.181   1.866  -0.452  0.00  0.00    +0.056 N 
ATOM     25  O   UNL     1       0.328   0.657  -0.430  0.00  0.00    -0.126 OA
ATOM     26  O   UNL     1       1.149   2.595  -0.571  0.00  0.00    -0.126 OA
ENDBRANCH   4  24
BRANCH  11  27
ATOM     27  O   UNL     1      -5.220   0.733  -1.083  0.00  0.00    -0.371 OA
ATOM     28  H   UNL     1      -5.206   1.203  -1.929  0.00  0.00    +0.212 HD
ENDBRANCH  11  27
TORSDOF 3
