REMARK  Name = ZINC31978752
REMARK  2 active torsions:
REMARK  status: ('A' for Active; 'I' for Inactive)
REMARK    1  A    between atoms: C_3  and  C_10
REMARK    2  A    between atoms: C_5  and  N_7
REMARK                            x       y       z     vdW  Elec       q    Type
REMARK                         _______ _______ _______ _____ _____    ______ ____
ROOT
ATOM      1  C   UNL     1      -0.070   5.327   0.029  0.00  0.00    +0.090 A 
ATOM      2  C   UNL     1      -1.178   6.108   0.038  0.00  0.00    +0.121 A 
ATOM      3  N   UNL     1      -0.757   7.434   0.046  0.00  0.00    -0.297 N 
ATOM      4  C   UNL     1      -1.353   8.688   0.058  0.00  0.00    +0.038 A 
ATOM      5  C   UNL     1      -0.559   9.767   0.055  0.00  0.00    +0.027 A 
ATOM      6  S   UNL     1       1.079   9.088   0.036  0.00  0.00    -0.053 S 
ATOM      7  C   UNL     1       0.610   7.372   0.032  0.00  0.00    +0.178 A 
ATOM      8  N   UNL     1       1.011   6.135   0.023  0.00  0.00    -0.221 NA
ATOM      9  C   UNL     1      -0.980  11.201   0.065  0.00  0.00    +0.125 C 
ATOM     10  N   UNL     1      -2.415  11.263  -0.272  0.00  0.00    -0.311 NA
ATOM     11  C   UNL     1      -3.176  10.298   0.535  0.00  0.00    +0.087 C 
ATOM     12  C   UNL     1      -2.870   8.871   0.075  0.00  0.00    +0.070 C 
ATOM     13  H   UNL     1      -2.795  12.276  -0.070  0.00  0.00    +0.122 HD
ENDROOT
BRANCH   1  16
ATOM     14  C   UNL     1      -1.221   1.748   0.017  0.00  0.00    +0.003 A 
ATOM     15  C   UNL     1      -1.246   3.128   0.030  0.00  0.00    +0.010 A 
ATOM     16  C   UNL     1      -0.050   3.844   0.022  0.00  0.00    +0.004 A 
ATOM     17  C   UNL     1       1.165   3.161   0.007  0.00  0.00    +0.042 A 
ATOM     18  C   UNL     1       1.178   1.781   0.000  0.00  0.00    +0.127 A 
ATOM     19  C   UNL     1      -0.013   1.076   0.008  0.00  0.00    +0.033 A 
BRANCH  18  20
ATOM     20  N   UNL     1       2.467   1.054  -0.015  0.00  0.00    +0.056 N 
ATOM     21  O   UNL     1       2.479  -0.164  -0.022  0.00  0.00    -0.126 OA
ATOM     22  O   UNL     1       3.515   1.674  -0.022  0.00  0.00    -0.126 OA
ENDBRANCH  18  20
ENDBRANCH   1  16
TORSDOF 2
