REMARK  Name = ZINC39391613
REMARK  6 active torsions:
REMARK  status: ('A' for Active; 'I' for Inactive)
REMARK    1  A    between atoms: N_8  and  C_9
REMARK    2  A    between atoms: C_12  and  C_15
REMARK    3  A    between atoms: N_17  and  C_18
REMARK    4  A    between atoms: C_18  and  C_19
REMARK    5  A    between atoms: N_27  and  C_28
REMARK    6  A    between atoms: C_28  and  N_29
REMARK                            x       y       z     vdW  Elec       q    Type
REMARK                         _______ _______ _______ _____ _____    ______ ____
ROOT
ATOM      1  C   UNL     1      -0.017   1.376   0.010  0.00  0.00    +0.001 A 
ATOM      2  C   UNL     1       1.172   2.086   0.002  0.00  0.00    +0.002 A 
ATOM      3  C   UNL     1       2.386   1.427  -0.013  0.00  0.00    +0.024 A 
ATOM      4  C   UNL     1       2.426   0.038  -0.021  0.00  0.00    +0.044 A 
ATOM      5  C   UNL     1       1.220  -0.678  -0.013  0.00  0.00    +0.027 A 
ATOM      6  C   UNL     1       0.002  -0.004   0.002  0.00  0.00    +0.012 A 
ATOM      7  C   UNL     1       1.583  -2.111  -0.025  0.00  0.00    +0.135 C 
ATOM      8  N   UNL     1       0.771  -3.141  -0.023  0.00  0.00    -0.242 NA
ATOM      9  C   UNL     1       3.070  -2.129  -0.039  0.00  0.00    +0.268 C 
ATOM     10  O   UNL     1       3.775  -3.119  -0.051  0.00  0.00    -0.268 OA
ATOM     11  N   UNL     1       3.494  -0.854  -0.036  0.00  0.00    -0.282 N 
ENDROOT
BRANCH   8  12
ATOM     12  C   UNL     1       1.275  -4.403  -0.034  0.00  0.00    +0.065 A 
ATOM     13  C   UNL     1       2.328  -4.731  -0.899  0.00  0.00    +0.028 A 
ATOM     14  C   UNL     1       2.833  -6.000  -0.909  0.00  0.00    +0.015 A 
ATOM     15  C   UNL     1       2.300  -6.972  -0.058  0.00  0.00    +0.037 A 
ATOM     16  C   UNL     1       1.250  -6.647   0.806  0.00  0.00    +0.015 A 
ATOM     17  C   UNL     1       0.747  -5.378   0.823  0.00  0.00    +0.028 A 
BRANCH  15  18
ATOM     18  C   UNL     1       2.847  -8.345  -0.071  0.00  0.00    +0.244 C 
ATOM     19  O   UNL     1       3.760  -8.628  -0.823  0.00  0.00    -0.270 OA
ATOM     20  N   UNL     1       2.334  -9.283   0.749  0.00  0.00    -0.309 N 
ATOM     21  H   UNL     1       1.605  -9.057   1.349  0.00  0.00    +0.149 HD
BRANCH  20  22
ATOM     22  C   UNL     1       2.876 -10.643   0.736  0.00  0.00    +0.136 C 
BRANCH  22  23
ATOM     23  C   UNL     1       2.122 -11.503   1.753  0.00  0.00    +0.135 C 
ATOM     24  C   UNL     1       2.704 -12.939   1.780  0.00  0.00    +0.035 C 
ATOM     25  C   UNL     1       2.305 -13.391   3.211  0.00  0.00    +0.031 C 
ATOM     26  C   UNL     1       2.413 -12.076   4.013  0.00  0.00    +0.160 C 
ATOM     27  O   UNL     1       2.319 -10.991   3.081  0.00  0.00    -0.375 OA
ENDBRANCH  22  23
ENDBRANCH  20  22
ENDBRANCH  15  18
ENDBRANCH   8  12
BRANCH  11  28
ATOM     28  C   UNL     1       4.904  -0.453  -0.047  0.00  0.00    +0.039 C 
BRANCH  28  29
ATOM     29  N   UNL     1       5.388  -0.327   1.335  0.00  0.00    +0.390 N 
ATOM     30  C   UNL     1       4.670   0.764   2.005  0.00  0.00    -0.077 C 
ATOM     31  C   UNL     1       5.112   0.847   3.468  0.00  0.00    -0.019 C 
ATOM     32  C   UNL     1       6.619   1.113   3.525  0.00  0.00    -0.004 C 
ATOM     33  C   UNL     1       7.353   0.009   2.759  0.00  0.00    -0.019 C 
ATOM     34  C   UNL     1       6.828  -0.043   1.323  0.00  0.00    -0.077 C 
ATOM     35  H   UNL     1       5.220  -1.191   1.829  0.00  0.00    -0.080 HD
ENDBRANCH  28  29
ENDBRANCH  11  28
TORSDOF 6
