REMARK  Name = ZINC38709850
REMARK  10 active torsions:
REMARK  status: ('A' for Active; 'I' for Inactive)
REMARK    1  A    between atoms: C_1  and  C_2
REMARK    2  A    between atoms: C_2  and  C_31
REMARK    3  A    between atoms: C_6  and  C_16
REMARK    4  A    between atoms: C_9  and  O_15
REMARK    5  A    between atoms: C_18  and  O_26
REMARK    6  A    between atoms: C_19  and  O_24
REMARK    7  A    between atoms: C_20  and  O_22
REMARK    8  A    between atoms: O_22  and  C_23
REMARK    9  A    between atoms: O_24  and  C_25
REMARK   10  A    between atoms: O_26  and  C_27
REMARK                            x       y       z     vdW  Elec       q    Type
REMARK                         _______ _______ _______ _____ _____    ______ ____
ROOT
ATOM      1  C   UNL     1      -0.019   1.526   0.010  0.00  0.00    +0.011 C 
ATOM      2  C   UNL     1       0.002  -0.004   0.002  0.00  0.00    -0.023 C 
ATOM      3  C   UNL     1      -1.429  -0.539   0.042  0.00  0.00    +0.057 C 
ATOM      4  C   UNL     1      -1.409  -2.054   0.057  0.00  0.00    +0.014 C 
ATOM      5  C   UNL     1      -0.399  -2.711   0.665  0.00  0.00    +0.023 C 
ATOM      6  C   UNL     1      -0.345  -4.230   0.738  0.00  0.00    +0.089 C 
ATOM      7  C   UNL     1      -1.411  -4.750  -0.178  0.00  0.00    +0.048 C 
ATOM      8  C   UNL     1      -1.486  -5.744  -1.036  0.00  0.00    +0.235 C 
ATOM      9  N   UNL     1      -2.664  -5.691  -1.716  0.00  0.00    -0.114 NA
ATOM     10  N   UNL     1      -3.417  -4.775  -1.363  0.00  0.00    -0.157 NA
ATOM     11  C   UNL     1      -2.778  -4.063  -0.255  0.00  0.00    +0.245 C 
ATOM     12  N   UNL     1      -2.456  -2.671  -0.581  0.00  0.00    -0.321 N 
ATOM     13  C   UNL     1       0.669  -2.019   1.261  0.00  0.00    +0.162 C 
ATOM     14  O   UNL     1       1.554  -2.649   1.806  0.00  0.00    -0.292 OA
ATOM     15  C   UNL     1       0.742  -0.517   1.242  0.00  0.00    +0.086 C 
ATOM     16  C   UNL     1       0.705  -0.503  -1.262  0.00  0.00    +0.011 C 
ATOM     17  H   UNL     1      -2.979  -2.190  -1.242  0.00  0.00    +0.148 HD
ENDROOT
BRANCH   6  18
ATOM     18  C   UNL     1      -0.610  -4.686   2.150  0.00  0.00    -0.028 A 
ATOM     19  C   UNL     1      -1.810  -4.376   2.761  0.00  0.00    +0.054 A 
ATOM     20  C   UNL     1      -2.057  -4.794   4.060  0.00  0.00    +0.165 A 
ATOM     21  C   UNL     1      -1.097  -5.526   4.747  0.00  0.00    +0.204 A 
ATOM     22  C   UNL     1       0.109  -5.837   4.128  0.00  0.00    +0.165 A 
ATOM     23  C   UNL     1       0.346  -5.420   2.828  0.00  0.00    +0.054 A 
BRANCH  22  24
ATOM     24  O   UNL     1       1.052  -6.553   4.796  0.00  0.00    -0.491 OA
ATOM     25  C   UNL     1       2.267  -6.836   4.099  0.00  0.00    +0.277 C 
ENDBRANCH  22  24
BRANCH  21  26
ATOM     26  O   UNL     1      -1.335  -5.938   6.022  0.00  0.00    -0.488 OA
ATOM     27  C   UNL     1      -1.956  -7.215   6.186  0.00  0.00    +0.277 C 
ENDBRANCH  21  26
BRANCH  20  28
ATOM     28  O   UNL     1      -3.238  -4.487   4.660  0.00  0.00    -0.491 OA
ATOM     29  C   UNL     1      -4.178  -3.731   3.895  0.00  0.00    +0.277 C 
ENDBRANCH  20  28
ENDBRANCH   6  18
BRANCH   8  30
ATOM     30  O   UNL     1      -0.524  -6.687  -1.218  0.00  0.00    -0.491 OA
ATOM     31  H   UNL     1      -0.743  -7.347  -1.890  0.00  0.00    +0.294 HD
ENDBRANCH   8  30
TORSDOF 5
