REMARK  Name = ZINC09366193
REMARK  10 active torsions:
REMARK  status: ('A' for Active; 'I' for Inactive)
REMARK    1  A    between atoms: C_1  and  C_2
REMARK    2  A    between atoms: C_2  and  N_3
REMARK    3  A    between atoms: N_3  and  C_4
REMARK    4  A    between atoms: N_3  and  S_6
REMARK    5  A    between atoms: C_4  and  C_5
REMARK    6  A    between atoms: S_6  and  C_9
REMARK    7  A    between atoms: C_12  and  C_15
REMARK    8  A    between atoms: C_21  and  S_23
REMARK    9  A    between atoms: S_23  and  C_24
REMARK   10  A    between atoms: C_24  and  C_25
REMARK                            x       y       z     vdW  Elec       q    Type
REMARK                         _______ _______ _______ _____ _____    ______ ____
ROOT
ATOM      1  C   UNL     1       0.246  -4.946  -0.025  0.00  0.00    +0.250 C 
ATOM      2  O   UNL     1       1.422  -4.638  -0.035  0.00  0.00    -0.270 OA
ATOM      3  N   UNL     1      -0.702  -3.988  -0.011  0.00  0.00    -0.259 N 
ATOM      4  C   UNL     1      -0.334  -2.646  -0.008  0.00  0.00    +0.189 A 
ATOM      5  N   UNL     1       0.868  -2.093  -0.016  0.00  0.00    -0.125 NA
ATOM      6  N   UNL     1       1.028  -0.842  -0.012  0.00  0.00    -0.133 NA
ATOM      7  C   UNL     1       0.002  -0.004   0.002  0.00  0.00    +0.160 A 
ATOM      8  S   UNL     1      -1.353  -1.174   0.016  0.00  0.00    -0.024 S 
ATOM      9  H   UNL     1      -1.640  -4.234  -0.003  0.00  0.00    +0.157 HD
ENDROOT
BRANCH   1  13
ATOM     10  C   UNL     1      -0.875  -9.043  -0.034  0.00  0.00    +0.106 A 
ATOM     11  C   UNL     1       0.464  -8.695  -0.045  0.00  0.00    +0.029 A 
ATOM     12  C   UNL     1       0.835  -7.367  -0.043  0.00  0.00    +0.015 A 
ATOM     13  C   UNL     1      -0.144  -6.372  -0.028  0.00  0.00    +0.037 A 
ATOM     14  C   UNL     1      -1.493  -6.729  -0.011  0.00  0.00    +0.015 A 
ATOM     15  C   UNL     1      -1.850  -8.062  -0.019  0.00  0.00    +0.029 A 
BRANCH  10  16
ATOM     16  S   UNL     1      -1.340 -10.742  -0.038  0.00  0.00    +0.061 S 
ATOM     17  O   UNL     1      -2.654 -10.802  -0.576  0.00  0.00    -0.153 OA
ATOM     18  O   UNL     1      -0.252 -11.460  -0.604  0.00  0.00    -0.153 OA
BRANCH  16  19
ATOM     19  N   UNL     1      -1.453 -11.223   1.542  0.00  0.00    -0.177 NA
BRANCH  19  21
ATOM     20  C   UNL     1      -3.484 -12.428   2.179  0.00  0.00    +0.022 C 
ATOM     21  C   UNL     1      -2.727 -11.101   2.256  0.00  0.00    +0.106 C 
ENDBRANCH  19  21
BRANCH  19  22
ATOM     22  C   UNL     1      -0.280 -11.770   2.228  0.00  0.00    +0.106 C 
ATOM     23  C   UNL     1       0.427 -10.654   2.999  0.00  0.00    +0.022 C 
ENDBRANCH  19  22
ENDBRANCH  16  19
ENDBRANCH  10  16
ENDBRANCH   1  13
BRANCH   7  24
ATOM     24  S   UNL     1      -0.022   1.758   0.012  0.00  0.00    -0.088 S 
BRANCH  24  25
ATOM     25  C   UNL     1       1.732   2.220  -0.003  0.00  0.00    +0.172 C 
BRANCH  25  26
ATOM     26  C   UNL     1       1.855   3.722   0.004  0.00  0.00    +0.229 C 
ATOM     27  O   UNL     1       0.858   4.413   0.018  0.00  0.00    -0.275 OA
ATOM     28  N   UNL     1       3.074   4.299  -0.004  0.00  0.00    -0.264 N 
ATOM     29  C   UNL     1       3.188   5.684   0.002  0.00  0.00    +0.164 A 
ATOM     30  N   UNL     1       2.233   6.594   0.010  0.00  0.00    -0.233 NA
ATOM     31  C   UNL     1       2.516   7.881   0.020  0.00  0.00    +0.120 A 
ATOM     32  C   UNL     1       3.819   8.256   0.010  0.00  0.00    +0.068 A 
ATOM     33  S   UNL     1       4.623   6.661  -0.006  0.00  0.00    -0.061 S 
ATOM     34  H   UNL     1       3.871   3.747  -0.015  0.00  0.00    +0.157 HD
ENDBRANCH  25  26
ENDBRANCH  24  25
ENDBRANCH   7  24
TORSDOF 8
