REMARK  Name = ZINC51988996
REMARK  5 active torsions:
REMARK  status: ('A' for Active; 'I' for Inactive)
REMARK    1  A    between atoms: C_1  and  C_2
REMARK    2  A    between atoms: C_3  and  N_19
REMARK    3  A    between atoms: C_5  and  C_7
REMARK    4  A    between atoms: N_9  and  C_10
REMARK    5  A    between atoms: C_16  and  O_18
REMARK                            x       y       z     vdW  Elec       q    Type
REMARK                         _______ _______ _______ _____ _____    ______ ____
ROOT
ATOM      1  C   UNL     1       1.047  -4.020  -0.024  0.00  0.00    +0.251 C 
ATOM      2  O   UNL     1       0.283  -4.968  -0.026  0.00  0.00    -0.270 OA
ATOM      3  N   UNL     1       2.379  -4.228  -0.031  0.00  0.00    -0.306 N 
ATOM      4  H   UNL     1       2.988  -3.473  -0.030  0.00  0.00    +0.149 HD
ENDROOT
BRANCH   1   9
ATOM      5  C   UNL     1      -0.018   1.503   0.010  0.00  0.00    +0.053 C 
ATOM      6  C   UNL     1       0.002  -0.004   0.002  0.00  0.00    +0.008 A 
ATOM      7  C   UNL     1      -1.050  -0.875   0.002  0.00  0.00    +0.035 A 
ATOM      8  C   UNL     1      -0.800  -2.227  -0.007  0.00  0.00    +0.043 A 
ATOM      9  C   UNL     1       0.519  -2.653  -0.015  0.00  0.00    +0.076 A 
ATOM     10  S   UNL     1       1.407  -1.105  -0.018  0.00  0.00    -0.087 S 
BRANCH   7  11
ATOM     11  N   UNL     1      -2.373  -0.395   0.011  0.00  0.00    -0.357 N 
ATOM     12  H   UNL     1      -2.542   0.561   0.017  0.00  0.00    +0.142 HD
ATOM     13  H   UNL     1      -3.115  -1.018   0.010  0.00  0.00    +0.142 HD
ENDBRANCH   7  11
ENDBRANCH   1   9
BRANCH   3  14
ATOM     14  C   UNL     1       2.907  -5.595  -0.041  0.00  0.00    +0.102 C 
ATOM     15  C   UNL     1       2.967  -6.108  -1.481  0.00  0.00    +0.025 C 
ATOM     16  C   UNL     1       3.519  -7.535  -1.491  0.00  0.00    +0.002 C 
ATOM     17  C   UNL     1       4.925  -7.543  -0.887  0.00  0.00    +0.003 C 
ATOM     18  C   UNL     1       4.864  -7.029   0.552  0.00  0.00    +0.033 C 
ATOM     19  C   UNL     1       4.313  -5.602   0.563  0.00  0.00    +0.135 C 
BRANCH  19  20
ATOM     20  O   UNL     1       4.256  -5.123   1.908  0.00  0.00    -0.390 OA
ATOM     21  H   UNL     1       5.114  -5.101   2.353  0.00  0.00    +0.210 HD
ENDBRANCH  19  20
ENDBRANCH   3  14
TORSDOF 4
