REMARK  Name = ZINC04327451
REMARK  10 active torsions:
REMARK  status: ('A' for Active; 'I' for Inactive)
REMARK    1  A    between atoms: C_1  and  C_2
REMARK    2  A    between atoms: C_2  and  C_3
REMARK    3  A    between atoms: C_3  and  C_4
REMARK    4  A    between atoms: C_4  and  O_5
REMARK    5  A    between atoms: O_5  and  C_6
REMARK    6  A    between atoms: C_26  and  O_28
REMARK    7  A    between atoms: O_28  and  C_29
REMARK    8  A    between atoms: C_29  and  C_30
REMARK    9  A    between atoms: C_30  and  C_31
REMARK   10  A    between atoms: C_31  and  C_32
REMARK                            x       y       z     vdW  Elec       q    Type
REMARK                         _______ _______ _______ _____ _____    ______ ____
ROOT
ATOM      1  C   UNL     1       1.513  -3.821  -2.602  0.00  0.00    +0.403 C 
ATOM      2  O   UNL     1       1.049  -4.572  -1.767  0.00  0.00    -0.226 OA
ATOM      3  N   UNL     1       2.132  -4.322  -3.689  0.00  0.00    -0.263 N 
ATOM      4  C   UNL     1       2.724  -3.456  -4.740  0.00  0.00    +0.139 C 
ATOM      5  C   UNL     1       3.636  -2.430  -4.065  0.00  0.00    +0.179 C 
ATOM      6  O   UNL     1       4.947  -2.514  -4.629  0.00  0.00    -0.376 OA
ATOM      7  C   UNL     1       5.851  -1.518  -4.147  0.00  0.00    +0.188 C 
ATOM      8  C   UNL     1       7.279  -1.886  -4.554  0.00  0.00    +0.188 C 
ATOM      9  O   UNL     1       7.910  -2.595  -3.486  0.00  0.00    -0.376 OA
ATOM     10  C   UNL     1       9.057  -3.348  -3.887  0.00  0.00    +0.179 C 
ATOM     11  C   UNL     1       9.702  -3.990  -2.657  0.00  0.00    +0.139 C 
ATOM     12  N   UNL     1       9.802  -5.449  -2.880  0.00  0.00    -0.263 N 
ATOM     13  C   UNL     1       9.236  -6.315  -1.824  0.00  0.00    +0.139 C 
ATOM     14  C   UNL     1       8.318  -7.351  -2.477  0.00  0.00    +0.179 C 
ATOM     15  O   UNL     1       7.016  -7.268  -1.894  0.00  0.00    -0.376 OA
ATOM     16  C   UNL     1       6.096  -8.243  -2.387  0.00  0.00    +0.188 C 
ATOM     17  C   UNL     1       4.674  -7.859  -1.972  0.00  0.00    +0.188 C 
ATOM     18  O   UNL     1       4.015  -7.219  -3.066  0.00  0.00    -0.376 OA
ATOM     19  C   UNL     1       2.898  -6.414  -2.681  0.00  0.00    +0.179 C 
ATOM     20  C   UNL     1       2.279  -5.780  -3.922  0.00  0.00    +0.139 C 
ATOM     21  C   UNL     1      10.377  -5.960  -3.986  0.00  0.00    +0.403 C 
ATOM     22  O   UNL     1      10.831  -5.218  -4.833  0.00  0.00    -0.226 OA
ENDROOT
BRANCH   1  23
ATOM     23  O   UNL     1       1.408  -2.488  -2.441  0.00  0.00    -0.450 OA
BRANCH  23  24
ATOM     24  C   UNL     1       0.739  -2.027  -1.265  0.00  0.00    +0.234 C 
BRANCH  24  25
ATOM     25  C   UNL     1       0.718  -0.497  -1.257  0.00  0.00    +0.041 C 
BRANCH  25  27
ATOM     26  C   UNL     1      -0.019   1.526   0.010  0.00  0.00    +0.004 C 
ATOM     27  C   UNL     1       0.002  -0.004   0.002  0.00  0.00    -0.000 C 
ENDBRANCH  25  27
ENDBRANCH  24  25
ENDBRANCH  23  24
ENDBRANCH   1  23
BRANCH  21  28
ATOM     28  O   UNL     1      10.449  -7.295  -4.151  0.00  0.00    -0.450 OA
BRANCH  28  29
ATOM     29  C   UNL     1      11.072  -7.767  -5.347  0.00  0.00    +0.234 C 
BRANCH  29  30
ATOM     30  C   UNL     1      11.060  -9.297  -5.358  0.00  0.00    +0.041 C 
BRANCH  30  31
ATOM     31  C   UNL     1      11.727  -9.803  -6.639  0.00  0.00    -0.000 C 
ATOM     32  C   UNL     1      11.715 -11.333  -6.650  0.00  0.00    +0.004 C 
ENDBRANCH  30  31
ENDBRANCH  29  30
ENDBRANCH  28  29
ENDBRANCH  21  28
TORSDOF 8
