REMARK  Name = ZINC35968372
REMARK  11 active torsions:
REMARK  status: ('A' for Active; 'I' for Inactive)
REMARK    1  A    between atoms: C_1  and  C_2
REMARK    2  A    between atoms: C_2  and  C_3
REMARK    3  A    between atoms: C_2  and  C_4
REMARK    4  A    between atoms: C_4  and  C_6
REMARK    5  A    between atoms: C_4  and  N_15
REMARK    6  A    between atoms: N_8  and  C_9
REMARK    7  A    between atoms: C_9  and  C_10
REMARK    8  A    between atoms: C_21  and  C_28
REMARK    9  A    between atoms: N_26  and  C_27
REMARK   10  A    between atoms: C_32  and  O_34
REMARK   11  A    between atoms: O_34  and  C_35
REMARK                            x       y       z     vdW  Elec       q    Type
REMARK                         _______ _______ _______ _____ _____    ______ ____
ROOT
ATOM      1  N   UNL     1      -2.160   0.195  -1.021  0.00  0.00    -0.280 N 
ATOM      2  C   UNL     1      -3.239   1.165  -0.780  0.00  0.00    +0.160 C 
ATOM      3  C   UNL     1      -3.926   1.324  -2.118  0.00  0.00    +0.042 C 
ATOM      4  C   UNL     1      -3.272   0.516  -2.978  0.00  0.00    +0.058 C 
ATOM      5  C   UNL     1      -2.218  -0.150  -2.320  0.00  0.00    +0.247 C 
ATOM      6  O   UNL     1      -1.461  -0.938  -2.857  0.00  0.00    -0.270 OA
ATOM      7  C   UNL     1      -3.757   0.475  -4.413  0.00  0.00    +0.142 C 
ATOM      8  N   UNL     1      -4.909   1.328  -4.752  0.00  0.00    -0.288 N 
ATOM      9  C   UNL     1      -5.457   2.083  -3.779  0.00  0.00    +0.307 C 
ATOM     10  O   UNL     1      -6.409   2.790  -4.049  0.00  0.00    -0.252 OA
ATOM     11  N   UNL     1      -4.987   2.080  -2.525  0.00  0.00    -0.260 N 
ATOM     12  C   UNL     1      -5.649   2.934  -1.536  0.00  0.00    +0.139 C 
ATOM     13  H   UNL     1      -5.265   1.345  -5.654  0.00  0.00    +0.151 HD
ENDROOT
BRANCH   7  14
ATOM     14  C   UNL     1      -2.608   0.873  -5.303  0.00  0.00    -0.019 A 
ATOM     15  C   UNL     1      -2.286   2.209  -5.459  0.00  0.00    +0.006 A 
ATOM     16  C   UNL     1      -1.232   2.578  -6.275  0.00  0.00    +0.004 A 
ATOM     17  C   UNL     1      -0.498   1.612  -6.936  0.00  0.00    +0.046 A 
ATOM     18  C   UNL     1      -0.819   0.271  -6.780  0.00  0.00    +0.129 A 
ATOM     19  C   UNL     1      -1.874  -0.097  -5.957  0.00  0.00    +0.052 A 
BRANCH  18  20
ATOM     20  O   UNL     1      -0.098  -0.681  -7.429  0.00  0.00    -0.456 OA
BRANCH  20  21
ATOM     21  C   UNL     1      -0.646  -1.253  -8.533  0.00  0.00    +0.128 A 
ATOM     22  C   UNL     1      -1.850  -0.781  -9.036  0.00  0.00    +0.046 A 
ATOM     23  C   UNL     1      -2.404  -1.365 -10.159  0.00  0.00    +0.004 A 
ATOM     24  C   UNL     1      -1.761  -2.418 -10.781  0.00  0.00    +0.000 A 
ATOM     25  C   UNL     1      -0.561  -2.891 -10.282  0.00  0.00    +0.004 A 
ATOM     26  C   UNL     1       0.001  -2.307  -9.163  0.00  0.00    +0.046 A 
ENDBRANCH  20  21
ENDBRANCH  18  20
ENDBRANCH   7  14
BRANCH   1  27
ATOM     27  C   UNL     1      -1.198  -0.298  -0.032  0.00  0.00    +0.165 C 
BRANCH  27  28
ATOM     28  C   UNL     1      -1.325  -1.795   0.088  0.00  0.00    +0.234 C 
ATOM     29  O   UNL     1      -1.881  -2.429  -0.784  0.00  0.00    -0.274 OA
ATOM     30  N   UNL     1      -0.821  -2.430   1.165  0.00  0.00    -0.307 N 
ATOM     31  H   UNL     1      -0.325  -1.931   1.833  0.00  0.00    +0.149 HD
BRANCH  30  32
ATOM     32  C   UNL     1      -1.022  -3.872   1.326  0.00  0.00    +0.178 C 
BRANCH  32  33
ATOM     33  C   UNL     1      -0.365  -4.331   2.602  0.00  0.00    +0.122 A 
ATOM     34  C   UNL     1      -0.949  -4.386   3.813  0.00  0.00    +0.046 A 
ATOM     35  C   UNL     1       0.025  -4.871   4.716  0.00  0.00    +0.041 A 
ATOM     36  C   UNL     1       1.146  -5.084   4.003  0.00  0.00    +0.195 A 
ATOM     37  O   UNL     1       0.902  -4.761   2.722  0.00  0.00    -0.466 OA
ENDBRANCH  32  33
ENDBRANCH  30  32
ENDBRANCH  27  28
BRANCH  27  39
ATOM     38  C   UNL     1       0.351   1.579  -0.596  0.00  0.00    +0.009 C 
ATOM     39  C   UNL     1       0.221   0.059  -0.479  0.00  0.00    +0.012 C 
ATOM     40  C   UNL     1       1.226  -0.462   0.550  0.00  0.00    +0.009 C 
ENDBRANCH  27  39
ENDBRANCH   1  27
TORSDOF 8
