REMARK  Name = ZINC58436568
REMARK  9 active torsions:
REMARK  status: ('A' for Active; 'I' for Inactive)
REMARK    1  A    between atoms: C_1  and  C_2
REMARK    2  A    between atoms: C_2  and  C_4
REMARK    3  A    between atoms: C_2  and  N_14
REMARK    4  A    between atoms: C_8  and  S_10
REMARK    5  A    between atoms: S_10  and  N_13
REMARK    6  A    between atoms: N_17  and  C_18
REMARK    7  A    between atoms: C_18  and  C_19
REMARK    8  A    between atoms: C_19  and  C_21
REMARK    9  A    between atoms: C_19  and  N_26
REMARK                            x       y       z     vdW  Elec       q    Type
REMARK                         _______ _______ _______ _____ _____    ______ ____
ROOT
ATOM      1  N   UNL     1       0.700  -0.396  -1.223  0.00  0.00    -0.293 N 
ATOM      2  C   UNL     1       0.055  -0.416  -2.406  0.00  0.00    +0.300 C 
ATOM      3  O   UNL     1      -1.054   0.075  -2.502  0.00  0.00    -0.253 OA
ATOM      4  N   UNL     1       0.638  -0.979  -3.482  0.00  0.00    -0.301 N 
ATOM      5  H   UNL     1       1.584  -0.787  -1.146  0.00  0.00    +0.151 HD
ATOM      6  H   UNL     1       1.523  -1.370  -3.406  0.00  0.00    +0.150 HD
ENDROOT
BRANCH   1   8
ATOM      7  C   UNL     1       0.333   1.723  -0.057  0.00  0.00    +0.033 C 
ATOM      8  C   UNL     1       0.066   0.216  -0.053  0.00  0.00    +0.102 C 
BRANCH   8   9
ATOM      9  C   UNL     1       0.635  -0.391   1.203  0.00  0.00    -0.026 A 
ATOM     10  C   UNL     1       1.989  -0.661   1.288  0.00  0.00    +0.005 A 
ATOM     11  C   UNL     1       2.512  -1.218   2.440  0.00  0.00    +0.002 A 
ATOM     12  C   UNL     1       1.681  -1.505   3.507  0.00  0.00    +0.028 A 
ATOM     13  C   UNL     1       0.328  -1.235   3.423  0.00  0.00    +0.105 A 
ATOM     14  C   UNL     1      -0.194  -0.674   2.272  0.00  0.00    +0.034 A 
BRANCH  13  15
ATOM     15  S   UNL     1      -0.730  -1.602   4.783  0.00  0.00    +0.056 S 
ATOM     16  O   UNL     1      -2.038  -1.759   4.249  0.00  0.00    -0.153 OA
ATOM     17  O   UNL     1      -0.086  -2.621   5.535  0.00  0.00    -0.153 OA
BRANCH  15  18
ATOM     18  N   UNL     1      -0.772  -0.256   5.747  0.00  0.00    -0.204 NA
ATOM     19  H   UNL     1      -0.262   0.532   5.503  0.00  0.00    +0.144 HD
ATOM     20  H   UNL     1      -1.305  -0.257   6.557  0.00  0.00    +0.144 HD
ENDBRANCH  15  18
ENDBRANCH  13  15
ENDBRANCH   8   9
ENDBRANCH   1   8
BRANCH   4  21
ATOM     21  C   UNL     1      -0.063  -1.000  -4.769  0.00  0.00    +0.095 C 
BRANCH  21  22
ATOM     22  C   UNL     1       0.863  -1.571  -5.845  0.00  0.00    -0.013 C 
BRANCH  22  23
ATOM     23  N   UNL     1       0.120  -1.715  -7.104  0.00  0.00    +0.386 N 
ATOM     24  C   UNL     1       0.999  -2.287  -8.155  0.00  0.00    -0.078 C 
ATOM     25  C   UNL     1      -0.006  -2.886  -9.171  0.00  0.00    -0.020 C 
ATOM     26  C   UNL     1      -1.121  -3.451  -8.261  0.00  0.00    -0.020 C 
ATOM     27  C   UNL     1      -0.988  -2.680  -6.935  0.00  0.00    -0.078 C 
ATOM     28  H   UNL     1      -0.240  -0.820  -7.400  0.00  0.00    -0.081 HD
ENDBRANCH  22  23
BRANCH  22  29
ATOM     29  C   UNL     1       2.028  -0.637  -6.052  0.00  0.00    -0.022 A 
ATOM     30  C   UNL     1       3.292  -0.730  -5.572  0.00  0.00    +0.009 A 
ATOM     31  C   UNL     1       4.206   0.255  -5.897  0.00  0.00    +0.008 A 
ATOM     32  C   UNL     1       3.811   1.284  -6.685  0.00  0.00    +0.045 A 
ATOM     33  S   UNL     1       2.102   0.874  -7.000  0.00  0.00    -0.103 S 
ENDBRANCH  22  29
ENDBRANCH  21  22
ENDBRANCH   4  21
TORSDOF 8
