REMARK  Name = ZINC02239026
REMARK  9 active torsions:
REMARK  status: ('A' for Active; 'I' for Inactive)
REMARK    1  A    between atoms: C_1  and  C_2
REMARK    2  A    between atoms: C_2  and  C_3
REMARK    3  A    between atoms: C_3  and  C_4
REMARK    4  A    between atoms: C_12  and  N_28
REMARK    5  A    between atoms: C_14  and  S_16
REMARK    6  A    between atoms: S_16  and  C_17
REMARK    7  A    between atoms: C_17  and  C_18
REMARK    8  A    between atoms: N_20  and  C_21
REMARK    9  A    between atoms: C_24  and  C_27
REMARK                            x       y       z     vdW  Elec       q    Type
REMARK                         _______ _______ _______ _____ _____    ______ ____
ROOT
ATOM      1  C   UNL     1       2.390 -12.784   0.651  0.00  0.00    +0.123 C 
ATOM      2  C   UNL     1       2.084 -11.451  -0.039  0.00  0.00    +0.068 C 
ATOM      3  C   UNL     1       3.386 -10.659  -0.136  0.00  0.00    -0.020 A 
ATOM      4  C   UNL     1       4.566 -11.296   0.015  0.00  0.00    +0.021 A 
ATOM      5  S   UNL     1       5.798 -10.037  -0.164  0.00  0.00    -0.071 S 
ATOM      6  C   UNL     1       4.724  -8.652  -0.443  0.00  0.00    +0.115 A 
ATOM      7  C   UNL     1       3.434  -9.219  -0.386  0.00  0.00    +0.051 A 
ATOM      8  C   UNL     1       2.356  -8.310  -0.581  0.00  0.00    +0.129 A 
ATOM      9  N   UNL     1       2.618  -7.032  -0.797  0.00  0.00    -0.207 NA
ATOM     10  C   UNL     1       3.860  -6.564  -0.838  0.00  0.00    +0.191 A 
ATOM     11  N   UNL     1       4.903  -7.365  -0.668  0.00  0.00    -0.214 NA
ATOM     12  C   UNL     1       4.757 -12.758   0.275  0.00  0.00    +0.203 C 
ATOM     13  O   UNL     1       3.507 -13.419   0.023  0.00  0.00    -0.371 OA
ENDROOT
BRANCH   8  14
ATOM     14  N   UNL     1       1.048  -8.759  -0.545  0.00  0.00    -0.343 N 
ATOM     15  H   UNL     1       0.318  -8.122  -0.527  0.00  0.00    +0.144 HD
ATOM     16  H   UNL     1       0.862  -9.711  -0.538  0.00  0.00    +0.144 HD
ENDBRANCH   8  14
BRANCH   1  17
ATOM     17  C   UNL     1       1.166 -13.696   0.551  0.00  0.00    +0.031 C 
BRANCH  17  19
ATOM     18  C   UNL     1       0.189 -15.884   1.258  0.00  0.00    +0.004 C 
ATOM     19  C   UNL     1       1.413 -14.972   1.358  0.00  0.00    -0.001 C 
ENDBRANCH  17  19
ENDBRANCH   1  17
BRANCH  10  20
ATOM     20  S   UNL     1       4.127  -4.847  -1.131  0.00  0.00    -0.077 S 
BRANCH  20  21
ATOM     21  C   UNL     1       2.413  -4.285  -1.286  0.00  0.00    +0.173 C 
BRANCH  21  22
ATOM     22  C   UNL     1       2.394  -2.800  -1.548  0.00  0.00    +0.227 C 
ATOM     23  O   UNL     1       3.435  -2.184  -1.622  0.00  0.00    -0.275 OA
ATOM     24  N   UNL     1       1.218  -2.159  -1.700  0.00  0.00    -0.285 N 
ATOM     25  H   UNL     1       0.384  -2.636  -1.566  0.00  0.00    +0.155 HD
BRANCH  24  26
ATOM     26  C   UNL     1       1.201  -0.804  -2.051  0.00  0.00    +0.033 A 
ATOM     27  C   UNL     1       2.191  -0.286  -2.876  0.00  0.00    +0.023 A 
ATOM     28  C   UNL     1       2.171   1.051  -3.220  0.00  0.00    +0.005 A 
ATOM     29  C   UNL     1       1.166   1.874  -2.745  0.00  0.00    -0.050 A 
ATOM     30  C   UNL     1       0.179   1.361  -1.923  0.00  0.00    +0.005 A 
ATOM     31  C   UNL     1       0.194   0.025  -1.575  0.00  0.00    +0.023 A 
ATOM     32  C   UNL     1       1.147   3.333  -3.123  0.00  0.00    +0.044 C 
ENDBRANCH  24  26
ENDBRANCH  21  22
ENDBRANCH  20  21
ENDBRANCH  10  20
TORSDOF 7
