REMARK  Name = ZINC34791531
REMARK  14 active torsions:
REMARK  status: ('A' for Active; 'I' for Inactive)
REMARK    1  A    between atoms: C_1  and  C_2
REMARK    2  A    between atoms: C_2  and  C_3
REMARK    3  A    between atoms: C_2  and  C_4
REMARK    4  A    between atoms: C_4  and  C_5
REMARK    5  A    between atoms: C_5  and  C_7
REMARK    6  A    between atoms: C_5  and  N_14
REMARK    7  A    between atoms: N_9  and  C_10
REMARK    8  A    between atoms: C_10  and  C_11
REMARK    9  A    between atoms: C_10  and  C_12
REMARK   10  A    between atoms: C_10  and  C_13
REMARK   11  A    between atoms: C_20  and  C_29
REMARK   12  A    between atoms: N_25  and  C_26
REMARK   13  A    between atoms: C_26  and  C_27
REMARK   14  A    between atoms: C_34  and  C_35
REMARK                            x       y       z     vdW  Elec       q    Type
REMARK                         _______ _______ _______ _____ _____    ______ ____
ROOT
ATOM      1  N   UNL     1       0.491   0.583   2.703  0.00  0.00    -0.281 N 
ATOM      2  C   UNL     1      -0.878   1.099   2.558  0.00  0.00    +0.160 C 
ATOM      3  C   UNL     1      -0.758   2.589   2.787  0.00  0.00    +0.043 C 
ATOM      4  C   UNL     1       0.546   2.832   3.029  0.00  0.00    +0.058 C 
ATOM      5  C   UNL     1       1.285   1.632   2.983  0.00  0.00    +0.247 C 
ATOM      6  O   UNL     1       2.486   1.556   3.169  0.00  0.00    -0.270 OA
ATOM      7  C   UNL     1       0.958   4.266   3.297  0.00  0.00    +0.142 C 
ATOM      8  N   UNL     1      -0.107   5.282   3.270  0.00  0.00    -0.288 N 
ATOM      9  C   UNL     1      -1.369   4.883   3.013  0.00  0.00    +0.307 C 
ATOM     10  O   UNL     1      -2.255   5.714   2.988  0.00  0.00    -0.252 OA
ATOM     11  N   UNL     1      -1.677   3.600   2.783  0.00  0.00    -0.253 N 
ATOM     12  H   UNL     1       0.094   6.216   3.434  0.00  0.00    +0.151 HD
ENDROOT
BRANCH   7  13
ATOM     13  C   UNL     1       1.992   4.651   2.271  0.00  0.00    -0.011 A 
ATOM     14  C   UNL     1       1.623   4.834   0.951  0.00  0.00    +0.006 A 
ATOM     15  C   UNL     1       2.571   5.188   0.010  0.00  0.00    +0.000 A 
ATOM     16  C   UNL     1       3.890   5.358   0.389  0.00  0.00    +0.001 A 
ATOM     17  C   UNL     1       4.260   5.176   1.708  0.00  0.00    +0.013 A 
ATOM     18  C   UNL     1       3.310   4.827   2.650  0.00  0.00    +0.060 A 
BRANCH  18  19
ATOM     19  C   UNL     1       3.712   4.633   4.089  0.00  0.00    +0.418 C 
ATOM     20  F   UNL     1       5.095   4.804   4.214  0.00  0.00    -0.166 F 
ATOM     21  F   UNL     1       3.052   5.572   4.888  0.00  0.00    -0.166 F 
ATOM     22  F   UNL     1       3.362   3.342   4.501  0.00  0.00    -0.166 F 
ENDBRANCH  18  19
ENDBRANCH   7  13
BRANCH   1  23
ATOM     23  C   UNL     1       0.911  -0.815   2.573  0.00  0.00    +0.163 C 
BRANCH  23  24
ATOM     24  C   UNL     1       1.430  -1.308   3.899  0.00  0.00    +0.234 C 
ATOM     25  O   UNL     1       1.447  -0.565   4.858  0.00  0.00    -0.274 OA
ATOM     26  N   UNL     1       1.875  -2.575   4.020  0.00  0.00    -0.309 N 
ATOM     27  H   UNL     1       1.861  -3.168   3.253  0.00  0.00    +0.149 HD
BRANCH  26  28
ATOM     28  C   UNL     1       2.379  -3.054   5.309  0.00  0.00    +0.026 C 
ATOM     29  C   UNL     1       1.273  -2.950   6.360  0.00  0.00    +0.031 C 
ATOM     30  C   UNL     1       2.818  -4.514   5.173  0.00  0.00    +0.031 C 
ATOM     31  C   UNL     1       3.574  -2.200   5.738  0.00  0.00    +0.031 C 
ENDBRANCH  26  28
ENDBRANCH  23  24
BRANCH  23  32
ATOM     32  C   UNL     1       2.017  -0.919   1.522  0.00  0.00    +0.035 C 
BRANCH  32  34
ATOM     33  C   UNL     1       2.603  -0.466  -0.864  0.00  0.00    +0.007 C 
ATOM     34  C   UNL     1       1.465  -0.499   0.158  0.00  0.00    -0.015 C 
ATOM     35  C   UNL     1       0.403  -1.503  -0.294  0.00  0.00    +0.007 C 
ENDBRANCH  32  34
ENDBRANCH  23  32
ENDBRANCH   1  23
BRANCH  11  36
ATOM     36  C   UNL     1      -3.077   3.262   2.512  0.00  0.00    +0.141 C 
BRANCH  36  37
ATOM     37  C   UNL     1      -3.778   2.950   3.808  0.00  0.00    -0.015 C 
ATOM     38  C   UNL     1      -4.869   3.598   4.135  0.00  0.00    +0.005 C 
ENDBRANCH  36  37
ENDBRANCH  11  36
TORSDOF 9
