REMARK  Name = ZINC49077578
REMARK  6 active torsions:
REMARK  status: ('A' for Active; 'I' for Inactive)
REMARK    1  A    between atoms: C_1  and  C_2
REMARK    2  A    between atoms: C_10  and  C_12
REMARK    3  A    between atoms: C_12  and  N_13
REMARK    4  A    between atoms: C_17  and  C_19
REMARK    5  A    between atoms: C_19  and  C_20
REMARK    6  A    between atoms: C_19  and  C_21
REMARK                            x       y       z     vdW  Elec       q    Type
REMARK                         _______ _______ _______ _____ _____    ______ ____
ROOT
ATOM      1  C   UNL     1      -0.018   1.503   0.010  0.00  0.00    +0.064 C 
ATOM      2  C   UNL     1       0.002  -0.004   0.002  0.00  0.00    +0.033 A 
ATOM      3  C   UNL     1       0.005  -0.653  -1.162  0.00  0.00    +0.070 A 
ATOM      4  S   UNL     1       0.032  -2.358  -0.630  0.00  0.00    -0.057 S 
ATOM      5  C   UNL     1       0.036  -2.054   1.123  0.00  0.00    +0.180 A 
ATOM      6  N   UNL     1       0.023  -0.686   1.195  0.00  0.00    -0.259 N 
ATOM      7  C   UNL     1       0.027  -0.142   2.448  0.00  0.00    +0.259 A 
ATOM      8  O   UNL     1       0.011   1.071   2.587  0.00  0.00    -0.267 OA
ATOM      9  C   UNL     1       0.049  -0.973   3.568  0.00  0.00    +0.092 A 
ATOM     10  C   UNL     1       0.066  -2.342   3.404  0.00  0.00    +0.033 A 
ATOM     11  N   UNL     1       0.052  -2.840   2.171  0.00  0.00    -0.229 NA
ENDROOT
BRANCH  10  12
ATOM     12  C   UNL     1       0.091  -3.257   4.601  0.00  0.00    -0.022 C 
BRANCH  12  13
ATOM     13  N   UNL     1      -1.153  -4.037   4.646  0.00  0.00    +0.385 N 
ATOM     14  C   UNL     1      -2.298  -3.134   4.894  0.00  0.00    -0.078 C 
ATOM     15  C   UNL     1      -3.257  -3.949   5.797  0.00  0.00    -0.020 C 
ATOM     16  C   UNL     1      -2.258  -4.718   6.701  0.00  0.00    -0.017 C 
ATOM     17  C   UNL     1      -1.084  -5.018   5.745  0.00  0.00    -0.065 C 
ATOM     18  H   UNL     1      -1.286  -4.518   3.769  0.00  0.00    -0.081 HD
BRANCH  17  19
ATOM     19  C   UNL     1      -1.218  -6.436   5.185  0.00  0.00    -0.031 C 
ATOM     20  C   UNL     1      -1.144  -7.446   6.332  0.00  0.00    +0.005 C 
ATOM     21  C   UNL     1      -2.561  -6.576   4.467  0.00  0.00    +0.005 C 
ENDBRANCH  17  19
ENDBRANCH  12  13
ENDBRANCH  10  12
TORSDOF 3
