REMARK  Name = ZINC13498568
REMARK  12 active torsions:
REMARK  status: ('A' for Active; 'I' for Inactive)
REMARK    1  A    between atoms: C_1  and  C_2
REMARK    2  A    between atoms: C_7  and  C_14
REMARK    3  A    between atoms: C_14  and  N_66
REMARK    4  A    between atoms: C_15  and  C_16
REMARK    5  A    between atoms: C_15  and  N_66
REMARK    6  A    between atoms: C_16  and  O_17
REMARK    7  A    between atoms: C_18  and  C_20
REMARK    8  A    between atoms: C_18  and  C_31
REMARK    9  A    between atoms: C_18  and  N_66
REMARK   10  A    between atoms: N_24  and  C_25
REMARK   11  A    between atoms: C_31  and  C_32
REMARK   12  A    between atoms: C_31  and  C_33
REMARK                            x       y       z     vdW  Elec       q    Type
REMARK                         _______ _______ _______ _____ _____    ______ ____
ROOT
ATOM      1  N   UNL     1      -0.316   2.010   1.385  0.00  0.00    +0.391 N 
ATOM      2  H   UNL     1      -0.950   1.297   1.005  0.00  0.00    -0.080 HD
ENDROOT
BRANCH   1   3
ATOM      3  C   UNL     1       0.659   2.391   0.343  0.00  0.00    -0.036 C 
BRANCH   3  10
ATOM      4  C   UNL     1      -3.225   5.035  -6.103  0.00  0.00    +0.044 C 
ATOM      5  C   UNL     1      -2.478   4.760  -4.823  0.00  0.00    -0.048 A 
ATOM      6  C   UNL     1      -2.112   5.818  -4.001  0.00  0.00    +0.004 A 
ATOM      7  C   UNL     1      -1.434   5.590  -2.837  0.00  0.00    +0.010 A 
ATOM      8  C   UNL     1      -1.105   4.281  -2.470  0.00  0.00    -0.001 A 
ATOM      9  C   UNL     1      -0.379   4.002  -1.230  0.00  0.00    +0.017 A 
ATOM     10  C   UNL     1      -0.087   2.713  -0.926  0.00  0.00    +0.001 A 
ATOM     11  C   UNL     1      -0.474   1.673  -1.798  0.00  0.00    +0.251 A 
ATOM     12  O   UNL     1      -0.198   0.521  -1.508  0.00  0.00    -0.268 OA
ATOM     13  N   UNL     1      -1.146   1.919  -2.936  0.00  0.00    -0.322 N 
ATOM     14  H   UNL     1      -1.401   1.179  -3.510  0.00  0.00    +0.169 HD
ATOM     15  C   UNL     1      -1.474   3.207  -3.301  0.00  0.00    +0.049 A 
ATOM     16  C   UNL     1      -2.163   3.463  -4.482  0.00  0.00    +0.029 A 
ENDBRANCH   3  10
ENDBRANCH   1   3
BRANCH   1  17
ATOM     17  C   UNL     1      -1.109   3.190   1.790  0.00  0.00    -0.049 C 
BRANCH  17  18
ATOM     18  C   UNL     1      -2.342   2.713   2.560  0.00  0.00    +0.137 C 
BRANCH  18  19
ATOM     19  O   UNL     1      -3.153   1.904   1.706  0.00  0.00    -0.397 OA
ATOM     20  H   UNL     1      -3.991   1.628   2.103  0.00  0.00    +0.209 HD
ENDBRANCH  18  19
ENDBRANCH  17  18
ENDBRANCH   1  17
BRANCH   1  21
ATOM     21  C   UNL     1       0.389   1.450   2.557  0.00  0.00    +0.006 C 
BRANCH  21  22
ATOM     22  C   UNL     1       1.702   2.160   2.769  0.00  0.00    +0.139 A 
ATOM     23  N   UNL     1       2.580   2.473   1.849  0.00  0.00    -0.115 NA
ATOM     24  N   UNL     1       3.566   3.070   2.425  0.00  0.00    -0.023 NA
ATOM     25  N   UNL     1       3.339   3.145   3.690  0.00  0.00    -0.044 NA
ATOM     26  N   UNL     1       2.197   2.600   3.941  0.00  0.00    -0.228 N 
BRANCH  26  27
ATOM     27  C   UNL     1       1.560   2.479   5.255  0.00  0.00    +0.111 C 
ATOM     28  C   UNL     1       1.333   3.873   5.842  0.00  0.00    +0.027 C 
ATOM     29  C   UNL     1       0.668   3.747   7.214  0.00  0.00    +0.002 C 
ATOM     30  C   UNL     1       1.575   2.943   8.148  0.00  0.00    +0.000 C 
ATOM     31  C   UNL     1       1.802   1.548   7.561  0.00  0.00    +0.002 C 
ATOM     32  C   UNL     1       2.467   1.674   6.189  0.00  0.00    +0.027 C 
ENDBRANCH  26  27
ENDBRANCH  21  22
BRANCH  21  33
ATOM     33  C   UNL     1       0.648  -0.037   2.306  0.00  0.00    -0.024 C 
ATOM     34  C   UNL     1      -0.680  -0.748   2.039  0.00  0.00    +0.006 C 
ATOM     35  C   UNL     1       1.565  -0.197   1.091  0.00  0.00    +0.006 C 
ENDBRANCH  21  33
ENDBRANCH   1  21
TORSDOF 9
