REMARK  Name = ZINC00918216
REMARK  8 active torsions:
REMARK  status: ('A' for Active; 'I' for Inactive)
REMARK    1  A    between atoms: C_1  and  O_2
REMARK    2  A    between atoms: O_2  and  C_3
REMARK    3  A    between atoms: C_10  and  C_15
REMARK    4  A    between atoms: C_15  and  N_16
REMARK    5  A    between atoms: N_16  and  C_17
REMARK    6  A    between atoms: N_16  and  S_27
REMARK    7  A    between atoms: C_17  and  C_18
REMARK    8  A    between atoms: S_27  and  C_30
REMARK                            x       y       z     vdW  Elec       q    Type
REMARK                         _______ _______ _______ _____ _____    ______ ____
ROOT
ATOM      1  N   UNL     1       6.003  -0.998   1.292  0.00  0.00    -0.168 NA
ENDROOT
BRANCH   1   2
ATOM      2  S   UNL     1       6.891   0.295   0.760  0.00  0.00    +0.061 S 
ATOM      3  O   UNL     1       7.289  -0.005  -0.571  0.00  0.00    -0.153 OA
ATOM      4  O   UNL     1       6.147   1.461   1.087  0.00  0.00    -0.153 OA
BRANCH   2   5
ATOM      5  C   UNL     1       8.363   0.350   1.726  0.00  0.00    +0.106 A 
ATOM      6  C   UNL     1       8.393   1.081   2.899  0.00  0.00    +0.030 A 
ATOM      7  C   UNL     1       9.546   1.120   3.661  0.00  0.00    +0.022 A 
ATOM      8  C   UNL     1      10.674   0.436   3.243  0.00  0.00    +0.041 A 
ATOM      9  C   UNL     1      10.645  -0.291   2.066  0.00  0.00    +0.022 A 
ATOM     10  C   UNL     1       9.490  -0.333   1.308  0.00  0.00    +0.030 A 
ATOM     11 CL   UNL     1      12.124   0.489   4.196  0.00  0.00    -0.084 Cl
ENDBRANCH   2   5
ENDBRANCH   1   2
BRANCH   1  12
ATOM     12  C   UNL     1       6.286  -2.341   0.779  0.00  0.00    +0.150 C 
BRANCH  12  20
ATOM     13  C   UNL     1       4.235  -2.842  -5.049  0.00  0.00    +0.121 A 
ATOM     14  C   UNL     1       2.982  -3.355  -4.723  0.00  0.00    +0.047 A 
ATOM     15  C   UNL     1       2.630  -3.565  -3.408  0.00  0.00    +0.030 A 
ATOM     16  C   UNL     1       3.529  -3.263  -2.391  0.00  0.00    +0.049 A 
ATOM     17  C   UNL     1       4.797  -2.744  -2.716  0.00  0.00    +0.002 A 
ATOM     18  C   UNL     1       5.143  -2.535  -4.055  0.00  0.00    +0.055 A 
ATOM     19  C   UNL     1       5.732  -2.426  -1.635  0.00  0.00    +0.020 A 
ATOM     20  C   UNL     1       5.345  -2.653  -0.356  0.00  0.00    +0.033 A 
ATOM     21  C   UNL     1       4.063  -3.175  -0.083  0.00  0.00    +0.254 A 
ATOM     22  O   UNL     1       3.734  -3.368   1.075  0.00  0.00    -0.268 OA
ATOM     23  N   UNL     1       3.195  -3.466  -1.068  0.00  0.00    -0.322 N 
ATOM     24  H   UNL     1       2.295  -3.835  -0.838  0.00  0.00    +0.169 HD
BRANCH  13  26
ATOM     25  C   UNL     1       3.581  -2.978  -7.331  0.00  0.00    +0.277 C 
ATOM     26  O   UNL     1       4.566  -2.641  -6.353  0.00  0.00    -0.495 OA
ENDBRANCH  13  26
ENDBRANCH  12  20
ENDBRANCH   1  12
BRANCH   1  27
ATOM     27  C   UNL     1       4.936  -0.798   2.276  0.00  0.00    +0.145 C 
BRANCH  27  28
ATOM     28  C   UNL     1       5.448  -1.146   3.650  0.00  0.00    -0.028 A 
ATOM     29  C   UNL     1       5.923  -0.149   4.481  0.00  0.00    +0.009 A 
ATOM     30  C   UNL     1       6.394  -0.462   5.743  0.00  0.00    +0.050 A 
ATOM     31  C   UNL     1       6.391  -1.778   6.176  0.00  0.00    +0.166 A 
ATOM     32  C   UNL     1       5.912  -2.783   5.339  0.00  0.00    +0.167 A 
ATOM     33  C   UNL     1       5.442  -2.461   4.076  0.00  0.00    +0.054 A 
ATOM     34  O   UNL     1       6.014  -3.978   5.989  0.00  0.00    -0.453 OA
ATOM     35  C   UNL     1       6.178  -3.647   7.381  0.00  0.00    +0.466 C 
ATOM     36  O   UNL     1       6.792  -2.345   7.352  0.00  0.00    -0.453 OA
ENDBRANCH  27  28
ENDBRANCH   1  27
TORSDOF 7
