REMARK  Name = ZINC38802982
REMARK  3 active torsions:
REMARK  status: ('A' for Active; 'I' for Inactive)
REMARK    1  A    between atoms: C_6  and  N_7
REMARK    2  A    between atoms: N_7  and  S_8
REMARK    3  A    between atoms: S_8  and  C_11
REMARK                            x       y       z     vdW  Elec       q    Type
REMARK                         _______ _______ _______ _____ _____    ______ ____
ROOT
ATOM      1  S   UNL     1      -1.279  -2.040  -0.987  0.00  0.00    +0.072 S 
ATOM      2  O   UNL     1      -2.573  -2.601  -0.808  0.00  0.00    -0.150 OA
ATOM      3  O   UNL     1      -0.799  -1.624  -2.257  0.00  0.00    -0.150 OA
ENDROOT
BRANCH   1   4
ATOM      4  C   UNL     1      -0.127  -3.226  -0.377  0.00  0.00    +0.110 A 
ATOM      5  C   UNL     1       1.270  -3.128  -0.782  0.00  0.00    +0.031 A 
ATOM      6  C   UNL     1       2.203  -4.004  -0.351  0.00  0.00    +0.027 A 
ATOM      7  C   UNL     1       1.815  -5.087   0.550  0.00  0.00    +0.056 A 
ATOM      8  N   UNL     1       2.446  -6.073   1.135  0.00  0.00    -0.268 N 
ATOM      9  C   UNL     1       1.540  -6.786   1.883  0.00  0.00    +0.308 C 
ATOM     10  O   UNL     1       1.802  -7.764   2.551  0.00  0.00    -0.252 OA
ATOM     11  N   UNL     1       0.291  -6.224   1.761  0.00  0.00    -0.267 N 
ATOM     12  C   UNL     1       0.380  -5.187   0.967  0.00  0.00    +0.058 A 
ATOM     13  C   UNL     1      -0.564  -4.195   0.457  0.00  0.00    +0.054 A 
ATOM     14  H   UNL     1      -0.519  -6.542   2.191  0.00  0.00    +0.156 HD
ATOM     15  H   UNL     1       3.393  -6.267   1.055  0.00  0.00    +0.156 HD
ENDBRANCH   1   4
BRANCH   1  16
ATOM     16  N   UNL     1      -1.195  -0.719   0.008  0.00  0.00    -0.216 N 
ATOM     17  H   UNL     1      -0.922   0.141  -0.349  0.00  0.00    +0.174 HD
BRANCH  16  23
ATOM     18  C   UNL     1      -0.689  -0.282   2.328  0.00  0.00    +0.025 A 
ATOM     19  C   UNL     1      -1.010  -0.406   3.665  0.00  0.00    +0.017 A 
ATOM     20  C   UNL     1      -2.154  -1.086   4.044  0.00  0.00    +0.018 A 
ATOM     21  C   UNL     1      -2.979  -1.644   3.085  0.00  0.00    +0.017 A 
ATOM     22  C   UNL     1      -2.664  -1.525   1.746  0.00  0.00    +0.025 A 
ATOM     23  C   UNL     1      -1.516  -0.842   1.362  0.00  0.00    +0.048 A 
ATOM     24 BR   UNL     1      -2.588  -1.253   5.877  0.00  0.00    -0.050 Br
ENDBRANCH  16  23
ENDBRANCH   1  16
TORSDOF 3
