REMARK  Name = ZINC06101473
REMARK  6 active torsions:
REMARK  status: ('A' for Active; 'I' for Inactive)
REMARK    1  A    between atoms: C_1  and  C_2
REMARK    2  A    between atoms: C_5  and  S_8
REMARK    3  A    between atoms: S_8  and  N_11
REMARK    4  A    between atoms: N_11  and  C_12
REMARK    5  A    between atoms: C_15  and  C_29
REMARK    6  A    between atoms: C_18  and  C_22
REMARK                            x       y       z     vdW  Elec       q    Type
REMARK                         _______ _______ _______ _____ _____    ______ ____
ROOT
ATOM      1  C   UNL     1       1.978  -6.356  -0.043  0.00  0.00    +0.255 A 
ATOM      2  N   UNL     1       1.111  -7.349  -0.050  0.00  0.00    -0.130 NA
ATOM      3  N   UNL     1       1.851  -8.526  -0.054  0.00  0.00    -0.221 N 
ATOM      4  C   UNL     1       1.418  -9.924  -0.044  0.00  0.00    +0.147 C 
ATOM      5  C   UNL     1       2.485 -10.757  -0.764  0.00  0.00    +0.087 C 
ATOM      6  C   UNL     1       3.869 -10.326  -0.369  0.00  0.00    +0.055 C 
ATOM      7  N   UNL     1       4.167  -9.087  -0.083  0.00  0.00    -0.217 NA
ATOM      8  C   UNL     1       3.169  -8.163  -0.060  0.00  0.00    +0.228 A 
ATOM      9  N   UNL     1       3.220  -6.853  -0.053  0.00  0.00    -0.293 N 
ATOM     10  H   UNL     1       4.033  -6.324  -0.053  0.00  0.00    +0.172 HD
ENDROOT
BRANCH   6  11
ATOM     11  C   UNL     1       4.931 -11.341  -0.301  0.00  0.00    -0.003 A 
ATOM     12  C   UNL     1       4.648 -12.676  -0.605  0.00  0.00    +0.011 A 
ATOM     13  C   UNL     1       5.649 -13.622  -0.540  0.00  0.00    +0.020 A 
ATOM     14  C   UNL     1       6.933 -13.252  -0.172  0.00  0.00    +0.041 A 
ATOM     15  C   UNL     1       7.221 -11.931   0.131  0.00  0.00    +0.020 A 
ATOM     16  C   UNL     1       6.231 -10.974   0.064  0.00  0.00    +0.011 A 
ATOM     17 CL   UNL     1       8.187 -14.450  -0.091  0.00  0.00    -0.084 Cl
ENDBRANCH   6  11
BRANCH   4  18
ATOM     18  C   UNL     1       0.100 -10.053  -0.763  0.00  0.00    -0.023 A 
ATOM     19  C   UNL     1      -0.001  -9.691  -2.093  0.00  0.00    +0.007 A 
ATOM     20  C   UNL     1      -1.210  -9.809  -2.752  0.00  0.00    +0.020 A 
ATOM     21  C   UNL     1      -2.320 -10.290  -2.081  0.00  0.00    +0.041 A 
ATOM     22  C   UNL     1      -2.218 -10.653  -0.750  0.00  0.00    +0.020 A 
ATOM     23  C   UNL     1      -1.007 -10.540  -0.093  0.00  0.00    +0.007 A 
ATOM     24 CL   UNL     1      -3.838 -10.439  -2.908  0.00  0.00    -0.084 Cl
ENDBRANCH   4  18
BRANCH   1  25
ATOM     25  N   UNL     1       1.651  -4.999  -0.034  0.00  0.00    -0.058 NA
BRANCH  25  26
ATOM     26  S   UNL     1       0.063  -4.530  -0.023  0.00  0.00    +0.094 S 
ATOM     27  O   UNL     1      -0.476  -4.950   1.223  0.00  0.00    -0.148 OA
ATOM     28  O   UNL     1      -0.490  -4.937  -1.267  0.00  0.00    -0.148 OA
BRANCH  26  33
ATOM     29  C   UNL     1      -0.018   1.503   0.010  0.00  0.00    +0.044 C 
ATOM     30  C   UNL     1       0.002  -0.004   0.002  0.00  0.00    -0.050 A 
ATOM     31  C   UNL     1       0.006  -0.689  -1.199  0.00  0.00    +0.005 A 
ATOM     32  C   UNL     1       0.025  -2.071  -1.206  0.00  0.00    +0.029 A 
ATOM     33  C   UNL     1       0.040  -2.768  -0.013  0.00  0.00    +0.110 A 
ATOM     34  C   UNL     1       0.037  -2.084   1.188  0.00  0.00    +0.029 A 
ATOM     35  C   UNL     1       0.023  -0.702   1.195  0.00  0.00    +0.005 A 
ENDBRANCH  26  33
ENDBRANCH  25  26
ENDBRANCH   1  25
TORSDOF 5
