REMARK  Name = ZINC22263121
REMARK  6 active torsions:
REMARK  status: ('A' for Active; 'I' for Inactive)
REMARK    1  A    between atoms: C_3  and  O_24
REMARK    2  A    between atoms: C_6  and  N_7
REMARK    3  A    between atoms: C_8  and  S_12
REMARK    4  A    between atoms: S_12  and  C_13
REMARK    5  A    between atoms: C_13  and  C_14
REMARK    6  A    between atoms: O_24  and  C_25
REMARK                            x       y       z     vdW  Elec       q    Type
REMARK                         _______ _______ _______ _____ _____    ______ ____
ROOT
ATOM      1  N   UNL     1       2.541  -2.504   4.232  0.00  0.00    -0.187 N 
ATOM      2  C   UNL     1       3.648  -2.083   4.895  0.00  0.00    +0.214 A 
ATOM      3  N   UNL     1       3.903  -2.977   5.826  0.00  0.00    -0.101 NA
ATOM      4  N   UNL     1       3.041  -3.927   5.786  0.00  0.00    -0.022 NA
ATOM      5  N   UNL     1       2.182  -3.716   4.849  0.00  0.00    -0.038 NA
ENDROOT
BRANCH   1  11
ATOM      6  C   UNL     1       1.315  -2.628   2.152  0.00  0.00    +0.031 A 
ATOM      7  C   UNL     1       0.682  -2.004   1.097  0.00  0.00    +0.048 A 
ATOM      8  C   UNL     1       0.626  -0.619   1.042  0.00  0.00    +0.130 A 
ATOM      9  C   UNL     1       1.212   0.140   2.045  0.00  0.00    +0.048 A 
ATOM     10  C   UNL     1       1.841  -0.484   3.104  0.00  0.00    +0.031 A 
ATOM     11  C   UNL     1       1.897  -1.870   3.159  0.00  0.00    +0.070 A 
BRANCH   8  12
ATOM     12  O   UNL     1       0.002  -0.004   0.002  0.00  0.00    -0.406 OA
BRANCH  12  13
ATOM     13  C   UNL     1      -0.017   1.425   0.010  0.00  0.00    +0.575 C 
ATOM     14  F   UNL     1       1.295   1.909  -0.000  0.00  0.00    -0.133 F 
ATOM     15  F   UNL     1      -0.694   1.888  -1.123  0.00  0.00    -0.133 F 
ATOM     16  F   UNL     1      -0.672   1.876   1.161  0.00  0.00    -0.133 F 
ENDBRANCH  12  13
ENDBRANCH   8  12
ENDBRANCH   1  11
BRANCH   2  17
ATOM     17  S   UNL     1       4.567  -0.615   4.571  0.00  0.00    -0.078 S 
BRANCH  17  18
ATOM     18  C   UNL     1       5.852  -0.763   5.837  0.00  0.00    +0.134 C 
BRANCH  18  19
ATOM     19  C   UNL     1       6.783   0.418   5.748  0.00  0.00    +0.070 A 
ATOM     20  C   UNL     1       7.906   0.482   5.000  0.00  0.00    +0.116 A 
ATOM     21  N   UNL     1       8.455   1.720   5.199  0.00  0.00    -0.305 N 
ATOM     22  C   UNL     1       9.574   2.324   4.703  0.00  0.00    +0.112 A 
ATOM     23  C   UNL     1       9.899   3.580   5.076  0.00  0.00    +0.058 A 
ATOM     24  C   UNL     1       9.086   4.283   5.982  0.00  0.00    +0.025 A 
ATOM     25  C   UNL     1       7.968   3.692   6.482  0.00  0.00    +0.048 A 
ATOM     26  C   UNL     1       7.643   2.380   6.083  0.00  0.00    +0.138 A 
ATOM     27  N   UNL     1       6.640   1.574   6.401  0.00  0.00    -0.232 NA
ATOM     28 CL   UNL     1      11.328   4.330   4.435  0.00  0.00    -0.082 Cl
ENDBRANCH  18  19
ENDBRANCH  17  18
ENDBRANCH   2  17
TORSDOF 6
