REMARK  Name = ZINC63385139
REMARK  5 active torsions:
REMARK  status: ('A' for Active; 'I' for Inactive)
REMARK    1  A    between atoms: C_1  and  C_2
REMARK    2  A    between atoms: C_2  and  C_3
REMARK    3  A    between atoms: C_3  and  N_4
REMARK    4  A    between atoms: C_19  and  O_24
REMARK    5  A    between atoms: O_24  and  C_25
REMARK                            x       y       z     vdW  Elec       q    Type
REMARK                         _______ _______ _______ _____ _____    ______ ____
ROOT
ATOM      1  N   UNL     1      -1.413  -1.998   0.005  0.00  0.00    -0.269 N 
ATOM      2  C   UNL     1      -1.408  -2.766  -1.147  0.00  0.00    +0.042 A 
ATOM      3  C   UNL     1      -1.419  -2.360  -2.482  0.00  0.00    +0.025 A 
ATOM      4  C   UNL     1      -1.409  -3.354  -3.448  0.00  0.00    +0.017 A 
ATOM      5  C   UNL     1      -1.390  -4.694  -3.117  0.00  0.00    +0.018 A 
ATOM      6  C   UNL     1      -1.379  -5.112  -1.790  0.00  0.00    +0.023 A 
ATOM      7  C   UNL     1      -1.388  -4.128  -0.824  0.00  0.00    +0.006 A 
ATOM      8  C   UNL     1      -1.382  -4.204   0.669  0.00  0.00    +0.148 C 
ATOM      9  C   UNL     1      -1.393  -2.759   1.120  0.00  0.00    +0.247 C 
ATOM     10  O   UNL     1      -1.386  -2.360   2.265  0.00  0.00    -0.273 OA
ATOM     11  C   UNL     1      -2.616  -4.932   1.191  0.00  0.00    +0.140 C 
ATOM     12  C   UNL     1      -2.432  -6.401   0.825  0.00  0.00    -0.035 C 
ATOM     13  C   UNL     1      -3.523  -6.763   0.165  0.00  0.00    +0.003 A 
ATOM     14  C   UNL     1      -3.968  -8.060  -0.366  0.00  0.00    +0.055 A 
ATOM     15  C   UNL     1      -5.162  -8.076  -1.019  0.00  0.00    +0.121 A 
ATOM     16  C   UNL     1      -5.970  -6.944  -1.205  0.00  0.00    +0.047 A 
ATOM     17  C   UNL     1      -5.659  -5.702  -0.753  0.00  0.00    +0.029 A 
ATOM     18  C   UNL     1      -4.391  -5.559  -0.025  0.00  0.00    +0.043 A 
ATOM     19  N   UNL     1      -3.852  -4.501   0.540  0.00  0.00    -0.375 N 
ATOM     20  C   UNL     1      -1.150  -7.136   1.133  0.00  0.00    +0.048 C 
ATOM     21  C   UNL     1      -0.005  -6.233   0.641  0.00  0.00    +0.086 C 
ATOM     22  N   UNL     1      -0.173  -4.872   1.162  0.00  0.00    -0.297 NA
ATOM     23 BR   UNL     1      -1.377  -5.988  -4.495  0.00  0.00    -0.050 Br
ATOM     24  H   UNL     1       0.647  -4.313   0.985  0.00  0.00    +0.123 HD
ATOM     25  H   UNL     1      -4.201  -3.596   0.527  0.00  0.00    +0.160 HD
ENDROOT
BRANCH  15  26
ATOM     26  O   UNL     1      -5.599  -9.261  -1.522  0.00  0.00    -0.495 OA
ATOM     27  C   UNL     1      -6.856  -9.253  -2.203  0.00  0.00    +0.277 C 
ENDBRANCH  15  26
BRANCH   1  28
ATOM     28  C   UNL     1      -1.433  -0.534   0.013  0.00  0.00    +0.113 C 
BRANCH  28  30
ATOM     29  C   UNL     1      -0.019   1.526   0.010  0.00  0.00    +0.005 C 
ATOM     30  C   UNL     1       0.002  -0.004   0.002  0.00  0.00    +0.016 C 
ENDBRANCH  28  30
ENDBRANCH   1  28
TORSDOF 3
