REMARK  Name = ZINC13346981
REMARK  5 active torsions:
REMARK  status: ('A' for Active; 'I' for Inactive)
REMARK    1  A    between atoms: C_1  and  N_2
REMARK    2  A    between atoms: C_3  and  N_11
REMARK    3  A    between atoms: N_7  and  C_10
REMARK    4  A    between atoms: C_14  and  C_17
REMARK    5  A    between atoms: C_22  and  N_65
REMARK                            x       y       z     vdW  Elec       q    Type
REMARK                         _______ _______ _______ _____ _____    ______ ____
ROOT
ATOM      1  N   UNL     1      -1.161   1.478  -1.408  0.00  0.00    -0.316 N 
ATOM      2  C   UNL     1      -0.235   1.404  -0.271  0.00  0.00    +0.107 C 
ATOM      3  C   UNL     1      -0.933   1.915   0.991  0.00  0.00    +0.032 C 
ATOM      4  C   UNL     1      -2.173   1.060   1.264  0.00  0.00    +0.078 C 
ATOM      5  C   UNL     1      -3.099   1.115   0.046  0.00  0.00    +0.032 C 
ATOM      6  C   UNL     1      -2.339   0.628  -1.189  0.00  0.00    +0.107 C 
ENDROOT
BRANCH   1   9
ATOM      7  C   UNL     1      -2.199   2.469  -3.807  0.00  0.00    +0.155 C 
ATOM      8  N   UNL     1      -1.007   1.616  -3.780  0.00  0.00    -0.285 N 
ATOM      9  C   UNL     1      -0.529   1.149  -2.580  0.00  0.00    +0.110 A 
ATOM     10  C   UNL     1       0.580   0.349  -2.564  0.00  0.00    +0.112 A 
ATOM     11  C   UNL     1       1.206   0.030  -3.779  0.00  0.00    +0.258 A 
ATOM     12  O   UNL     1       2.196  -0.682  -3.790  0.00  0.00    -0.267 OA
ATOM     13  N   UNL     1       0.707   0.514  -4.933  0.00  0.00    -0.264 N 
ATOM     14  C   UNL     1      -0.385   1.300  -4.930  0.00  0.00    +0.333 A 
ATOM     15  O   UNL     1      -0.819   1.725  -5.983  0.00  0.00    -0.246 OA
ATOM     16  C   UNL     1       1.360   0.182  -6.202  0.00  0.00    +0.157 C 
ENDBRANCH   1   9
BRANCH   4  17
ATOM     17  C   UNL     1      -2.898   1.596   2.472  0.00  0.00    +0.219 C 
ATOM     18  O   UNL     1      -3.824   2.366   2.332  0.00  0.00    -0.275 OA
ATOM     19  N   UNL     1      -2.517   1.218   3.709  0.00  0.00    -0.301 N 
ATOM     20  C   UNL     1      -1.332   0.372   3.901  0.00  0.00    +0.106 C 
ATOM     21  C   UNL     1      -1.723  -0.851   4.729  0.00  0.00    +0.004 C 
ATOM     22  C   UNL     1      -2.386  -0.393   6.029  0.00  0.00    -0.066 C 
ATOM     23  C   UNL     1      -3.655   0.399   5.705  0.00  0.00    +0.004 C 
ATOM     24  C   UNL     1      -3.283   1.640   4.889  0.00  0.00    +0.106 C 
BRANCH  22  30
ATOM     25  C   UNL     1      -3.464  -1.172   8.052  0.00  0.00    -0.078 C 
ATOM     26  C   UNL     1      -3.937  -2.424   8.795  0.00  0.00    -0.019 C 
ATOM     27  C   UNL     1      -2.724  -3.283   9.163  0.00  0.00    -0.004 C 
ATOM     28  C   UNL     1      -1.956  -3.640   7.888  0.00  0.00    -0.019 C 
ATOM     29  C   UNL     1      -1.540  -2.354   7.171  0.00  0.00    -0.078 C 
ATOM     30  N   UNL     1      -2.754  -1.584   6.823  0.00  0.00    +0.382 N 
ATOM     31  H   UNL     1      -3.376  -2.179   6.263  0.00  0.00    -0.081 HD
ENDBRANCH  22  30
ENDBRANCH   4  17
TORSDOF 3
