REMARK  Name = ZINC12521921
REMARK  8 active torsions:
REMARK  status: ('A' for Active; 'I' for Inactive)
REMARK    1  A    between atoms: C_1  and  C_2
REMARK    2  A    between atoms: C_5  and  N_9
REMARK    3  A    between atoms: C_6  and  C_8
REMARK    4  A    between atoms: C_13  and  C_15
REMARK    5  A    between atoms: C_15  and  C_17
REMARK    6  A    between atoms: C_15  and  N_18
REMARK    7  A    between atoms: N_21  and  C_24
REMARK    8  A    between atoms: C_27  and  N_30
REMARK                            x       y       z     vdW  Elec       q    Type
REMARK                         _______ _______ _______ _____ _____    ______ ____
ROOT
ATOM      1  C   UNL     1      -0.307  -8.372  -2.349  0.00  0.00    +0.140 C 
ATOM      2  C   UNL     1      -1.543  -8.817  -1.563  0.00  0.00    +0.034 C 
ENDROOT
BRANCH   1   7
ATOM      3  N   UNL     1       0.058  -4.197   0.006  0.00  0.00    -0.269 N 
ATOM      4  C   UNL     1      -0.044  -4.859  -1.163  0.00  0.00    +0.310 C 
ATOM      5  O   UNL     1      -0.066  -4.243  -2.211  0.00  0.00    -0.252 OA
ATOM      6  N   UNL     1      -0.120  -6.205  -1.171  0.00  0.00    -0.239 N 
ATOM      7  C   UNL     1      -0.222  -6.867  -2.340  0.00  0.00    +0.237 C 
ATOM      8  O   UNL     1      -0.244  -6.253  -3.385  0.00  0.00    -0.274 OA
ATOM      9  H   UNL     1       0.140  -4.690   0.837  0.00  0.00    +0.156 HD
ATOM     10  H   UNL     1      -0.102  -6.696  -0.335  0.00  0.00    +0.159 HD
BRANCH   3  15
ATOM     11  C   UNL     1       0.004   1.476   0.065  0.00  0.00    +0.044 C 
ATOM     12  C   UNL     1       0.019  -0.031   0.049  0.00  0.00    -0.050 A 
ATOM     13  C   UNL     1       0.613  -0.705  -1.002  0.00  0.00    +0.005 A 
ATOM     14  C   UNL     1       0.628  -2.085  -1.020  0.00  0.00    +0.024 A 
ATOM     15  C   UNL     1       0.045  -2.797   0.021  0.00  0.00    +0.038 A 
ATOM     16  C   UNL     1      -0.551  -2.118   1.075  0.00  0.00    -0.029 A 
ATOM     17  C   UNL     1      -0.558  -0.737   1.089  0.00  0.00    +0.008 A 
ATOM     18  C   UNL     1      -1.184  -2.887   2.206  0.00  0.00    +0.045 C 
ENDBRANCH   3  15
ENDBRANCH   1   7
BRANCH   1  19
ATOM     19  N   UNL     1      -0.410  -8.849  -3.734  0.00  0.00    -0.289 NA
ATOM     20  C   UNL     1      -1.615  -8.319  -4.385  0.00  0.00    +0.104 C 
ATOM     21  C   UNL     1      -1.593  -8.687  -5.872  0.00  0.00    +0.120 C 
ATOM     22  N   UNL     1      -1.411 -10.142  -5.990  0.00  0.00    -0.327 N 
ATOM     23  C   UNL     1      -0.303 -10.767  -5.253  0.00  0.00    +0.120 C 
ATOM     24  C   UNL     1      -0.376 -10.316  -3.790  0.00  0.00    +0.104 C 
BRANCH  22  25
ATOM     25  C   UNL     1      -2.269 -10.910  -6.781  0.00  0.00    +0.030 A 
ATOM     26  C   UNL     1      -3.235 -10.291  -7.565  0.00  0.00    +0.025 A 
ATOM     27  C   UNL     1      -4.081 -11.053  -8.346  0.00  0.00    +0.034 A 
ATOM     28  C   UNL     1      -3.968 -12.431  -8.349  0.00  0.00    +0.126 A 
ATOM     29  C   UNL     1      -3.008 -13.051  -7.570  0.00  0.00    +0.034 A 
ATOM     30  C   UNL     1      -2.155 -12.294  -6.790  0.00  0.00    +0.025 A 
BRANCH  28  31
ATOM     31  N   UNL     1      -4.877 -13.245  -9.187  0.00  0.00    +0.056 N 
ATOM     32  O   UNL     1      -5.717 -12.704  -9.868  0.00  0.00    -0.126 OA
ATOM     33  O   UNL     1      -4.779 -14.450  -9.191  0.00  0.00    -0.126 OA
ENDBRANCH  28  31
ENDBRANCH  22  25
ENDBRANCH   1  19
TORSDOF 5
