REMARK  Name = ZINC21297916
REMARK  5 active torsions:
REMARK  status: ('A' for Active; 'I' for Inactive)
REMARK    1  A    between atoms: C_4  and  N_7
REMARK    2  A    between atoms: N_7  and  C_8
REMARK    3  A    between atoms: C_8  and  C_9
REMARK    4  A    between atoms: C_21  and  C_23
REMARK    5  A    between atoms: C_23  and  N_24
REMARK                            x       y       z     vdW  Elec       q    Type
REMARK                         _______ _______ _______ _____ _____    ______ ____
ROOT
ATOM      1  N   UNL     1       4.640   4.300  -1.097  0.00  0.00    -0.261 N 
ATOM      2  C   UNL     1       5.317   5.156  -0.307  0.00  0.00    +0.238 C 
ATOM      3  O   UNL     1       5.007   5.280   0.859  0.00  0.00    -0.273 OA
ENDROOT
BRANCH   1   7
ATOM      4  C   UNL     1       5.498   4.097  -5.168  0.00  0.00    +0.000 A 
ATOM      5  C   UNL     1       6.212   3.321  -4.273  0.00  0.00    +0.002 A 
ATOM      6  C   UNL     1       5.930   3.387  -2.923  0.00  0.00    +0.023 A 
ATOM      7  C   UNL     1       4.928   4.232  -2.464  0.00  0.00    +0.037 A 
ATOM      8  C   UNL     1       4.209   5.005  -3.366  0.00  0.00    +0.023 A 
ATOM      9  C   UNL     1       4.500   4.940  -4.715  0.00  0.00    +0.002 A 
ENDBRANCH   1   7
BRANCH   1  10
ATOM     10  C   UNL     1       3.601   3.440  -0.523  0.00  0.00    +0.209 C 
BRANCH  10  11
ATOM     11  C   UNL     1       4.217   2.141  -0.072  0.00  0.00    +0.238 C 
ATOM     12  O   UNL     1       5.420   1.994  -0.111  0.00  0.00    -0.274 OA
ATOM     13  N   UNL     1       3.431   1.141   0.374  0.00  0.00    -0.270 N 
ATOM     14  C   UNL     1       1.987   1.349   0.550  0.00  0.00    +0.114 C 
ATOM     15  C   UNL     1       1.586   0.738   1.899  0.00  0.00    +0.024 C 
ATOM     16  C   UNL     1       1.841  -0.769   1.855  0.00  0.00    +0.038 C 
ATOM     17  C   UNL     1       3.245  -1.052   1.390  0.00  0.00    -0.026 A 
ATOM     18  C   UNL     1       3.977  -0.113   0.679  0.00  0.00    +0.039 A 
ATOM     19  C   UNL     1       5.269  -0.409   0.260  0.00  0.00    +0.024 A 
ATOM     20  C   UNL     1       5.826  -1.637   0.555  0.00  0.00    +0.002 A 
ATOM     21  C   UNL     1       5.098  -2.572   1.267  0.00  0.00    +0.000 A 
ATOM     22  C   UNL     1       3.811  -2.283   1.678  0.00  0.00    +0.005 A 
ENDBRANCH  10  11
ENDBRANCH   1  10
BRANCH   2  23
ATOM     23  C   UNL     1       6.460   5.959  -0.872  0.00  0.00    +0.213 C 
BRANCH  23  24
ATOM     24  N   UNL     1       7.024   6.812   0.177  0.00  0.00    -0.225 N 
ATOM     25  C   UNL     1       6.615   8.066   0.441  0.00  0.00    +0.254 C 
ATOM     26  O   UNL     1       5.733   8.661  -0.144  0.00  0.00    -0.270 OA
ATOM     27  C   UNL     1       7.417   8.597   1.563  0.00  0.00    +0.049 A 
ATOM     28  C   UNL     1       7.442   9.799   2.251  0.00  0.00    +0.014 A 
ATOM     29  C   UNL     1       8.349   9.982   3.283  0.00  0.00    +0.001 A 
ATOM     30  C   UNL     1       9.229   8.974   3.630  0.00  0.00    +0.001 A 
ATOM     31  C   UNL     1       9.215   7.766   2.950  0.00  0.00    +0.014 A 
ATOM     32  C   UNL     1       8.314   7.568   1.917  0.00  0.00    +0.049 A 
ATOM     33  C   UNL     1       8.023   6.446   1.000  0.00  0.00    +0.254 C 
ATOM     34  O   UNL     1       8.591   5.372   0.992  0.00  0.00    -0.270 OA
ENDBRANCH  23  24
ENDBRANCH   2  23
TORSDOF 5
