REMARK  Name = ZINC12480823
REMARK  12 active torsions:
REMARK  status: ('A' for Active; 'I' for Inactive)
REMARK    1  A    between atoms: C_1  and  C_2
REMARK    2  A    between atoms: C_5  and  N_8
REMARK    3  A    between atoms: N_8  and  C_9
REMARK    4  A    between atoms: C_9  and  C_11
REMARK    5  A    between atoms: C_9  and  C_20
REMARK    6  A    between atoms: C_14  and  N_17
REMARK    7  A    between atoms: N_17  and  C_18
REMARK    8  A    between atoms: N_17  and  C_19
REMARK    9  A    between atoms: N_22  and  C_23
REMARK   10  A    between atoms: C_23  and  C_24
REMARK   11  A    between atoms: C_30  and  C_32
REMARK   12  A    between atoms: C_32  and  N_33
REMARK                            x       y       z     vdW  Elec       q    Type
REMARK                         _______ _______ _______ _____ _____    ______ ____
ROOT
ATOM      1  N   UNL     1       1.454   2.144   7.071  0.00  0.00    -0.254 N 
ATOM      2  C   UNL     1       1.977   1.988   8.304  0.00  0.00    +0.242 C 
ATOM      3  O   UNL     1       3.042   2.496   8.580  0.00  0.00    -0.273 OA
ENDROOT
BRANCH   1   8
ATOM      4  C   UNL     1      -3.692   0.073   5.884  0.00  0.00    +0.044 C 
ATOM      5  C   UNL     1      -2.325   0.623   6.200  0.00  0.00    -0.050 A 
ATOM      6  C   UNL     1      -1.201   0.038   5.646  0.00  0.00    +0.005 A 
ATOM      7  C   UNL     1       0.053   0.540   5.932  0.00  0.00    +0.024 A 
ATOM      8  C   UNL     1       0.185   1.633   6.779  0.00  0.00    +0.037 A 
ATOM      9  C   UNL     1      -0.945   2.214   7.339  0.00  0.00    +0.024 A 
ATOM     10  C   UNL     1      -2.197   1.711   7.043  0.00  0.00    +0.005 A 
ENDBRANCH   1   8
BRANCH   1  11
ATOM     11  C   UNL     1       2.216   2.850   6.038  0.00  0.00    +0.197 C 
BRANCH  11  12
ATOM     12  C   UNL     1       1.494   2.741   4.719  0.00  0.00    -0.018 A 
ATOM     13  C   UNL     1       2.141   2.209   3.620  0.00  0.00    +0.008 A 
ATOM     14  C   UNL     1       1.482   2.108   2.410  0.00  0.00    +0.023 A 
ATOM     15  C   UNL     1       0.168   2.543   2.299  0.00  0.00    +0.029 A 
ATOM     16  C   UNL     1      -0.478   3.082   3.404  0.00  0.00    +0.023 A 
ATOM     17  C   UNL     1       0.185   3.175   4.612  0.00  0.00    +0.008 A 
BRANCH  15  18
ATOM     18  N   UNL     1      -0.501   2.443   1.077  0.00  0.00    -0.336 N 
ATOM     19  C   UNL     1       0.183   1.879  -0.089  0.00  0.00    +0.129 C 
ATOM     20  C   UNL     1      -1.888   2.902   0.961  0.00  0.00    +0.129 C 
ENDBRANCH  15  18
ENDBRANCH  11  12
BRANCH  11  21
ATOM     21  C   UNL     1       2.352   4.302   6.417  0.00  0.00    +0.239 C 
ATOM     22  O   UNL     1       1.862   4.708   7.450  0.00  0.00    -0.273 OA
ATOM     23  N   UNL     1       3.019   5.150   5.610  0.00  0.00    -0.311 N 
ATOM     24  H   UNL     1       3.412   4.826   4.784  0.00  0.00    +0.149 HD
BRANCH  23  25
ATOM     25  C   UNL     1       3.152   6.562   5.979  0.00  0.00    +0.135 C 
BRANCH  25  26
ATOM     26  C   UNL     1       3.947   7.299   4.899  0.00  0.00    +0.135 C 
ATOM     27  C   UNL     1       4.174   8.771   5.309  0.00  0.00    +0.035 C 
ATOM     28  C   UNL     1       4.052   9.553   3.982  0.00  0.00    +0.031 C 
ATOM     29  C   UNL     1       3.767   8.461   2.928  0.00  0.00    +0.160 C 
ATOM     30  O   UNL     1       3.186   7.367   3.674  0.00  0.00    -0.375 OA
ENDBRANCH  25  26
ENDBRANCH  23  25
ENDBRANCH  11  21
ENDBRANCH   1  11
BRANCH   2  31
ATOM     31  C   UNL     1       1.236   1.180   9.339  0.00  0.00    +0.242 C 
BRANCH  31  32
ATOM     32  N   UNL     1       1.967   1.225  10.608  0.00  0.00    -0.235 N 
ATOM     33  C   UNL     1       2.940   0.350  11.028  0.00  0.00    +0.090 A 
ATOM     34  C   UNL     1       3.540  -0.771  10.464  0.00  0.00    +0.029 A 
ATOM     35  C   UNL     1       4.512  -1.440  11.153  0.00  0.00    +0.002 A 
ATOM     36  C   UNL     1       4.913  -1.007  12.411  0.00  0.00    +0.002 A 
ATOM     37  C   UNL     1       4.344   0.094  12.983  0.00  0.00    +0.032 A 
ATOM     38  C   UNL     1       3.345   0.797  12.297  0.00  0.00    +0.113 A 
ATOM     39  N   UNL     1       2.617   1.891  12.597  0.00  0.00    -0.129 NA
ATOM     40  N   UNL     1       1.807   2.166  11.636  0.00  0.00    -0.064 NA
ENDBRANCH  31  32
ENDBRANCH   2  31
TORSDOF 9
