REMARK  Name = ZINC36066224
REMARK  12 active torsions:
REMARK  status: ('A' for Active; 'I' for Inactive)
REMARK    1  A    between atoms: C_1  and  C_2
REMARK    2  A    between atoms: C_7  and  N_12
REMARK    3  A    between atoms: C_9  and  C_11
REMARK    4  A    between atoms: C_13  and  C_15
REMARK    5  A    between atoms: C_23  and  C_34
REMARK    6  A    between atoms: N_29  and  C_30
REMARK    7  A    between atoms: C_30  and  C_31
REMARK    8  A    between atoms: C_30  and  C_32
REMARK    9  A    between atoms: C_30  and  C_33
REMARK   10  A    between atoms: N_36  and  C_37
REMARK   11  A    between atoms: C_41  and  S_43
REMARK   12  A    between atoms: S_43  and  C_44
REMARK                            x       y       z     vdW  Elec       q    Type
REMARK                         _______ _______ _______ _____ _____    ______ ____
ROOT
ATOM      1  C   UNL     1      -2.125  -3.788   1.948  0.00  0.00    +0.199 C 
ATOM      2  C   UNL     1      -2.899  -3.427   3.177  0.00  0.00    +0.127 C 
ATOM      3  C   UNL     1      -2.058  -3.477   4.439  0.00  0.00    +0.009 C 
ATOM      4  C   UNL     1      -2.870  -3.129   5.426  0.00  0.00    +0.004 C 
ATOM      5  C   UNL     1      -4.238  -2.924   4.762  0.00  0.00    +0.155 C 
ATOM      6  O   UNL     1      -3.837  -2.406   3.425  0.00  0.00    -0.358 OA
ATOM      7  C   UNL     1      -4.679  -4.406   4.447  0.00  0.00    +0.123 C 
ATOM      8  C   UNL     1      -3.878  -4.669   3.172  0.00  0.00    +0.128 C 
ATOM      9  C   UNL     1      -2.915  -5.761   2.943  0.00  0.00    +0.224 C 
ATOM     10  O   UNL     1      -2.981  -6.887   3.388  0.00  0.00    -0.275 OA
ATOM     11  N   UNL     1      -1.929  -5.261   2.126  0.00  0.00    -0.281 N 
ENDROOT
BRANCH   1  13
ATOM     12  N   UNL     1      -0.636  -1.996   1.115  0.00  0.00    -0.311 N 
ATOM     13  C   UNL     1      -0.801  -3.069   1.915  0.00  0.00    +0.237 C 
ATOM     14  O   UNL     1       0.117  -3.455   2.608  0.00  0.00    -0.274 OA
ATOM     15  H   UNL     1      -1.369  -1.687   0.561  0.00  0.00    +0.149 HD
BRANCH  12  21
ATOM     16  C   UNL     1      -0.411   1.623  -1.191  0.00  0.00    +0.008 C 
ATOM     17  C   UNL     1      -0.193   0.173  -0.752  0.00  0.00    -0.009 C 
ATOM     18  C   UNL     1       0.742  -0.525  -1.742  0.00  0.00    +0.003 C 
ATOM     19  C   UNL     1       0.959  -1.974  -1.302  0.00  0.00    +0.002 C 
ATOM     20  C   UNL     1       1.586  -1.995   0.093  0.00  0.00    +0.022 C 
ATOM     21  C   UNL     1       0.651  -1.297   1.083  0.00  0.00    +0.076 C 
ATOM     22  C   UNL     1       0.434   0.152   0.644  0.00  0.00    +0.009 C 
ATOM     23  C   UNL     1      -0.501   0.850   1.633  0.00  0.00    +0.009 C 
ENDBRANCH  12  21
ENDBRANCH   1  13
BRANCH  11  24
ATOM     24  C   UNL     1      -0.851  -6.048   1.523  0.00  0.00    +0.030 C 
ATOM     25  C   UNL     1       0.214  -6.348   2.580  0.00  0.00    +0.031 C 
ATOM     26  C   UNL     1      -1.419  -7.363   0.986  0.00  0.00    +0.031 C 
ATOM     27  C   UNL     1      -0.222  -5.257   0.375  0.00  0.00    +0.031 C 
ENDBRANCH  11  24
BRANCH   7  28
ATOM     28  C   UNL     1      -4.279  -5.338   5.562  0.00  0.00    +0.224 C 
ATOM     29  O   UNL     1      -3.512  -6.251   5.343  0.00  0.00    -0.275 OA
ATOM     30  N   UNL     1      -4.775  -5.157   6.802  0.00  0.00    -0.285 N 
ATOM     31  H   UNL     1      -5.329  -4.385   6.995  0.00  0.00    +0.155 HD
BRANCH  30  32
ATOM     32  C   UNL     1      -4.491  -6.084   7.811  0.00  0.00    +0.034 A 
ATOM     33  C   UNL     1      -4.364  -5.660   9.129  0.00  0.00    +0.023 A 
ATOM     34  C   UNL     1      -4.083  -6.574  10.126  0.00  0.00    +0.003 A 
ATOM     35  C   UNL     1      -3.927  -7.912   9.817  0.00  0.00    +0.015 A 
ATOM     36  C   UNL     1      -4.053  -8.342   8.502  0.00  0.00    +0.009 A 
ATOM     37  C   UNL     1      -4.341  -7.427   7.498  0.00  0.00    +0.038 A 
BRANCH  36  38
ATOM     38  S   UNL     1      -3.853 -10.048   8.109  0.00  0.00    -0.129 S 
ATOM     39  C   UNL     1      -3.504 -10.829   9.708  0.00  0.00    +0.090 C 
ENDBRANCH  36  38
ENDBRANCH  30  32
ENDBRANCH   7  28
TORSDOF 6
