REMARK  Name = ZINC53844418
REMARK  9 active torsions:
REMARK  status: ('A' for Active; 'I' for Inactive)
REMARK    1  A    between atoms: C_1  and  C_2
REMARK    2  A    between atoms: C_10  and  C_11
REMARK    3  A    between atoms: C_17  and  C_29
REMARK    4  A    between atoms: C_18  and  C_22
REMARK    5  A    between atoms: C_22  and  O_24
REMARK    6  A    between atoms: O_24  and  C_25
REMARK    7  A    between atoms: C_25  and  C_26
REMARK    8  A    between atoms: C_26  and  O_27
REMARK    9  A    between atoms: O_27  and  C_28
REMARK                            x       y       z     vdW  Elec       q    Type
REMARK                         _______ _______ _______ _____ _____    ______ ____
ROOT
ATOM      1  C   UNL     1       0.032  -0.383   2.483  0.00  0.00    +0.178 A 
ATOM      2  N   UNL     1       0.061  -1.320   3.481  0.00  0.00    -0.304 N 
ATOM      3  H   UNL     1       0.074  -2.262   3.249  0.00  0.00    +0.170 HD
ATOM      4  C   UNL     1       0.070  -0.957   4.778  0.00  0.00    +0.260 A 
ATOM      5  O   UNL     1       0.096  -1.797   5.660  0.00  0.00    -0.267 OA
ATOM      6  C   UNL     1       0.049   0.486   5.107  0.00  0.00    +0.076 A 
ATOM      7  C   UNL     1       0.054   1.102   6.359  0.00  0.00    -0.015 A 
ATOM      8  C   UNL     1       0.031   2.465   6.447  0.00  0.00    +0.102 A 
ATOM      9  S   UNL     1       0.001   2.971   4.736  0.00  0.00    -0.062 S 
ATOM     10  C   UNL     1       0.020   1.359   3.992  0.00  0.00    +0.117 A 
ATOM     11  N   UNL     1       0.018   0.908   2.749  0.00  0.00    -0.219 NA
ATOM     12  C   UNL     1       0.083   0.265   7.612  0.00  0.00    +0.046 C 
ENDROOT
BRANCH   1  22
ATOM     13  C   UNL     1      -0.018   1.503   0.010  0.00  0.00    +0.048 C 
ATOM     14  C   UNL     1       0.002  -0.004   0.002  0.00  0.00    +0.006 A 
ATOM     15  C   UNL     1       0.009  -0.877  -1.171  0.00  0.00    +0.024 A 
ATOM     16  C   UNL     1      -0.000  -0.655  -2.550  0.00  0.00    +0.012 A 
ATOM     17  C   UNL     1       0.010  -1.718  -3.408  0.00  0.00    +0.001 A 
ATOM     18  C   UNL     1       0.030  -3.017  -2.918  0.00  0.00    +0.004 A 
ATOM     19  C   UNL     1       0.039  -3.257  -1.561  0.00  0.00    +0.047 A 
ATOM     20  C   UNL     1       0.029  -2.191  -0.669  0.00  0.00    +0.136 A 
ATOM     21  O   UNL     1       0.034  -2.113   0.677  0.00  0.00    -0.451 OA
ATOM     22  C   UNL     1       0.024  -0.827   1.083  0.00  0.00    +0.174 A 
ENDBRANCH   1  22
BRANCH   8  23
ATOM     23  C   UNL     1       0.031   3.303   7.647  0.00  0.00    +0.346 C 
ATOM     24  O   UNL     1       0.053   2.787   8.749  0.00  0.00    -0.244 OA
BRANCH  23  25
ATOM     25  O   UNL     1       0.006   4.647   7.532  0.00  0.00    -0.458 OA
BRANCH  25  26
ATOM     26  C   UNL     1       0.008   5.402   8.745  0.00  0.00    +0.260 C 
BRANCH  26  27
ATOM     27  C   UNL     1      -0.022   6.896   8.415  0.00  0.00    +0.200 C 
BRANCH  27  28
ATOM     28  O   UNL     1      -1.257   7.217   7.771  0.00  0.00    -0.380 OA
ATOM     29  C   UNL     1      -1.387   8.596   7.419  0.00  0.00    +0.194 C 
ENDBRANCH  27  28
ENDBRANCH  26  27
ENDBRANCH  25  26
ENDBRANCH  23  25
ENDBRANCH   8  23
TORSDOF 6
