REMARK  Name = ZINC06193775
REMARK  12 active torsions:
REMARK  status: ('A' for Active; 'I' for Inactive)
REMARK    1  A    between atoms: C_1  and  C_2
REMARK    2  A    between atoms: C_2  and  N_62
REMARK    3  A    between atoms: C_3  and  C_4
REMARK    4  A    between atoms: C_3  and  N_62
REMARK    5  A    between atoms: C_10  and  C_12
REMARK    6  A    between atoms: C_10  and  C_25
REMARK    7  A    between atoms: C_10  and  N_62
REMARK    8  A    between atoms: C_17  and  C_24
REMARK    9  A    between atoms: N_29  and  C_30
REMARK   10  A    between atoms: C_30  and  C_31
REMARK   11  A    between atoms: C_30  and  C_32
REMARK   12  A    between atoms: C_30  and  C_33
REMARK                            x       y       z     vdW  Elec       q    Type
REMARK                         _______ _______ _______ _____ _____    ______ ____
ROOT
ATOM      1  C   UNL     1      -4.799   0.495   0.280  0.00  0.00    +0.039 C 
ENDROOT
BRANCH   1   2
ATOM      2  C   UNL     1      -4.155   1.719   0.879  0.00  0.00    +0.011 A 
ATOM      3  C   UNL     1      -4.269   2.917   0.254  0.00  0.00    +0.017 A 
ATOM      4  C   UNL     1      -3.635   4.087   0.866  0.00  0.00    -0.001 A 
ATOM      5  C   UNL     1      -3.714   5.348   0.266  0.00  0.00    +0.010 A 
ATOM      6  C   UNL     1      -3.109   6.420   0.859  0.00  0.00    +0.004 A 
ATOM      7  C   UNL     1      -2.412   6.267   2.050  0.00  0.00    -0.048 A 
ATOM      8  C   UNL     1      -2.317   5.033   2.656  0.00  0.00    +0.029 A 
ATOM      9  C   UNL     1      -2.925   3.927   2.070  0.00  0.00    +0.049 A 
ATOM     10  N   UNL     1      -2.847   2.681   2.655  0.00  0.00    -0.322 N 
ATOM     11  H   UNL     1      -2.345   2.570   3.513  0.00  0.00    +0.169 HD
ATOM     12  C   UNL     1      -3.435   1.613   2.089  0.00  0.00    +0.251 A 
ATOM     13  O   UNL     1      -3.346   0.527   2.634  0.00  0.00    -0.268 OA
ATOM     14  C   UNL     1      -1.752   7.463   2.686  0.00  0.00    +0.044 C 
ENDBRANCH   1   2
BRANCH   1  15
ATOM     15  C   UNL     1      -5.598   0.893  -0.935  0.00  0.00    +0.143 A 
ATOM     16  N   UNL     1      -6.634   1.695  -0.963  0.00  0.00    -0.115 NA
ATOM     17  N   UNL     1      -7.037   1.783  -2.183  0.00  0.00    -0.023 NA
ATOM     18  N   UNL     1      -6.284   1.058  -2.935  0.00  0.00    -0.043 NA
ATOM     19  N   UNL     1      -5.382   0.497  -2.203  0.00  0.00    -0.225 N 
BRANCH  19  20
ATOM     20  C   UNL     1      -4.323  -0.404  -2.665  0.00  0.00    +0.059 C 
ATOM     21  C   UNL     1      -4.470  -1.761  -1.973  0.00  0.00    +0.036 C 
ATOM     22  C   UNL     1      -4.436  -0.590  -4.180  0.00  0.00    +0.036 C 
ATOM     23  C   UNL     1      -2.958   0.197  -2.325  0.00  0.00    +0.036 C 
ENDBRANCH  19  20
ENDBRANCH   1  15
BRANCH   1  24
ATOM     24  N   UNL     1      -5.675  -0.128   1.294  0.00  0.00    +0.392 N 
ATOM     25  H   UNL     1      -5.135  -0.279   2.154  0.00  0.00    -0.080 HD
BRANCH  24  27
ATOM     26  C   UNL     1      -6.339   1.866   2.543  0.00  0.00    -0.017 C 
ATOM     27  C   UNL     1      -6.815   0.764   1.594  0.00  0.00    -0.080 C 
ENDBRANCH  24  27
BRANCH  24  28
ATOM     28  C   UNL     1      -6.169  -1.431   0.803  0.00  0.00    -0.042 C 
BRANCH  28  29
ATOM     29  C   UNL     1      -6.922  -2.117   1.914  0.00  0.00    -0.064 A 
ATOM     30  C   UNL     1      -6.236  -2.855   2.861  0.00  0.00    +0.002 A 
ATOM     31  C   UNL     1      -6.926  -3.480   3.883  0.00  0.00    +0.000 A 
ATOM     32  C   UNL     1      -8.303  -3.375   3.952  0.00  0.00    +0.000 A 
ATOM     33  C   UNL     1      -8.989  -2.642   3.002  0.00  0.00    +0.000 A 
ATOM     34  C   UNL     1      -8.298  -2.013   1.983  0.00  0.00    +0.002 A 
ENDBRANCH  28  29
ENDBRANCH  24  28
ENDBRANCH   1  24
TORSDOF 7
