REMARK  Name = ZINC63229997
REMARK  10 active torsions:
REMARK  status: ('A' for Active; 'I' for Inactive)
REMARK    1  A    between atoms: C_1  and  C_2
REMARK    2  A    between atoms: C_2  and  C_4
REMARK    3  A    between atoms: C_2  and  O_21
REMARK    4  A    between atoms: N_6  and  N_7
REMARK    5  A    between atoms: C_8  and  C_10
REMARK    6  A    between atoms: C_10  and  C_11
REMARK    7  A    between atoms: C_11  and  C_12
REMARK    8  A    between atoms: O_21  and  C_22
REMARK    9  A    between atoms: C_25  and  C_28
REMARK   10  A    between atoms: C_28  and  C_30
REMARK                            x       y       z     vdW  Elec       q    Type
REMARK                         _______ _______ _______ _____ _____    ______ ____
ROOT
ATOM      1  C   UNL     1      -0.719  -1.213   1.903  0.00  0.00    +0.270 C 
ATOM      2  O   UNL     1       0.301  -1.865   1.985  0.00  0.00    -0.270 OA
ATOM      3  N   UNL     1      -1.435  -0.941   3.011  0.00  0.00    -0.231 N 
ATOM      4  H   UNL     1      -2.251  -0.419   2.946  0.00  0.00    +0.173 HD
ENDROOT
BRANCH   3   5
ATOM      5  N   UNL     1      -1.002  -1.409   4.258  0.00  0.00    -0.234 N 
ATOM      6  C   UNL     1      -1.718  -1.137   5.367  0.00  0.00    +0.229 C 
ATOM      7  O   UNL     1      -2.738  -0.485   5.285  0.00  0.00    -0.274 OA
ATOM      8  H   UNL     1      -0.186  -1.931   4.324  0.00  0.00    +0.173 HD
BRANCH   6   9
ATOM      9  C   UNL     1      -1.252  -1.641   6.708  0.00  0.00    +0.102 C 
BRANCH   9  10
ATOM     10  C   UNL     1      -2.238  -1.196   7.791  0.00  0.00    +0.042 C 
BRANCH  10  11
ATOM     11  C   UNL     1      -1.772  -1.700   9.132  0.00  0.00    -0.041 C 
ATOM     12  C   UNL     1      -1.033  -1.026  10.043  0.00  0.00    -0.001 A 
ATOM     13  C   UNL     1      -0.464   0.327  10.056  0.00  0.00    +0.010 A 
ATOM     14  C   UNL     1       0.247   0.729  11.134  0.00  0.00    +0.001 A 
ATOM     15  C   UNL     1       0.453  -0.112  12.237  0.00  0.00    +0.002 A 
ATOM     16  C   UNL     1      -0.039  -1.368  12.298  0.00  0.00    +0.026 A 
ATOM     17  C   UNL     1      -0.802  -1.894  11.219  0.00  0.00    +0.043 A 
ATOM     18  N   UNL     1      -1.375  -3.060  11.043  0.00  0.00    -0.380 N 
ATOM     19  C   UNL     1      -2.041  -3.061   9.736  0.00  0.00    +0.144 C 
ATOM     20  H   UNL     1      -1.364  -3.797  11.673  0.00  0.00    +0.160 HD
ENDBRANCH  10  11
ENDBRANCH   9  10
ENDBRANCH   6   9
ENDBRANCH   3   5
BRANCH   1  22
ATOM     21  C   UNL     1      -1.138   0.820   0.547  0.00  0.00    +0.062 C 
ATOM     22  C   UNL     1      -1.185  -0.709   0.561  0.00  0.00    +0.257 C 
BRANCH  22  23
ATOM     23  O   UNL     1      -0.331  -1.221  -0.463  0.00  0.00    -0.480 OA
BRANCH  23  24
ATOM     24  C   UNL     1      -0.864  -1.347  -1.704  0.00  0.00    +0.122 A 
ATOM     25  C   UNL     1      -0.130  -1.956  -2.716  0.00  0.00    +0.046 A 
ATOM     26  C   UNL     1      -0.667  -2.086  -3.977  0.00  0.00    +0.015 A 
ATOM     27  C   UNL     1      -1.954  -1.605  -4.239  0.00  0.00    +0.022 A 
ATOM     28  C   UNL     1      -2.690  -0.995  -3.218  0.00  0.00    +0.015 A 
ATOM     29  C   UNL     1      -2.146  -0.873  -1.959  0.00  0.00    +0.046 A 
BRANCH  27  30
ATOM     30  C   UNL     1      -2.534  -1.742  -5.588  0.00  0.00    +0.193 C 
ATOM     31  O   UNL     1      -3.270  -0.878  -6.024  0.00  0.00    -0.287 OA
BRANCH  30  32
ATOM     32  C   UNL     1      -2.221  -2.930  -6.410  0.00  0.00    +0.022 A 
ATOM     33  C   UNL     1      -1.518  -4.002  -5.855  0.00  0.00    +0.012 A 
ATOM     34  C   UNL     1      -1.230  -5.107  -6.628  0.00  0.00    +0.001 A 
ATOM     35  C   UNL     1      -1.634  -5.155  -7.951  0.00  0.00    +0.000 A 
ATOM     36  C   UNL     1      -2.329  -4.096  -8.507  0.00  0.00    +0.001 A 
ATOM     37  C   UNL     1      -2.630  -2.987  -7.744  0.00  0.00    +0.012 A 
ENDBRANCH  30  32
ENDBRANCH  27  30
ENDBRANCH  23  24
ENDBRANCH  22  23
ENDBRANCH   1  22
TORSDOF 9
