REMARK  Name = ZINC64871199
REMARK  6 active torsions:
REMARK  status: ('A' for Active; 'I' for Inactive)
REMARK    1  A    between atoms: C_1  and  S_2
REMARK    2  A    between atoms: S_2  and  C_3
REMARK    3  A    between atoms: C_6  and  C_9
REMARK    4  A    between atoms: C_12  and  C_16
REMARK    5  A    between atoms: N_26  and  C_29
REMARK    6  A    between atoms: C_29  and  C_30
REMARK                            x       y       z     vdW  Elec       q    Type
REMARK                         _______ _______ _______ _____ _____    ______ ____
ROOT
ATOM      1  C   UNL     1      -8.277  -3.713   1.136  0.00  0.00    -0.000 A 
ATOM      2  C   UNL     1      -8.244  -4.212  -0.157  0.00  0.00    +0.008 A 
ATOM      3  C   UNL     1      -9.143  -5.179  -0.555  0.00  0.00    +0.016 A 
ATOM      4  C   UNL     1     -10.088  -5.653   0.352  0.00  0.00    +0.063 A 
ATOM      5  C   UNL     1     -10.120  -5.146   1.663  0.00  0.00    +0.056 A 
ATOM      6  C   UNL     1      -9.204  -4.178   2.047  0.00  0.00    +0.034 A 
ATOM      7  N   UNL     1     -11.071  -5.637   2.546  0.00  0.00    -0.307 N 
ATOM      8  H   UNL     1     -11.105  -5.297   3.453  0.00  0.00    +0.170 HD
ATOM      9  C   UNL     1     -11.946  -6.580   2.155  0.00  0.00    +0.330 A 
ATOM     10  O   UNL     1     -12.764  -6.984   2.959  0.00  0.00    -0.246 OA
ATOM     11  N   UNL     1     -11.955  -7.095   0.916  0.00  0.00    -0.256 N 
ATOM     12  C   UNL     1     -11.071  -6.686  -0.020  0.00  0.00    +0.265 A 
ATOM     13  O   UNL     1     -11.086  -7.158  -1.141  0.00  0.00    -0.267 OA
ENDROOT
BRANCH   1  16
ATOM     14  C   UNL     1      -5.834  -1.544   0.050  0.00  0.00    +0.180 C 
ATOM     15  N   UNL     1      -6.033  -2.813   0.788  0.00  0.00    -0.265 NA
ATOM     16  C   UNL     1      -7.286  -2.657   1.553  0.00  0.00    +0.242 C 
ATOM     17  O   UNL     1      -7.806  -1.348   1.254  0.00  0.00    -0.274 OA
ATOM     18  N   UNL     1      -6.630  -0.556   0.826  0.00  0.00    -0.177 NA
ATOM     19  H   UNL     1      -6.091  -3.596   0.154  0.00  0.00    +0.127 HD
ATOM     20  H   UNL     1      -6.907   0.222   0.246  0.00  0.00    +0.156 HD
BRANCH  14  24
ATOM     21  C   UNL     1      -1.702  -0.454   0.016  0.00  0.00    +0.008 A 
ATOM     22  C   UNL     1      -2.682   0.531   0.025  0.00  0.00    +0.015 A 
ATOM     23  C   UNL     1      -4.016   0.176   0.036  0.00  0.00    +0.007 A 
ATOM     24  C   UNL     1      -4.377  -1.159   0.038  0.00  0.00    -0.014 A 
ATOM     25  C   UNL     1      -3.404  -2.143   0.029  0.00  0.00    +0.007 A 
ATOM     26  C   UNL     1      -2.068  -1.794   0.012  0.00  0.00    +0.015 A 
BRANCH  21  28
ATOM     27  C   UNL     1      -0.022   1.810   0.012  0.00  0.00    +0.090 C 
ATOM     28  S   UNL     1       0.002  -0.004   0.002  0.00  0.00    -0.129 S 
ENDBRANCH  21  28
ENDBRANCH  14  24
ENDBRANCH   1  16
BRANCH  11  29
ATOM     29  C   UNL     1     -12.943  -8.120   0.571  0.00  0.00    +0.165 C 
BRANCH  29  30
ATOM     30  C   UNL     1     -14.188  -7.459   0.039  0.00  0.00    -0.027 A 
ATOM     31  C   UNL     1     -15.202  -7.096   0.906  0.00  0.00    +0.007 A 
ATOM     32  C   UNL     1     -16.344  -6.489   0.419  0.00  0.00    +0.020 A 
ATOM     33  C   UNL     1     -16.474  -6.246  -0.937  0.00  0.00    +0.041 A 
ATOM     34  C   UNL     1     -15.459  -6.611  -1.804  0.00  0.00    +0.020 A 
ATOM     35  C   UNL     1     -14.315  -7.212  -1.315  0.00  0.00    +0.007 A 
ATOM     36 CL   UNL     1     -17.908  -5.485  -1.550  0.00  0.00    -0.084 Cl
ENDBRANCH  29  30
ENDBRANCH  11  29
TORSDOF 5
