REMARK  Name = ZINC35725331
REMARK  9 active torsions:
REMARK  status: ('A' for Active; 'I' for Inactive)
REMARK    1  A    between atoms: C_1  and  C_2
REMARK    2  A    between atoms: C_2  and  C_3
REMARK    3  A    between atoms: C_3  and  C_5
REMARK    4  A    between atoms: C_3  and  C_6
REMARK    5  A    between atoms: C_6  and  C_8
REMARK    6  A    between atoms: C_6  and  N_22
REMARK    7  A    between atoms: C_14  and  C_16
REMARK    8  A    between atoms: N_22  and  S_23
REMARK    9  A    between atoms: S_23  and  C_26
REMARK                            x       y       z     vdW  Elec       q    Type
REMARK                         _______ _______ _______ _____ _____    ______ ____
ROOT
ATOM      1  C   UNL     1      -0.210  -0.127  -2.722  0.00  0.00    +0.165 C 
ENDROOT
BRANCH   1   2
ATOM      2  C   UNL     1      -1.026   1.135  -2.607  0.00  0.00    +0.238 C 
ATOM      3  O   UNL     1      -1.173   1.852  -3.574  0.00  0.00    -0.274 OA
ATOM      4  N   UNL     1      -1.591   1.468  -1.430  0.00  0.00    -0.262 N 
ATOM      5  C   UNL     1      -2.409   2.587  -1.343  0.00  0.00    +0.188 A 
ATOM      6  N   UNL     1      -2.755   3.439  -2.291  0.00  0.00    -0.125 NA
ATOM      7  N   UNL     1      -3.515   4.422  -2.061  0.00  0.00    -0.140 NA
ATOM      8  C   UNL     1      -3.978   4.599  -0.830  0.00  0.00    +0.134 A 
ATOM      9  S   UNL     1      -3.223   3.206  -0.003  0.00  0.00    -0.030 S 
ATOM     10  H   UNL     1      -1.427   0.925  -0.643  0.00  0.00    +0.157 HD
BRANCH   8  11
ATOM     11  C   UNL     1      -4.870   5.650  -0.295  0.00  0.00    +0.009 A 
ATOM     12  C   UNL     1      -5.228   5.645   1.054  0.00  0.00    +0.010 A 
ATOM     13  C   UNL     1      -6.061   6.628   1.547  0.00  0.00    +0.001 A 
ATOM     14  C   UNL     1      -6.541   7.617   0.708  0.00  0.00    +0.000 A 
ATOM     15  C   UNL     1      -6.191   7.628  -0.631  0.00  0.00    +0.001 A 
ATOM     16  C   UNL     1      -5.354   6.654  -1.135  0.00  0.00    +0.010 A 
ENDBRANCH   8  11
ENDBRANCH   1   2
BRANCH   1  17
ATOM     17  C   UNL     1       1.154   0.085  -2.062  0.00  0.00    +0.013 C 
ATOM     18  C   UNL     1       1.927   1.164  -2.825  0.00  0.00    +0.009 C 
BRANCH  17  20
ATOM     19  C   UNL     1       1.255  -2.255  -1.195  0.00  0.00    +0.004 C 
ATOM     20  C   UNL     1       1.944  -1.225  -2.091  0.00  0.00    +0.002 C 
ENDBRANCH  17  20
ENDBRANCH   1  17
BRANCH   1  21
ATOM     21  N   UNL     1      -0.022  -0.460  -4.136  0.00  0.00    -0.178 NA
ATOM     22  H   UNL     1       0.500   0.125  -4.707  0.00  0.00    +0.149 HD
BRANCH  21  23
ATOM     23  S   UNL     1      -0.702  -1.835  -4.760  0.00  0.00    +0.059 S 
ATOM     24  O   UNL     1      -0.393  -1.847  -6.147  0.00  0.00    -0.153 OA
ATOM     25  O   UNL     1      -0.339  -2.898  -3.890  0.00  0.00    -0.153 OA
BRANCH  23  26
ATOM     26  C   UNL     1      -2.450  -1.656  -4.636  0.00  0.00    +0.105 A 
ATOM     27  C   UNL     1      -3.109  -2.085  -3.499  0.00  0.00    +0.029 A 
ATOM     28  C   UNL     1      -4.481  -1.944  -3.400  0.00  0.00    +0.017 A 
ATOM     29  C   UNL     1      -5.194  -1.373  -4.439  0.00  0.00    +0.018 A 
ATOM     30  C   UNL     1      -4.533  -0.943  -5.576  0.00  0.00    +0.017 A 
ATOM     31  C   UNL     1      -3.161  -1.080  -5.672  0.00  0.00    +0.029 A 
ATOM     32 BR   UNL     1      -7.070  -1.180  -4.305  0.00  0.00    -0.050 Br
ENDBRANCH  23  26
ENDBRANCH  21  23
ENDBRANCH   1  21
TORSDOF 7
