REMARK  Name = ZINC09012332
REMARK  5 active torsions:
REMARK  status: ('A' for Active; 'I' for Inactive)
REMARK    1  A    between atoms: C_1  and  C_2
REMARK    2  A    between atoms: N_23  and  C_26
REMARK    3  A    between atoms: C_29  and  O_32
REMARK    4  A    between atoms: O_32  and  C_33
REMARK    5  A    between atoms: C_33  and  C_35
REMARK                            x       y       z     vdW  Elec       q    Type
REMARK                         _______ _______ _______ _____ _____    ______ ____
ROOT
ATOM      1  C   UNL     1      -0.105   7.826  -3.950  0.00  0.00    +0.047 C 
ATOM      2  C   UNL     1      -0.956   7.199  -2.875  0.00  0.00    -0.011 A 
ATOM      3  C   UNL     1      -1.852   7.976  -2.167  0.00  0.00    +0.046 A 
ATOM      4  C   UNL     1      -2.637   7.410  -1.178  0.00  0.00    +0.020 A 
ATOM      5  C   UNL     1      -2.523   6.059  -0.898  0.00  0.00    +0.006 A 
ATOM      6  C   UNL     1      -1.631   5.282  -1.602  0.00  0.00    -0.027 A 
ATOM      7  C   UNL     1      -0.836   5.840  -2.599  0.00  0.00    +0.040 A 
ATOM      8  N   UNL     1      -0.018   4.862  -3.167  0.00  0.00    -0.286 N 
ATOM      9  C   UNL     1      -0.210   3.651  -2.609  0.00  0.00    +0.212 C 
ATOM     10  O   UNL     1       0.357   2.620  -2.903  0.00  0.00    -0.277 OA
ATOM     11  C   UNL     1      -1.267   3.825  -1.552  0.00  0.00    +0.053 C 
ATOM     12  C   UNL     1      -0.742   3.426  -0.168  0.00  0.00    +0.089 C 
ATOM     13  C   UNL     1      -1.280   1.989   0.070  0.00  0.00    +0.074 C 
ATOM     14  C   UNL     1      -2.075   1.649  -1.215  0.00  0.00    -0.054 C 
ATOM     15  C   UNL     1      -3.593   3.440  -1.014  0.00  0.00    -0.076 C 
ATOM     16  C   UNL     1      -4.417   2.174  -0.708  0.00  0.00    -0.020 C 
ATOM     17  C   UNL     1      -3.418   1.006  -0.822  0.00  0.00    -0.016 C 
ATOM     18  C   UNL     1      -0.023   1.151   0.130  0.00  0.00    +0.228 C 
ATOM     19  O   UNL     1       0.013  -0.048   0.307  0.00  0.00    -0.275 OA
ATOM     20  N   UNL     1       1.044   1.938  -0.049  0.00  0.00    -0.210 N 
ATOM     21  C   UNL     1       0.756   3.233  -0.226  0.00  0.00    +0.229 C 
ATOM     22  O   UNL     1       1.570   4.114  -0.405  0.00  0.00    -0.275 OA
ATOM     23 CL   UNL     1      -1.994   9.670  -2.518  0.00  0.00    -0.083 Cl
ATOM     24  H   UNL     1       0.616   5.034  -3.881  0.00  0.00    +0.155 HD
ATOM     25  N   UNL     1      -2.425   2.942  -1.759  0.00  0.00    +0.395 N 
ATOM     26  H   UNL     1      -2.645   2.871  -2.759  0.00  0.00    -0.079 HD
ENDROOT
BRANCH  20  27
ATOM     27  C   UNL     1       2.358   1.446  -0.052  0.00  0.00    +0.044 A 
ATOM     28  C   UNL     1       3.266   1.884   0.903  0.00  0.00    +0.027 A 
ATOM     29  C   UNL     1       4.557   1.396   0.903  0.00  0.00    +0.048 A 
ATOM     30  C   UNL     1       4.951   0.476  -0.059  0.00  0.00    +0.132 A 
ATOM     31  C   UNL     1       4.046   0.042  -1.016  0.00  0.00    +0.048 A 
ATOM     32  C   UNL     1       2.753   0.526  -1.013  0.00  0.00    +0.027 A 
BRANCH  30  33
ATOM     33  O   UNL     1       6.225  -0.000  -0.062  0.00  0.00    -0.426 OA
BRANCH  33  34
ATOM     34  C   UNL     1       7.061   0.502  -0.984  0.00  0.00    +0.309 C 
ATOM     35  O   UNL     1       6.703   1.414  -1.691  0.00  0.00    -0.251 OA
ATOM     36  C   UNL     1       8.446  -0.071  -1.137  0.00  0.00    +0.136 C 
ENDBRANCH  33  34
ENDBRANCH  30  33
ENDBRANCH  20  27
TORSDOF 3
