REMARK  Name = ZINC21705175
REMARK  9 active torsions:
REMARK  status: ('A' for Active; 'I' for Inactive)
REMARK    1  A    between atoms: C_1  and  C_2
REMARK    2  A    between atoms: C_5  and  C_8
REMARK    3  A    between atoms: N_18  and  C_21
REMARK    4  A    between atoms: C_21  and  C_22
REMARK    5  A    between atoms: N_24  and  C_25
REMARK    6  A    between atoms: C_27  and  O_33
REMARK    7  A    between atoms: C_29  and  O_31
REMARK    8  A    between atoms: O_31  and  C_32
REMARK    9  A    between atoms: O_33  and  C_34
REMARK                            x       y       z     vdW  Elec       q    Type
REMARK                         _______ _______ _______ _____ _____    ______ ____
ROOT
ATOM      1  C   UNL     1       3.378  11.211  -2.112  0.00  0.00    +0.015 A 
ATOM      2  C   UNL     1       3.328  11.012  -3.457  0.00  0.00    +0.056 A 
ATOM      3  S   UNL     1       3.658   9.268  -3.623  0.00  0.00    -0.091 S 
ATOM      4  C   UNL     1       3.852   8.862  -1.910  0.00  0.00    +0.083 A 
ATOM      5  C   UNL     1       3.658  10.076  -1.245  0.00  0.00    +0.091 A 
ATOM      6  N   UNL     1       3.756  10.046   0.126  0.00  0.00    -0.235 NA
ATOM      7  C   UNL     1       4.011   8.976   0.797  0.00  0.00    +0.210 A 
ATOM      8  N   UNL     1       4.210   7.750   0.218  0.00  0.00    -0.233 N 
ATOM      9  C   UNL     1       4.138   7.648  -1.167  0.00  0.00    +0.179 A 
ATOM     10  N   UNL     1       4.359   6.403  -1.500  0.00  0.00    -0.147 NA
ATOM     11  N   UNL     1       4.580   5.672  -0.324  0.00  0.00    -0.203 N 
ATOM     12  C   UNL     1       4.476   6.529   0.715  0.00  0.00    +0.353 A 
ATOM     13  O   UNL     1       4.604   6.245   1.893  0.00  0.00    -0.244 OA
ENDROOT
BRANCH   1  18
ATOM     14  C   UNL     1       2.500  16.450   0.109  0.00  0.00    +0.044 C 
ATOM     15  C   UNL     1       2.731  15.079  -0.472  0.00  0.00    -0.050 A 
ATOM     16  C   UNL     1       3.633  14.912  -1.507  0.00  0.00    +0.004 A 
ATOM     17  C   UNL     1       3.847  13.658  -2.043  0.00  0.00    +0.009 A 
ATOM     18  C   UNL     1       3.153  12.560  -1.540  0.00  0.00    -0.015 A 
ATOM     19  C   UNL     1       2.241  12.735  -0.500  0.00  0.00    +0.009 A 
ATOM     20  C   UNL     1       2.039  13.992   0.032  0.00  0.00    +0.004 A 
ENDBRANCH   1  18
BRANCH  11  21
ATOM     21  C   UNL     1       4.865   4.238  -0.237  0.00  0.00    +0.244 C 
BRANCH  21  22
ATOM     22  C   UNL     1       3.571   3.475  -0.115  0.00  0.00    +0.239 C 
ATOM     23  O   UNL     1       2.515   4.071  -0.102  0.00  0.00    -0.273 OA
ATOM     24  N   UNL     1       3.588   2.131  -0.021  0.00  0.00    -0.284 N 
ATOM     25  H   UNL     1       4.546   1.596   0.055  0.00  0.00    +0.155 HD
BRANCH  24  26
ATOM     26  C   UNL     1       2.386   1.414  -0.019  0.00  0.00    +0.040 A 
ATOM     27  C   UNL     1       2.275   0.245   0.721  0.00  0.00    +0.069 A 
ATOM     28  C   UNL     1       1.084  -0.464   0.723  0.00  0.00    +0.125 A 
ATOM     29  C   UNL     1       0.003  -0.005  -0.015  0.00  0.00    +0.091 A 
ATOM     30  C   UNL     1       0.113   1.163  -0.755  0.00  0.00    +0.125 A 
ATOM     31  C   UNL     1       1.303   1.873  -0.757  0.00  0.00    +0.069 A 
BRANCH  30  32
ATOM     32  O   UNL     1      -0.947   1.611  -1.478  0.00  0.00    -0.495 OA
ATOM     33  C   UNL     1      -2.143   0.830  -1.430  0.00  0.00    +0.277 C 
ENDBRANCH  30  32
BRANCH  28  34
ATOM     34  O   UNL     1       0.974  -1.605   1.452  0.00  0.00    -0.495 OA
ATOM     35  C   UNL     1      -0.285  -2.282   1.412  0.00  0.00    +0.277 C 
ENDBRANCH  28  34
ENDBRANCH  24  26
ENDBRANCH  21  22
ENDBRANCH  11  21
TORSDOF 6
