REMARK  Name = ZINC63699208
REMARK  13 active torsions:
REMARK  status: ('A' for Active; 'I' for Inactive)
REMARK    1  A    between atoms: C_1  and  C_2
REMARK    2  A    between atoms: C_6  and  C_34
REMARK    3  A    between atoms: N_8  and  C_10
REMARK    4  A    between atoms: C_10  and  C_11
REMARK    5  A    between atoms: C_13  and  C_19
REMARK    6  A    between atoms: C_16  and  O_17
REMARK    7  A    between atoms: O_17  and  C_18
REMARK    8  A    between atoms: N_20  and  N_21
REMARK    9  A    between atoms: C_22  and  C_24
REMARK   10  A    between atoms: C_27  and  C_30
REMARK   11  A    between atoms: C_30  and  C_31
REMARK   12  A    between atoms: C_30  and  C_32
REMARK   13  A    between atoms: C_30  and  C_33
REMARK                            x       y       z     vdW  Elec       q    Type
REMARK                         _______ _______ _______ _____ _____    ______ ____
ROOT
ATOM      1  C   UNL     1       1.916  -2.572   2.939  0.00  0.00    +0.010 A 
ATOM      2  C   UNL     1       2.187  -1.622   3.900  0.00  0.00    +0.018 A 
ATOM      3  C   UNL     1       1.787  -1.834   5.222  0.00  0.00    -0.005 A 
ATOM      4  C   UNL     1       1.113  -3.010   5.563  0.00  0.00    +0.013 A 
ATOM      5  C   UNL     1       0.846  -3.954   4.596  0.00  0.00    +0.046 A 
ATOM      6  C   UNL     1       1.240  -3.736   3.282  0.00  0.00    +0.125 A 
ENDROOT
BRANCH   6   7
ATOM      7  O   UNL     1       0.970  -4.667   2.330  0.00  0.00    -0.495 OA
ATOM      8  C   UNL     1       0.272  -5.841   2.751  0.00  0.00    +0.277 C 
ENDBRANCH   6   7
BRANCH   3   9
ATOM      9  C   UNL     1       2.076  -0.821   6.253  0.00  0.00    +0.138 C 
ATOM     10  N   UNL     1       1.703  -1.020   7.480  0.00  0.00    -0.188 NA
BRANCH  10  11
ATOM     11  N   UNL     1       1.977  -0.058   8.460  0.00  0.00    -0.205 N 
ATOM     12  C   UNL     1       1.590  -0.264   9.735  0.00  0.00    +0.262 C 
ATOM     13  O   UNL     1       1.005  -1.284  10.033  0.00  0.00    -0.271 OA
ATOM     14  H   UNL     1       2.446   0.758   8.222  0.00  0.00    +0.177 HD
BRANCH  12  15
ATOM     15  C   UNL     1       1.885   0.771  10.789  0.00  0.00    +0.240 C 
ATOM     16  C   UNL     1       3.304   0.620  11.308  0.00  0.00    +0.036 C 
ATOM     17  C   UNL     1       3.145   0.348  12.605  0.00  0.00    +0.067 C 
ATOM     18  N   UNL     1       1.834   0.316  12.931  0.00  0.00    -0.158 NA
ATOM     19  N   UNL     1       1.064   0.541  11.990  0.00  0.00    -0.170 NA
BRANCH  17  20
ATOM     20  C   UNL     1       4.274   0.110  13.574  0.00  0.00    +0.006 C 
ATOM     21  C   UNL     1       5.611   0.229  12.839  0.00  0.00    +0.017 C 
ATOM     22  C   UNL     1       4.214   1.151  14.694  0.00  0.00    +0.017 C 
ATOM     23  C   UNL     1       4.145  -1.292  14.173  0.00  0.00    +0.017 C 
ENDBRANCH  17  20
ENDBRANCH  12  15
ENDBRANCH  10  11
ENDBRANCH   3   9
BRANCH   1  24
ATOM     24  C   UNL     1       2.347  -2.345   1.513  0.00  0.00    +0.141 C 
BRANCH  24  29
ATOM     25  C   UNL     1      -0.019   1.526   0.010  0.00  0.00    +0.026 C 
ATOM     26  C   UNL     1       0.002  -0.004   0.002  0.00  0.00    +0.082 C 
ATOM     27  C   UNL     1       0.768  -0.531  -1.233  0.00  0.00    +0.093 C 
ATOM     28  C   UNL     1       1.556  -1.748  -0.707  0.00  0.00    +0.085 C 
ATOM     29  N   UNL     1       1.201  -1.869   0.725  0.00  0.00    -0.234 NA
ATOM     30  N   UNL     1       0.790  -0.523   1.151  0.00  0.00    -0.250 NA
ATOM     31  C   UNL     1       1.143  -3.012  -1.464  0.00  0.00    +0.027 C 
ATOM     32 BR   UNL     1      -0.491  -1.080  -2.639  0.00  0.00    -0.085 Br
ATOM     33  H   UNL     1       0.227  -0.562   1.987  0.00  0.00    +0.141 HD
ENDBRANCH  24  29
ENDBRANCH   1  24
TORSDOF 7
