REMARK  Name = ZINC12584428
REMARK  9 active torsions:
REMARK  status: ('A' for Active; 'I' for Inactive)
REMARK    1  A    between atoms: C_1  and  N_56
REMARK    2  A    between atoms: C_2  and  C_3
REMARK    3  A    between atoms: C_2  and  N_56
REMARK    4  A    between atoms: C_8  and  N_9
REMARK    5  A    between atoms: N_9  and  S_10
REMARK    6  A    between atoms: S_10  and  C_13
REMARK    7  A    between atoms: C_17  and  S_19
REMARK    8  A    between atoms: S_19  and  N_22
REMARK    9  A    between atoms: C_23  and  N_56
REMARK                            x       y       z     vdW  Elec       q    Type
REMARK                         _______ _______ _______ _____ _____    ______ ____
ROOT
ATOM      1  N   UNL     1      -6.126  -0.516   3.175  0.00  0.00    -0.216 N 
ATOM      2  H   UNL     1      -6.067   0.021   3.981  0.00  0.00    +0.174 HD
ENDROOT
BRANCH   1   8
ATOM      3  C   UNL     1      -7.847   0.840   2.162  0.00  0.00    -0.042 A 
ATOM      4  C   UNL     1      -8.941   0.956   1.327  0.00  0.00    +0.003 A 
ATOM      5  C   UNL     1      -9.435  -0.158   0.673  0.00  0.00    +0.000 A 
ATOM      6  C   UNL     1      -8.832  -1.390   0.848  0.00  0.00    +0.002 A 
ATOM      7  C   UNL     1      -7.735  -1.513   1.677  0.00  0.00    +0.025 A 
ATOM      8  C   UNL     1      -7.236  -0.396   2.336  0.00  0.00    +0.049 A 
BRANCH   3   9
ATOM      9  C   UNL     1      -7.313   2.053   2.879  0.00  0.00    -0.041 C 
BRANCH   9  11
ATOM     10  C   UNL     1      -6.523   3.087   0.837  0.00  0.00    -0.095 C 
ATOM     11  N   UNL     1      -6.124   2.550   2.155  0.00  0.00    +0.382 N 
ATOM     12  H   UNL     1      -5.470   1.771   2.014  0.00  0.00    -0.081 HD
BRANCH  11  13
ATOM     13  C   UNL     1      -5.454   3.602   2.947  0.00  0.00    -0.069 C 
ATOM     14  C   UNL     1      -6.372   4.814   3.115  0.00  0.00    -0.015 C 
ATOM     15  C   UNL     1      -5.655   5.888   3.936  0.00  0.00    -0.002 C 
ATOM     16  C   UNL     1      -4.376   6.314   3.212  0.00  0.00    -0.000 C 
ATOM     17  C   UNL     1      -3.458   5.102   3.044  0.00  0.00    -0.002 C 
ATOM     18  C   UNL     1      -4.175   4.028   2.223  0.00  0.00    -0.015 C 
ENDBRANCH  11  13
ENDBRANCH   9  11
ENDBRANCH   3   9
ENDBRANCH   1   8
BRANCH   1  19
ATOM     19  S   UNL     1      -4.912  -1.575   2.796  0.00  0.00    +0.072 S 
ATOM     20  O   UNL     1      -5.525  -2.841   2.594  0.00  0.00    -0.150 OA
ATOM     21  O   UNL     1      -3.881  -1.372   3.753  0.00  0.00    -0.150 OA
BRANCH  19  22
ATOM     22  C   UNL     1      -4.256  -1.079   1.237  0.00  0.00    +0.110 A 
ATOM     23  C   UNL     1      -4.789  -1.590   0.069  0.00  0.00    +0.029 A 
ATOM     24  C   UNL     1      -4.275  -1.201  -1.154  0.00  0.00    +0.004 A 
ATOM     25  C   UNL     1      -3.231  -0.296  -1.208  0.00  0.00    +0.028 A 
ATOM     26  C   UNL     1      -2.694   0.211  -0.040  0.00  0.00    +0.107 A 
ATOM     27  C   UNL     1      -3.209  -0.179   1.183  0.00  0.00    +0.057 A 
BRANCH  26  28
ATOM     28  S   UNL     1      -1.360   1.359  -0.108  0.00  0.00    +0.056 S 
ATOM     29  O   UNL     1      -1.402   2.104   1.101  0.00  0.00    -0.153 OA
ATOM     30  O   UNL     1      -1.421   1.978  -1.386  0.00  0.00    -0.153 OA
BRANCH  28  31
ATOM     31  N   UNL     1       0.044   0.481  -0.075  0.00  0.00    -0.204 NA
ATOM     32  H   UNL     1       0.009  -0.487  -0.025  0.00  0.00    +0.144 HD
ATOM     33  H   UNL     1       0.901   0.935  -0.108  0.00  0.00    +0.144 HD
ENDBRANCH  28  31
ENDBRANCH  26  28
ENDBRANCH  19  22
ENDBRANCH   1  19
TORSDOF 8
