REMARK  Name = ZINC22821414
REMARK  11 active torsions:
REMARK  status: ('A' for Active; 'I' for Inactive)
REMARK    1  A    between atoms: C_1  and  C_2
REMARK    2  A    between atoms: N_9  and  C_10
REMARK    3  A    between atoms: C_13  and  O_16
REMARK    4  A    between atoms: O_16  and  C_17
REMARK    5  A    between atoms: N_18  and  C_36
REMARK    6  A    between atoms: N_21  and  C_24
REMARK    7  A    between atoms: C_24  and  C_25
REMARK    8  A    between atoms: C_25  and  C_27
REMARK    9  A    between atoms: C_25  and  C_28
REMARK   10  A    between atoms: C_28  and  N_29
REMARK   11  A    between atoms: N_32  and  C_35
REMARK                            x       y       z     vdW  Elec       q    Type
REMARK                         _______ _______ _______ _____ _____    ______ ____
ROOT
ATOM      1  C   UNL     1      -5.896  12.586  -0.771  0.00  0.00    +0.065 C 
ATOM      2  C   UNL     1      -4.814  11.854  -1.522  0.00  0.00    +0.040 A 
ATOM      3  C   UNL     1      -4.712  10.534  -1.652  0.00  0.00    +0.116 A 
ATOM      4  N   UNL     1      -3.588  10.256  -2.410  0.00  0.00    -0.277 N 
ATOM      5  C   UNL     1      -2.818   9.247  -2.968  0.00  0.00    +0.157 A 
ATOM      6  C   UNL     1      -1.768   9.878  -3.634  0.00  0.00    +0.170 A 
ATOM      7  N   UNL     1      -1.921  11.189  -3.470  0.00  0.00    -0.193 NA
ATOM      8  C   UNL     1      -3.002  11.431  -2.743  0.00  0.00    +0.223 A 
ATOM      9  N   UNL     1      -3.756  12.437  -2.195  0.00  0.00    -0.283 N 
ATOM     10  N   UNL     1      -0.830   9.097  -4.293  0.00  0.00    -0.279 N 
ATOM     11  C   UNL     1      -0.944   7.755  -4.281  0.00  0.00    +0.333 A 
ATOM     12  O   UNL     1      -0.113   7.085  -4.864  0.00  0.00    -0.246 OA
ATOM     13  N   UNL     1      -1.952   7.138  -3.641  0.00  0.00    -0.259 N 
ATOM     14  C   UNL     1      -2.897   7.845  -2.988  0.00  0.00    +0.283 A 
ATOM     15  O   UNL     1      -3.809   7.272  -2.416  0.00  0.00    -0.265 OA
ATOM     16  C   UNL     1       0.284   9.731  -5.001  0.00  0.00    +0.155 C 
ENDROOT
BRANCH   9  17
ATOM     17  C   UNL     1      -3.501  13.811  -2.300  0.00  0.00    +0.050 A 
ATOM     18  C   UNL     1      -3.557  14.436  -3.539  0.00  0.00    +0.030 A 
ATOM     19  C   UNL     1      -3.311  15.791  -3.641  0.00  0.00    +0.047 A 
ATOM     20  C   UNL     1      -2.997  16.526  -2.507  0.00  0.00    +0.120 A 
ATOM     21  C   UNL     1      -2.935  15.902  -1.270  0.00  0.00    +0.047 A 
ATOM     22  C   UNL     1      -3.186  14.548  -1.166  0.00  0.00    +0.030 A 
BRANCH  20  23
ATOM     23  O   UNL     1      -2.749  17.859  -2.609  0.00  0.00    -0.495 OA
ATOM     24  C   UNL     1      -2.831  18.436  -3.914  0.00  0.00    +0.277 C 
ENDBRANCH  20  23
ENDBRANCH   9  17
BRANCH  13  25
ATOM     25  C   UNL     1      -2.030   5.676  -3.660  0.00  0.00    +0.131 C 
BRANCH  25  26
ATOM     26  C   UNL     1      -1.260   5.109  -2.465  0.00  0.00    -0.011 C 
ATOM     27  C   UNL     1       0.227   5.437  -2.614  0.00  0.00    +0.007 C 
BRANCH  26  28
ATOM     28  C   UNL     1      -1.445   3.591  -2.413  0.00  0.00    -0.074 C 
BRANCH  28  29
ATOM     29  N   UNL     1      -0.806   3.062  -1.200  0.00  0.00    +0.382 N 
ATOM     30  C   UNL     1      -0.754   1.593  -1.231  0.00  0.00    -0.063 C 
ATOM     31  C   UNL     1      -0.013   1.086   0.008  0.00  0.00    +0.065 C 
ATOM     32  N   UNL     1      -0.701   1.560   1.216  0.00  0.00    -0.309 NA
ATOM     33  C   UNL     1      -0.754   3.029   1.247  0.00  0.00    +0.065 C 
ATOM     34  C   UNL     1      -1.495   3.536   0.008  0.00  0.00    -0.063 C 
ATOM     35  C   UNL     1      -0.062   1.031   2.429  0.00  0.00    +0.104 C 
ATOM     36  H   UNL     1       0.227   3.438  -1.172  0.00  0.00    -0.082 HD
ENDBRANCH  28  29
ENDBRANCH  26  28
ENDBRANCH  25  26
ENDBRANCH  13  25
TORSDOF 6
