REMARK  Name = ZINC24586853
REMARK  8 active torsions:
REMARK  status: ('A' for Active; 'I' for Inactive)
REMARK    1  A    between atoms: C_3  and  C_18
REMARK    2  A    between atoms: C_5  and  S_7
REMARK    3  A    between atoms: S_7  and  N_10
REMARK    4  A    between atoms: N_10  and  C_11
REMARK    5  A    between atoms: N_20  and  C_21
REMARK    6  A    between atoms: C_21  and  C_22
REMARK    7  A    between atoms: C_22  and  C_24
REMARK    8  A    between atoms: C_22  and  N_29
REMARK                            x       y       z     vdW  Elec       q    Type
REMARK                         _______ _______ _______ _____ _____    ______ ____
ROOT
ATOM      1  C   UNL     1       1.467  -1.386  -3.127  0.00  0.00    +0.003 A 
ATOM      2  C   UNL     1       2.005  -2.360  -2.311  0.00  0.00    +0.013 A 
ATOM      3  C   UNL     1       1.820  -2.289  -0.930  0.00  0.00    +0.039 A 
ATOM      4  C   UNL     1       1.091  -1.232  -0.383  0.00  0.00    +0.041 A 
ATOM      5  C   UNL     1       0.558  -0.265  -1.210  0.00  0.00    +0.109 A 
ATOM      6  C   UNL     1       0.741  -0.344  -2.579  0.00  0.00    +0.029 A 
ENDROOT
BRANCH   3   7
ATOM      7  C   UNL     1       2.393  -3.329  -0.049  0.00  0.00    +0.244 C 
ATOM      8  O   UNL     1       2.230  -3.265   1.154  0.00  0.00    -0.270 OA
ATOM      9  N   UNL     1       3.097  -4.348  -0.580  0.00  0.00    -0.312 N 
ATOM     10  H   UNL     1       3.245  -4.406  -1.669  0.00  0.00    +0.149 HD
BRANCH   9  11
ATOM     11  C   UNL     1       3.665  -5.379   0.292  0.00  0.00    +0.097 C 
BRANCH  11  12
ATOM     12  C   UNL     1       4.520  -6.337  -0.540  0.00  0.00    +0.016 C 
BRANCH  12  13
ATOM     13  N   UNL     1       4.985  -7.441   0.310  0.00  0.00    +0.387 N 
ATOM     14  C   UNL     1       3.839  -8.182   0.895  0.00  0.00    -0.078 C 
ATOM     15  C   UNL     1       4.460  -9.547   1.284  0.00  0.00    -0.020 C 
ATOM     16  C   UNL     1       5.451  -9.818   0.129  0.00  0.00    -0.020 C 
ATOM     17  C   UNL     1       5.745  -8.434  -0.481  0.00  0.00    -0.078 C 
ATOM     18  H   UNL     1       5.613  -6.979   1.086  0.00  0.00    -0.081 HD
ENDBRANCH  12  13
BRANCH  12  19
ATOM     19  C   UNL     1       5.708  -5.596  -1.096  0.00  0.00    +0.093 A 
ATOM     20  C   UNL     1       5.820  -5.114  -2.347  0.00  0.00    +0.043 A 
ATOM     21  C   UNL     1       7.089  -4.497  -2.436  0.00  0.00    +0.041 A 
ATOM     22  C   UNL     1       7.677  -4.638  -1.235  0.00  0.00    +0.195 A 
ATOM     23  O   UNL     1       6.834  -5.300  -0.425  0.00  0.00    -0.469 OA
ENDBRANCH  12  19
ENDBRANCH  11  12
ENDBRANCH   9  11
ENDBRANCH   3   7
BRANCH   5  24
ATOM     24  S   UNL     1      -0.364   1.070  -0.522  0.00  0.00    +0.072 S 
ATOM     25  O   UNL     1      -1.164   1.595  -1.573  0.00  0.00    -0.150 OA
ATOM     26  O   UNL     1      -0.922   0.594   0.695  0.00  0.00    -0.150 OA
BRANCH  24  27
ATOM     27  N   UNL     1       0.720   2.255  -0.115  0.00  0.00    -0.216 N 
ATOM     28  H   UNL     1       0.680   3.232  -0.617  0.00  0.00    +0.174 HD
BRANCH  27  29
ATOM     29  C   UNL     1       1.683   2.012   0.867  0.00  0.00    +0.049 A 
ATOM     30  C   UNL     1       3.005   1.786   0.503  0.00  0.00    +0.024 A 
ATOM     31  C   UNL     1       3.957   1.547   1.475  0.00  0.00    +0.003 A 
ATOM     32  C   UNL     1       3.595   1.532   2.810  0.00  0.00    +0.020 A 
ATOM     33  C   UNL     1       2.280   1.756   3.176  0.00  0.00    +0.043 A 
ATOM     34  C   UNL     1       1.324   2.001   2.208  0.00  0.00    +0.044 A 
ATOM     35 CL   UNL     1       1.830   1.736   4.853  0.00  0.00    -0.083 Cl
ENDBRANCH  27  29
ENDBRANCH  24  27
ENDBRANCH   5  24
TORSDOF 8
