REMARK  Name = ZINC55313135
REMARK  4 active torsions:
REMARK  status: ('A' for Active; 'I' for Inactive)
REMARK    1  A    between atoms: C_2  and  S_10
REMARK    2  A    between atoms: C_5  and  C_6
REMARK    3  A    between atoms: S_10  and  N_13
REMARK    4  A    between atoms: N_13  and  C_14
REMARK                            x       y       z     vdW  Elec       q    Type
REMARK                         _______ _______ _______ _____ _____    ______ ____
ROOT
ATOM      1  S   UNL     1       1.958   3.557  -0.041  0.00  0.00    +0.063 S 
ATOM      2  O   UNL     1       3.013   3.849  -0.947  0.00  0.00    -0.153 OA
ATOM      3  O   UNL     1       0.722   4.256  -0.059  0.00  0.00    -0.153 OA
ENDROOT
BRANCH   1   5
ATOM      4  C   UNL     1       2.176   0.966  -1.154  0.00  0.00    +0.086 A 
ATOM      5  C   UNL     1       1.574   1.850  -0.248  0.00  0.00    +0.158 A 
ATOM      6  C   UNL     1       0.643   1.146   0.439  0.00  0.00    +0.197 A 
ATOM      7  O   UNL     1       0.642  -0.119   0.002  0.00  0.00    -0.439 OA
ATOM      8  C   UNL     1       1.569  -0.258  -0.971  0.00  0.00    +0.219 A 
ATOM      9 BR   UNL     1      -0.477   1.840   1.796  0.00  0.00    -0.006 Br
BRANCH   8  10
ATOM     10  C   UNL     1       1.864  -1.450  -1.678  0.00  0.00    +0.421 C 
ATOM     11  O   UNL     1       2.731  -1.450  -2.544  0.00  0.00    -0.237 OA
ATOM     12  O   UNL     1       1.252  -2.481  -1.423  0.00  0.00    -0.237 OA
ENDBRANCH   8  10
ENDBRANCH   1   5
BRANCH   1  13
ATOM     13  N   UNL     1       2.581   3.737   1.483  0.00  0.00    -0.185 NA
ATOM     14  H   UNL     1       2.108   4.271   2.140  0.00  0.00    +0.148 HD
BRANCH  13  15
ATOM     15  C   UNL     1       3.846   3.090   1.839  0.00  0.00    +0.099 C 
ATOM     16  C   UNL     1       5.000   4.090   1.658  0.00  0.00    +0.044 C 
ATOM     17  C   UNL     1       6.269   3.493   2.330  0.00  0.00    +0.167 C 
ATOM     18  S   UNL     1       5.533   2.774   3.859  0.00  0.00    -0.029 S 
ATOM     19  O   UNL     1       5.605   3.736   4.903  0.00  0.00    -0.174 OA
ATOM     20  O   UNL     1       6.074   1.476   4.066  0.00  0.00    -0.174 OA
ATOM     21  C   UNL     1       3.786   2.617   3.311  0.00  0.00    +0.186 C 
ENDBRANCH  13  15
ENDBRANCH   1  13
TORSDOF 4
