REMARK  Name = ZINC38966285
REMARK  2 active torsions:
REMARK  status: ('A' for Active; 'I' for Inactive)
REMARK    1  A    between atoms: C_1  and  C_2
REMARK    2  A    between atoms: C_10  and  C_15
REMARK                            x       y       z     vdW  Elec       q    Type
REMARK                         _______ _______ _______ _____ _____    ______ ____
ROOT
ATOM      1  C   UNL     1      -1.123   0.907   0.370  0.00  0.00    +0.109 C 
ATOM      2  C   UNL     1       0.021  -0.002   0.001  0.00  0.00    +0.214 C 
ATOM      3  O   UNL     1       0.963  -0.132   0.758  0.00  0.00    -0.276 OA
ATOM      4  N   UNL     1       0.000  -0.663  -1.154  0.00  0.00    -0.286 N 
ATOM      5  C   UNL     1       0.119  -1.993  -1.165  0.00  0.00    +0.035 C 
ATOM      6  C   UNL     1       0.134  -2.727   0.105  0.00  0.00    +0.025 C 
ATOM      7  C   UNL     1       0.253  -4.066   0.116  0.00  0.00    +0.031 C 
ATOM      8  C   UNL     1       0.368  -4.794  -1.165  0.00  0.00    +0.084 C 
ATOM      9  N   UNL     1       0.491  -6.063  -1.425  0.00  0.00    -0.250 NA
ATOM     10  C   UNL     1       0.565  -6.248  -2.876  0.00  0.00    +0.276 C 
ATOM     11  N   UNL     1       0.470  -4.911  -3.477  0.00  0.00    -0.215 NA
ATOM     12  C   UNL     1       0.350  -4.024  -2.429  0.00  0.00    +0.077 C 
ATOM     13  C   UNL     1       0.222  -2.671  -2.394  0.00  0.00    +0.050 C 
ATOM     14  H   UNL     1      -0.101  -0.179  -1.988  0.00  0.00    +0.155 HD
ENDROOT
BRANCH  10  15
ATOM     15  C   UNL     1      -0.580  -7.108  -3.345  0.00  0.00    +0.150 A 
ATOM     16  C   UNL     1      -1.169  -8.088  -2.637  0.00  0.00    +0.050 A 
ATOM     17  C   UNL     1      -2.188  -8.628  -3.454  0.00  0.00    +0.057 A 
ATOM     18  C   UNL     1      -2.161  -7.946  -4.614  0.00  0.00    +0.170 A 
ATOM     19  O   UNL     1      -1.188  -7.023  -4.540  0.00  0.00    -0.449 OA
ATOM     20 BR   UNL     1      -3.303  -8.234  -6.094  0.00  0.00    -0.008 Br
ENDBRANCH  10  15
TORSDOF 1
