REMARK  Name = ZINC50397337
REMARK  3 active torsions:
REMARK  status: ('A' for Active; 'I' for Inactive)
REMARK    1  A    between atoms: C_2  and  N_20
REMARK    2  A    between atoms: C_3  and  N_11
REMARK    3  A    between atoms: N_11  and  C_12
REMARK                            x       y       z     vdW  Elec       q    Type
REMARK                         _______ _______ _______ _____ _____    ______ ____
ROOT
ATOM      1  C   UNL     1      -0.017   1.383   0.010  0.00  0.00    +0.074 A 
ATOM      2  C   UNL     1       1.173   2.095   0.002  0.00  0.00    +0.049 A 
ATOM      3  C   UNL     1       2.389   1.415  -0.014  0.00  0.00    +0.052 A 
ATOM      4  C   UNL     1       2.406   0.029  -0.023  0.00  0.00    +0.074 A 
ATOM      5  C   UNL     1       1.215  -0.682  -0.016  0.00  0.00    +0.164 A 
ATOM      6  C   UNL     1       0.002  -0.004   0.002  0.00  0.00    +0.164 A 
ATOM      7  O   UNL     1      -1.177  -0.686   0.017  0.00  0.00    -0.485 OA
ATOM      8  C   UNL     1      -1.129  -2.064  -0.368  0.00  0.00    +0.270 C 
ATOM      9  C   UNL     1       0.052  -2.724   0.357  0.00  0.00    +0.270 C 
ATOM     10  O   UNL     1       1.252  -2.044  -0.029  0.00  0.00    -0.485 OA
ENDROOT
BRANCH   2  11
ATOM     11  N   UNL     1       1.152   3.497   0.010  0.00  0.00    -0.356 N 
ATOM     12  H   UNL     1       0.305   3.970   0.020  0.00  0.00    +0.142 HD
ATOM     13  H   UNL     1       1.985   3.995   0.004  0.00  0.00    +0.142 HD
ENDBRANCH   2  11
BRANCH   3  14
ATOM     14  N   UNL     1       3.595   2.132  -0.020  0.00  0.00    -0.331 N 
ATOM     15  H   UNL     1       3.582   3.102  -0.014  0.00  0.00    +0.147 HD
BRANCH  14  16
ATOM     16  C   UNL     1       4.873   1.416  -0.037  0.00  0.00    +0.157 C 
ATOM     17  C   UNL     1       5.960   2.304   0.573  0.00  0.00    +0.033 C 
ATOM     18  C   UNL     1       7.324   1.658   0.298  0.00  0.00    +0.021 C 
ATOM     19  C   UNL     1       7.598   1.715  -1.205  0.00  0.00    +0.104 C 
ATOM     20  N   UNL     1       6.462   1.189  -1.952  0.00  0.00    -0.314 N 
ATOM     21  C   UNL     1       5.232   1.070  -1.453  0.00  0.00    +0.233 C 
ATOM     22  O   UNL     1       4.356   0.658  -2.183  0.00  0.00    -0.274 OA
ATOM     23  H   UNL     1       6.611   0.910  -2.869  0.00  0.00    +0.149 HD
ENDBRANCH  14  16
ENDBRANCH   3  14
TORSDOF 3
