REMARK  Name = ZINC48948627
REMARK  6 active torsions:
REMARK  status: ('A' for Active; 'I' for Inactive)
REMARK    1  A    between atoms: C_1  and  N_2
REMARK    2  A    between atoms: N_2  and  C_3
REMARK    3  A    between atoms: N_2  and  C_10
REMARK    4  A    between atoms: C_3  and  C_4
REMARK    5  A    between atoms: C_13  and  N_18
REMARK    6  A    between atoms: C_15  and  C_16
REMARK                            x       y       z     vdW  Elec       q    Type
REMARK                         _______ _______ _______ _____ _____    ______ ____
ROOT
ATOM      1  C   UNL     1      -0.043  -0.867  -1.135  0.00  0.00    +0.034 A 
ATOM      2  C   UNL     1      -1.367  -1.162  -1.438  0.00  0.00    +0.025 A 
ATOM      3  C   UNL     1      -1.662  -2.228  -2.264  0.00  0.00    +0.034 A 
ATOM      4  C   UNL     1      -0.643  -3.002  -2.789  0.00  0.00    +0.127 A 
ATOM      5  C   UNL     1       0.675  -2.711  -2.489  0.00  0.00    +0.039 A 
ATOM      6  C   UNL     1       0.978  -1.642  -1.668  0.00  0.00    -0.010 A 
ENDROOT
BRANCH   4   7
ATOM      7  N   UNL     1      -0.963  -4.144  -3.675  0.00  0.00    +0.056 N 
ATOM      8  O   UNL     1      -2.115  -4.400  -3.938  0.00  0.00    -0.126 OA
ATOM      9  O   UNL     1      -0.073  -4.821  -4.134  0.00  0.00    -0.126 OA
ENDBRANCH   4   7
BRANCH   1  11
ATOM     10  C   UNL     1       0.460   1.546  -0.870  0.00  0.00    +0.129 C 
ATOM     11  N   UNL     1       0.259   0.211  -0.300  0.00  0.00    -0.330 N 
BRANCH  11  12
ATOM     12  C   UNL     1       0.376   0.008   1.146  0.00  0.00    +0.136 C 
BRANCH  12  13
ATOM     13  C   UNL     1      -1.006   0.127   1.792  0.00  0.00    +0.135 C 
ATOM     14  C   UNL     1      -0.902  -0.067   3.325  0.00  0.00    +0.035 C 
ATOM     15  C   UNL     1      -2.164   0.700   3.806  0.00  0.00    +0.031 C 
ATOM     16  C   UNL     1      -2.257   1.852   2.781  0.00  0.00    +0.160 C 
ATOM     17  O   UNL     1      -1.527   1.453   1.613  0.00  0.00    -0.375 OA
ENDBRANCH  12  13
ENDBRANCH  11  12
ENDBRANCH   1  11
BRANCH   6  18
ATOM     18  C   UNL     1       2.415  -1.322  -1.346  0.00  0.00    +0.145 C 
ATOM     19 CL   UNL     1       2.962  -2.339   0.038  0.00  0.00    -0.120 Cl
ENDBRANCH   6  18
TORSDOF 5
