REMARK  Name = ZINC40169462
REMARK  7 active torsions:
REMARK  status: ('A' for Active; 'I' for Inactive)
REMARK    1  A    between atoms: C_1  and  C_2
REMARK    2  A    between atoms: C_2  and  C_4
REMARK    3  A    between atoms: C_2  and  S_23
REMARK    4  A    between atoms: N_6  and  C_7
REMARK    5  A    between atoms: C_10  and  S_13
REMARK    6  A    between atoms: S_13  and  N_16
REMARK    7  A    between atoms: S_23  and  C_24
REMARK                            x       y       z     vdW  Elec       q    Type
REMARK                         _______ _______ _______ _____ _____    ______ ____
ROOT
ATOM      1  C   UNL     1      -1.699   0.211  -2.099  0.00  0.00    +0.230 C 
ATOM      2  O   UNL     1      -2.487   0.577  -2.945  0.00  0.00    -0.274 OA
ATOM      3  N   UNL     1      -2.090  -0.657  -1.144  0.00  0.00    -0.285 N 
ATOM      4  H   UNL     1      -1.444  -1.002  -0.508  0.00  0.00    +0.155 HD
ENDROOT
BRANCH   3   5
ATOM      5  C   UNL     1      -3.428  -1.061  -1.071  0.00  0.00    +0.034 A 
ATOM      6  C   UNL     1      -4.018  -1.295   0.164  0.00  0.00    +0.025 A 
ATOM      7  C   UNL     1      -5.338  -1.693   0.233  0.00  0.00    +0.030 A 
ATOM      8  C   UNL     1      -6.074  -1.858  -0.927  0.00  0.00    +0.106 A 
ATOM      9  C   UNL     1      -5.489  -1.626  -2.158  0.00  0.00    +0.030 A 
ATOM     10  C   UNL     1      -4.171  -1.222  -2.234  0.00  0.00    +0.025 A 
BRANCH   8  11
ATOM     11  S   UNL     1      -7.758  -2.366  -0.835  0.00  0.00    +0.061 S 
ATOM     12  O   UNL     1      -8.068  -2.975  -2.081  0.00  0.00    -0.153 OA
ATOM     13  O   UNL     1      -7.910  -3.046   0.404  0.00  0.00    -0.153 OA
BRANCH  11  14
ATOM     14  N   UNL     1      -8.679  -0.993  -0.737  0.00  0.00    -0.177 NA
ATOM     15  C   UNL     1      -8.979  -0.452   0.569  0.00  0.00    +0.109 C 
ATOM     16  C   UNL     1     -10.286  -1.085   1.106  0.00  0.00    +0.017 C 
ATOM     17  C   UNL     1     -11.446  -0.578   0.357  0.00  0.00    +0.001 C 
ATOM     18  C   UNL     1     -11.438  -0.930  -1.128  0.00  0.00    +0.001 C 
ATOM     19  C   UNL     1     -10.622   0.093  -1.880  0.00  0.00    +0.017 C 
ATOM     20  C   UNL     1      -9.154  -0.370  -1.988  0.00  0.00    +0.109 C 
ENDBRANCH  11  14
ENDBRANCH   8  11
ENDBRANCH   3   5
BRANCH   1  22
ATOM     21  C   UNL     1       0.613  -0.268  -2.857  0.00  0.00    +0.029 C 
ATOM     22  C   UNL     1      -0.283   0.726  -2.114  0.00  0.00    +0.137 C 
BRANCH  22  23
ATOM     23  S   UNL     1      -0.233   2.332  -2.956  0.00  0.00    -0.073 S 
BRANCH  23  24
ATOM     24  C   UNL     1       1.436   2.862  -2.763  0.00  0.00    +0.197 A 
ATOM     25  N   UNL     1       2.397   2.208  -2.147  0.00  0.00    -0.122 NA
ATOM     26  N   UNL     1       3.492   2.880  -2.192  0.00  0.00    -0.129 NA
ATOM     27  C   UNL     1       3.296   4.012  -2.843  0.00  0.00    +0.162 A 
ATOM     28  N   UNL     1       1.975   4.025  -3.230  0.00  0.00    -0.270 N 
ATOM     29  C   UNL     1       1.456   5.091  -3.945  0.00  0.00    +0.058 A 
ATOM     30  C   UNL     1       0.123   5.109  -4.333  0.00  0.00    +0.027 A 
ATOM     31  C   UNL     1      -0.373   6.182  -5.045  0.00  0.00    +0.002 A 
ATOM     32  C   UNL     1       0.449   7.248  -5.379  0.00  0.00    +0.001 A 
ATOM     33  C   UNL     1       1.774   7.250  -5.005  0.00  0.00    +0.010 A 
ATOM     34  C   UNL     1       2.291   6.170  -4.283  0.00  0.00    -0.001 A 
ATOM     35  C   UNL     1       3.697   6.145  -3.869  0.00  0.00    +0.013 A 
ATOM     36  C   UNL     1       4.158   5.086  -3.166  0.00  0.00    +0.049 A 
ENDBRANCH  23  24
ENDBRANCH  22  23
ENDBRANCH   1  22
TORSDOF 6
