REMARK  Name = ZINC03088083
REMARK  3 active torsions:
REMARK  status: ('A' for Active; 'I' for Inactive)
REMARK    1  A    between atoms: C_1  and  C_2
REMARK    2  A    between atoms: C_4  and  C_17
REMARK    3  A    between atoms: C_8  and  N_13
REMARK                            x       y       z     vdW  Elec       q    Type
REMARK                         _______ _______ _______ _____ _____    ______ ____
ROOT
ATOM      1  C   UNL     1      -1.295  -0.771   0.010  0.00  0.00    +0.065 C 
ATOM      2  C   UNL     1       0.002  -0.004   0.002  0.00  0.00    +0.040 A 
ATOM      3  C   UNL     1      -0.017   1.381   0.010  0.00  0.00    +0.036 A 
ATOM      4  C   UNL     1       1.163   2.092   0.002  0.00  0.00    +0.068 A 
ATOM      5  C   UNL     1       2.387   1.386  -0.013  0.00  0.00    +0.045 A 
ATOM      6  C   UNL     1       3.751   1.949  -0.024  0.00  0.00    +0.095 A 
ATOM      7  C   UNL     1       4.796   1.018  -0.039  0.00  0.00    +0.080 A 
ATOM      8  C   UNL     1       6.122   1.431  -0.050  0.00  0.00    +0.136 A 
ATOM      9  N   UNL     1       6.379   2.738  -0.046  0.00  0.00    -0.199 NA
ATOM     10  C   UNL     1       5.379   3.610  -0.032  0.00  0.00    +0.215 A 
ATOM     11  N   UNL     1       4.113   3.252  -0.021  0.00  0.00    -0.213 NA
ATOM     12  N   UNL     1       5.683   4.963  -0.028  0.00  0.00    -0.327 N 
ATOM     13  S   UNL     1       3.991  -0.560  -0.039  0.00  0.00    -0.064 S 
ATOM     14  C   UNL     1       2.300  -0.017  -0.020  0.00  0.00    +0.112 A 
ATOM     15  N   UNL     1       1.149  -0.656  -0.012  0.00  0.00    -0.245 NA
ATOM     16  H   UNL     1       4.970   5.620  -0.018  0.00  0.00    +0.145 HD
ATOM     17  H   UNL     1       6.609   5.252  -0.036  0.00  0.00    +0.145 HD
ENDROOT
BRANCH   4  18
ATOM     18  C   UNL     1       1.148   3.599   0.010  0.00  0.00    +0.418 C 
ATOM     19  F   UNL     1      -0.175   4.052   0.025  0.00  0.00    -0.166 F 
ATOM     20  F   UNL     1       1.814   4.066   1.149  0.00  0.00    -0.166 F 
ATOM     21  F   UNL     1       1.792   4.077  -1.136  0.00  0.00    -0.166 F 
ENDBRANCH   4  18
BRANCH   8  22
ATOM     22  N   UNL     1       7.153   0.505  -0.065  0.00  0.00    -0.342 N 
ATOM     23  H   UNL     1       6.952  -0.444  -0.067  0.00  0.00    +0.144 HD
ATOM     24  H   UNL     1       8.075   0.806  -0.072  0.00  0.00    +0.144 HD
ENDBRANCH   8  22
TORSDOF 2
