REMARK  Name = ZINC40760780
REMARK  8 active torsions:
REMARK  status: ('A' for Active; 'I' for Inactive)
REMARK    1  A    between atoms: C_1  and  C_2
REMARK    2  A    between atoms: C_13  and  N_29
REMARK    3  A    between atoms: C_14  and  N_18
REMARK    4  A    between atoms: N_18  and  C_19
REMARK    5  A    between atoms: C_21  and  C_27
REMARK    6  A    between atoms: C_21  and  C_28
REMARK    7  A    between atoms: C_23  and  C_25
REMARK    8  A    between atoms: C_23  and  C_26
REMARK                            x       y       z     vdW  Elec       q    Type
REMARK                         _______ _______ _______ _____ _____    ______ ____
ROOT
ATOM      1  C   UNL     1      -0.347   1.371  -0.049  0.00  0.00    +0.046 C 
ATOM      2  C   UNL     1      -0.425  -0.134  -0.065  0.00  0.00    -0.024 A 
ATOM      3  C   UNL     1      -0.500  -0.796  -1.263  0.00  0.00    +0.005 A 
ATOM      4  C   UNL     1      -0.572  -2.180  -1.322  0.00  0.00    +0.001 A 
ATOM      5  C   UNL     1      -0.568  -2.910  -0.147  0.00  0.00    +0.017 A 
ATOM      6  C   UNL     1      -0.493  -2.255   1.057  0.00  0.00    +0.041 A 
ATOM      7  C   UNL     1      -0.413  -0.847   1.156  0.00  0.00    +0.083 A 
ATOM      8  N   UNL     1      -0.338  -0.352   2.410  0.00  0.00    -0.224 NA
ATOM      9  C   UNL     1      -0.336  -1.123   3.474  0.00  0.00    +0.165 A 
ATOM     10  S   UNL     1      -0.459  -2.757   2.761  0.00  0.00    -0.052 S 
ATOM     11  N   UNL     1      -0.265  -0.761   4.806  0.00  0.00    -0.277 N 
ATOM     12  C   UNL     1      -0.276  -1.741   5.794  0.00  0.00    +0.150 A 
ATOM     13  C   UNL     1      -0.211  -1.388   7.143  0.00  0.00    +0.106 A 
ATOM     14  C   UNL     1      -0.225  -2.411   8.093  0.00  0.00    +0.145 A 
ATOM     15  N   UNL     1      -0.299  -3.674   7.680  0.00  0.00    -0.219 NA
ATOM     16  C   UNL     1      -0.359  -3.964   6.396  0.00  0.00    +0.225 A 
ATOM     17  N   UNL     1      -0.354  -3.029   5.468  0.00  0.00    -0.219 NA
ATOM     18  H   UNL     1      -0.208   0.175   5.052  0.00  0.00    +0.156 HD
ENDROOT
BRANCH  13  19
ATOM     19  N   UNL     1      -0.133  -0.042   7.533  0.00  0.00    -0.353 N 
ATOM     20  H   UNL     1      -0.124   0.658   6.861  0.00  0.00    +0.143 HD
ATOM     21  H   UNL     1      -0.088   0.189   8.474  0.00  0.00    +0.143 HD
ENDBRANCH  13  19
BRANCH  14  22
ATOM     22  N   UNL     1      -0.162  -2.115   9.450  0.00  0.00    -0.325 N 
ATOM     23  H   UNL     1      -0.107  -1.191   9.742  0.00  0.00    +0.148 HD
BRANCH  22  24
ATOM     24  C   UNL     1      -0.177  -3.199  10.440  0.00  0.00    +0.069 C 
ATOM     25  C   UNL     1      -1.627  -3.557  10.770  0.00  0.00    +0.009 C 
ATOM     26  C   UNL     1      -1.661  -4.677  11.809  0.00  0.00    -0.072 C 
ATOM     27  N   UNL     1      -0.883  -4.348  12.995  0.00  0.00    +0.386 N 
ATOM     28  C   UNL     1       0.449  -3.800  12.798  0.00  0.00    -0.072 C 
ATOM     29  C   UNL     1       0.503  -2.720  11.722  0.00  0.00    +0.009 C 
ATOM     30  C   UNL     1       0.881  -3.141  14.130  0.00  0.00    -0.010 C 
ATOM     31  C   UNL     1       1.473  -4.896  12.489  0.00  0.00    -0.010 C 
ATOM     32  C   UNL     1      -3.133  -4.850  12.249  0.00  0.00    -0.010 C 
ATOM     33  C   UNL     1      -1.218  -5.997  11.178  0.00  0.00    -0.010 C 
ATOM     34  H   UNL     1      -1.423  -3.687  13.559  0.00  0.00    -0.084 HD
ATOM     35  H   UNL     1      -0.804  -5.190  13.571  0.00  0.00    -0.084 HD
ENDBRANCH  22  24
ENDBRANCH  14  22
TORSDOF 3
