REMARK  Name = ZINC39789958
REMARK  7 active torsions:
REMARK  status: ('A' for Active; 'I' for Inactive)
REMARK    1  A    between atoms: C_8  and  S_10
REMARK    2  A    between atoms: S_10  and  C_11
REMARK    3  A    between atoms: C_11  and  C_12
REMARK    4  A    between atoms: C_15  and  C_18
REMARK    5  A    between atoms: N_20  and  N_21
REMARK    6  A    between atoms: C_22  and  C_24
REMARK    7  A    between atoms: C_27  and  N_29
REMARK                            x       y       z     vdW  Elec       q    Type
REMARK                         _______ _______ _______ _____ _____    ______ ____
ROOT
ATOM      1  C   UNL     1       5.389  -5.692  -0.080  0.00  0.00    -0.037 A 
ATOM      2  C   UNL     1       5.631  -6.347   1.115  0.00  0.00    +0.005 A 
ATOM      3  C   UNL     1       6.103  -7.643   1.111  0.00  0.00    +0.013 A 
ATOM      4  C   UNL     1       6.337  -8.294  -0.102  0.00  0.00    +0.038 A 
ATOM      5  C   UNL     1       6.090  -7.627  -1.303  0.00  0.00    +0.013 A 
ATOM      6  C   UNL     1       5.613  -6.333  -1.285  0.00  0.00    +0.005 A 
ENDROOT
BRANCH   4   7
ATOM      7  C   UNL     1       6.843  -9.683  -0.114  0.00  0.00    +0.260 C 
ATOM      8  O   UNL     1       7.057 -10.261   0.934  0.00  0.00    -0.269 OA
ATOM      9  N   UNL     1       7.067 -10.308  -1.286  0.00  0.00    -0.230 N 
ATOM     10  H   UNL     1       6.896  -9.847  -2.123  0.00  0.00    +0.173 HD
BRANCH   9  11
ATOM     11  N   UNL     1       7.546 -11.625  -1.298  0.00  0.00    -0.229 N 
ATOM     12  C   UNL     1       7.771 -12.250  -2.470  0.00  0.00    +0.278 C 
ATOM     13  O   UNL     1       7.557 -11.673  -3.517  0.00  0.00    -0.267 OA
ATOM     14  H   UNL     1       7.717 -12.086  -0.462  0.00  0.00    +0.173 HD
BRANCH  12  15
ATOM     15  C   UNL     1       8.280 -13.648  -2.482  0.00  0.00    +0.124 C 
ATOM     16  N   UNL     1       8.533 -14.348  -1.420  0.00  0.00    -0.272 NA
ATOM     17  C   UNL     1       9.014 -15.668  -1.849  0.00  0.00    +0.202 C 
ATOM     18  C   UNL     1       9.005 -15.631  -3.361  0.00  0.00    +0.127 C 
ATOM     19  C   UNL     1       8.559 -14.423  -3.698  0.00  0.00    +0.062 C 
BRANCH  18  20
ATOM     20  N   UNL     1       9.404 -16.720  -4.280  0.00  0.00    +0.054 N 
ATOM     21  O   UNL     1       9.346 -16.554  -5.476  0.00  0.00    -0.126 OA
ATOM     22  O   UNL     1       9.788 -17.777  -3.835  0.00  0.00    -0.126 OA
ENDBRANCH  18  20
ENDBRANCH  12  15
ENDBRANCH   9  11
ENDBRANCH   4   7
BRANCH   1  23
ATOM     23  C   UNL     1       4.873  -4.276  -0.067  0.00  0.00    +0.111 C 
BRANCH  23  24
ATOM     24  S   UNL     1       3.059  -4.293  -0.050  0.00  0.00    -0.094 S 
BRANCH  24  32
ATOM     25  C   UNL     1      -0.017   1.366   0.010  0.00  0.00    +0.002 A 
ATOM     26  C   UNL     1       1.156   2.107   0.002  0.00  0.00    +0.001 A 
ATOM     27  C   UNL     1       2.373   1.449  -0.013  0.00  0.00    +0.017 A 
ATOM     28  C   UNL     1       2.401   0.077  -0.021  0.00  0.00    +0.040 A 
ATOM     29  C   UNL     1       1.227  -0.710  -0.013  0.00  0.00    +0.079 A 
ATOM     30  C   UNL     1       0.002  -0.004   0.002  0.00  0.00    +0.029 A 
ATOM     31  N   UNL     1       1.419  -2.047  -0.023  0.00  0.00    -0.233 NA
ATOM     32  C   UNL     1       2.617  -2.588  -0.037  0.00  0.00    +0.136 A 
ATOM     33  S   UNL     1       3.683  -1.153  -0.039  0.00  0.00    -0.061 S 
ENDBRANCH  24  32
ENDBRANCH  23  24
ENDBRANCH   1  23
TORSDOF 7
