REMARK  Name = ZINC38976437
REMARK  9 active torsions:
REMARK  status: ('A' for Active; 'I' for Inactive)
REMARK    1  A    between atoms: C_1  and  C_2
REMARK    2  A    between atoms: C_2  and  C_3
REMARK    3  A    between atoms: C_3  and  C_4
REMARK    4  A    between atoms: C_4  and  C_5
REMARK    5  A    between atoms: C_5  and  C_6
REMARK    6  A    between atoms: C_6  and  N_7
REMARK    7  A    between atoms: N_7  and  C_8
REMARK    8  A    between atoms: N_11  and  S_12
REMARK    9  A    between atoms: S_12  and  C_15
REMARK                            x       y       z     vdW  Elec       q    Type
REMARK                         _______ _______ _______ _____ _____    ______ ____
ROOT
ATOM      1  C   UNL     1      -4.225  -6.100   0.010  0.00  0.00    +0.219 C 
ATOM      2  C   UNL     1      -5.164  -6.555   1.104  0.00  0.00    +0.188 C 
ATOM      3  N   UNL     1      -4.962  -6.198   2.338  0.00  0.00    -0.110 NA
ATOM      4  N   UNL     1      -6.210  -7.333   0.782  0.00  0.00    -0.226 NA
ATOM      5  C   UNL     1      -6.436  -7.708  -0.459  0.00  0.00    +0.089 A 
ATOM      6  C   UNL     1      -7.551  -8.530  -0.762  0.00  0.00    +0.030 A 
ATOM      7  C   UNL     1      -7.788  -8.918  -2.034  0.00  0.00    +0.002 A 
ATOM      8  C   UNL     1      -6.966  -8.540  -3.109  0.00  0.00    +0.002 A 
ATOM      9  C   UNL     1      -5.878  -7.759  -2.931  0.00  0.00    +0.027 A 
ATOM     10  C   UNL     1      -5.551  -7.294  -1.575  0.00  0.00    +0.063 A 
ATOM     11  N   UNL     1      -4.510  -6.538  -1.366  0.00  0.00    -0.362 N 
ATOM     12  H   UNL     1      -3.936  -6.271  -2.100  0.00  0.00    +0.162 HD
ENDROOT
BRANCH   3  13
ATOM     13  S   UNL     1      -5.998  -6.703   3.526  0.00  0.00    +0.102 S 
ATOM     14  O   UNL     1      -7.250  -6.084   3.264  0.00  0.00    -0.146 OA
ATOM     15  O   UNL     1      -5.850  -8.113   3.622  0.00  0.00    -0.146 OA
BRANCH  13  16
ATOM     16  C   UNL     1      -5.413  -6.032   5.047  0.00  0.00    +0.132 A 
ATOM     17  C   UNL     1      -6.180  -5.110   5.735  0.00  0.00    +0.050 A 
ATOM     18  C   UNL     1      -5.721  -4.583   6.929  0.00  0.00    +0.043 A 
ATOM     19  C   UNL     1      -4.495  -4.978   7.434  0.00  0.00    +0.021 A 
ATOM     20  C   UNL     1      -3.729  -5.900   6.746  0.00  0.00    +0.023 A 
ATOM     21  C   UNL     1      -4.190  -6.431   5.555  0.00  0.00    +0.068 A 
ATOM     22 CL   UNL     1      -3.231  -7.594   4.694  0.00  0.00    -0.082 Cl
ATOM     23 CL   UNL     1      -6.683  -3.425   7.793  0.00  0.00    -0.083 Cl
ENDBRANCH  13  16
ENDBRANCH   3  13
BRANCH   1  24
ATOM     24  N   UNL     1      -4.205  -4.631   0.017  0.00  0.00    -0.291 NA
ATOM     25  H   UNL     1      -4.719  -4.267   0.806  0.00  0.00    +0.124 HD
BRANCH  24  26
ATOM     26  C   UNL     1      -2.827  -4.123   0.007  0.00  0.00    +0.083 C 
BRANCH  26  27
ATOM     27  C   UNL     1      -2.848  -2.593   0.015  0.00  0.00    +0.015 C 
BRANCH  27  28
ATOM     28  C   UNL     1      -1.413  -2.063   0.004  0.00  0.00    +0.001 C 
BRANCH  28  29
ATOM     29  C   UNL     1      -1.433  -0.534   0.013  0.00  0.00    -0.000 C 
BRANCH  29  31
ATOM     30  C   UNL     1      -0.019   1.526   0.010  0.00  0.00    +0.004 C 
ATOM     31  C   UNL     1       0.002  -0.004   0.002  0.00  0.00    -0.003 C 
ENDBRANCH  29  31
ENDBRANCH  28  29
ENDBRANCH  27  28
ENDBRANCH  26  27
ENDBRANCH  24  26
ENDBRANCH   1  24
TORSDOF 8
