REMARK  Name = ZINC39909399
REMARK  8 active torsions:
REMARK  status: ('A' for Active; 'I' for Inactive)
REMARK    1  A    between atoms: C_1  and  C_2
REMARK    2  A    between atoms: C_2  and  S_3
REMARK    3  A    between atoms: S_3  and  C_6
REMARK    4  A    between atoms: C_10  and  C_12
REMARK    5  A    between atoms: N_14  and  C_15
REMARK    6  A    between atoms: C_16  and  C_24
REMARK    7  A    between atoms: N_26  and  C_27
REMARK    8  A    between atoms: C_27  and  C_28
REMARK                            x       y       z     vdW  Elec       q    Type
REMARK                         _______ _______ _______ _____ _____    ______ ____
ROOT
ATOM      1  C   UNL     1      -1.262  -5.057   4.843  0.00  0.00    +0.085 A 
ATOM      2  C   UNL     1      -1.313  -4.521   6.121  0.00  0.00    +0.069 A 
ATOM      3  C   UNL     1      -1.220  -5.448   7.234  0.00  0.00    -0.023 A 
ATOM      4  C   UNL     1      -1.093  -6.742   6.867  0.00  0.00    -0.004 A 
ATOM      5  S   UNL     1      -1.106  -6.710   5.099  0.00  0.00    -0.077 S 
ATOM      6  C   UNL     1      -0.973  -7.927   7.774  0.00  0.00    +0.043 C 
ATOM      7  C   UNL     1      -0.637  -7.422   9.185  0.00  0.00    +0.005 C 
ATOM      8  C   UNL     1      -1.589  -6.277   9.542  0.00  0.00    +0.005 C 
ATOM      9  C   UNL     1      -1.258  -5.043   8.700  0.00  0.00    +0.037 C 
ENDROOT
BRANCH   1  12
ATOM     10  C   UNL     1      -1.271  -5.073   2.477  0.00  0.00    +0.269 C 
ATOM     11  O   UNL     1      -1.157  -6.282   2.494  0.00  0.00    -0.268 OA
ATOM     12  N   UNL     1      -1.331  -4.385   3.634  0.00  0.00    -0.274 N 
ATOM     13  H   UNL     1      -1.422  -3.420   3.620  0.00  0.00    +0.156 HD
BRANCH  10  18
ATOM     14  C   UNL     1      -1.535  -2.386   0.004  0.00  0.00    +0.271 A 
ATOM     15  N   UNL     1      -1.481  -3.017  -1.154  0.00  0.00    -0.219 NA
ATOM     16  C   UNL     1      -1.358  -4.331  -1.209  0.00  0.00    +0.136 A 
ATOM     17  C   UNL     1      -1.284  -5.054  -0.025  0.00  0.00    +0.090 A 
ATOM     18  C   UNL     1      -1.345  -4.353   1.182  0.00  0.00    +0.149 A 
ATOM     19  N   UNL     1      -1.465  -3.028   1.150  0.00  0.00    -0.206 NA
ATOM     20 CL   UNL     1      -1.122  -6.783  -0.044  0.00  0.00    -0.080 Cl
BRANCH  14  21
ATOM     21  S   UNL     1      -1.700  -0.632   0.015  0.00  0.00    +0.032 S 
ATOM     22  O   UNL     1      -2.322  -0.334   1.257  0.00  0.00    -0.166 OA
ATOM     23  O   UNL     1      -2.346  -0.321  -1.212  0.00  0.00    -0.166 OA
BRANCH  21  25
ATOM     24  C   UNL     1      -0.019   1.526   0.010  0.00  0.00    +0.028 C 
ATOM     25  C   UNL     1       0.002  -0.004   0.002  0.00  0.00    +0.172 C 
ENDBRANCH  21  25
ENDBRANCH  14  21
ENDBRANCH  10  18
ENDBRANCH   1  12
BRANCH   2  26
ATOM     26  C   UNL     1      -1.454  -3.078   6.338  0.00  0.00    +0.247 C 
ATOM     27  O   UNL     1      -2.561  -2.582   6.431  0.00  0.00    -0.270 OA
ATOM     28  N   UNL     1      -0.357  -2.301   6.436  0.00  0.00    -0.309 N 
ATOM     29  H   UNL     1       0.526  -2.696   6.362  0.00  0.00    +0.149 HD
BRANCH  28  30
ATOM     30  C   UNL     1      -0.497  -0.859   6.653  0.00  0.00    +0.136 C 
BRANCH  30  31
ATOM     31  C   UNL     1       0.889  -0.216   6.726  0.00  0.00    +0.135 C 
ATOM     32  C   UNL     1       0.755   1.282   7.075  0.00  0.00    +0.035 C 
ATOM     33  C   UNL     1       1.847   1.928   6.180  0.00  0.00    +0.031 C 
ATOM     34  C   UNL     1       1.789   1.009   4.934  0.00  0.00    +0.160 C 
ATOM     35  O   UNL     1       1.535  -0.309   5.451  0.00  0.00    -0.375 OA
ENDBRANCH  30  31
ENDBRANCH  28  30
ENDBRANCH   2  26
TORSDOF 7
