REMARK  Name = ZINC11358135
REMARK  6 active torsions:
REMARK  status: ('A' for Active; 'I' for Inactive)
REMARK    1  A    between atoms: C_1  and  C_2
REMARK    2  A    between atoms: C_5  and  C_9
REMARK    3  A    between atoms: C_6  and  C_8
REMARK    4  A    between atoms: C_15  and  C_17
REMARK    5  A    between atoms: C_17  and  N_18
REMARK    6  A    between atoms: C_19  and  C_21
REMARK                            x       y       z     vdW  Elec       q    Type
REMARK                         _______ _______ _______ _____ _____    ______ ____
ROOT
ATOM      1  C   UNL     1      -3.401   1.614   0.301  0.00  0.00    +0.080 A 
ATOM      2  C   UNL     1      -3.061   2.918   0.534  0.00  0.00    +0.076 A 
ATOM      3  S   UNL     1      -1.279   2.786   0.611  0.00  0.00    -0.060 S 
ATOM      4  C   UNL     1      -1.173   1.026   0.318  0.00  0.00    +0.165 A 
ATOM      5  N   UNL     1      -2.446   0.702   0.199  0.00  0.00    -0.225 NA
ATOM      6  N   UNL     1      -0.048   0.214   0.241  0.00  0.00    -0.263 N 
ATOM      7  C   UNL     1       1.181   0.750   0.387  0.00  0.00    +0.236 C 
ATOM      8  O   UNL     1       1.304   1.939   0.589  0.00  0.00    -0.274 OA
ATOM      9  H   UNL     1      -0.146  -0.737   0.079  0.00  0.00    +0.157 HD
ENDROOT
BRANCH   1  14
ATOM     10  C   UNL     1      -8.933   0.103  -0.228  0.00  0.00    +0.044 C 
ATOM     11  C   UNL     1      -7.485   0.499  -0.089  0.00  0.00    -0.050 A 
ATOM     12  C   UNL     1      -7.088   1.304   0.963  0.00  0.00    +0.004 A 
ATOM     13  C   UNL     1      -5.764   1.665   1.098  0.00  0.00    +0.010 A 
ATOM     14  C   UNL     1      -4.826   1.226   0.165  0.00  0.00    +0.004 A 
ATOM     15  C   UNL     1      -5.231   0.414  -0.893  0.00  0.00    -0.041 A 
ATOM     16  C   UNL     1      -6.559   0.055  -1.015  0.00  0.00    +0.007 A 
ATOM     17  C   UNL     1      -4.223  -0.070  -1.903  0.00  0.00    +0.044 C 
ENDBRANCH   1  14
BRANCH   7  18
ATOM     18  C   UNL     1       2.401  -0.130   0.297  0.00  0.00    +0.200 C 
BRANCH  18  19
ATOM     19  N   UNL     1       3.604   0.684   0.488  0.00  0.00    -0.300 N 
ATOM     20  C   UNL     1       4.822   0.106   0.448  0.00  0.00    +0.280 C 
ATOM     21  O   UNL     1       4.921  -1.091   0.255  0.00  0.00    -0.267 OA
ATOM     22  H   UNL     1       3.525   1.638   0.642  0.00  0.00    +0.150 HD
BRANCH  20  23
ATOM     23  C   UNL     1       6.026   0.920   0.639  0.00  0.00    +0.191 A 
ATOM     24  C   UNL     1       7.313   0.464   0.628  0.00  0.00    +0.056 A 
ATOM     25  C   UNL     1       8.138   1.577   0.846  0.00  0.00    +0.058 A 
ATOM     26  C   UNL     1       7.328   2.651   0.986  0.00  0.00    +0.171 A 
ATOM     27  O   UNL     1       6.056   2.251   0.861  0.00  0.00    -0.444 OA
ATOM     28 BR   UNL     1       7.897   4.426   1.306  0.00  0.00    -0.008 Br
ENDBRANCH  20  23
ENDBRANCH  18  19
ENDBRANCH   7  18
TORSDOF 4
