REMARK  Name = ZINC01768012
REMARK  6 active torsions:
REMARK  status: ('A' for Active; 'I' for Inactive)
REMARK    1  A    between atoms: C_1  and  C_2
REMARK    2  A    between atoms: C_5  and  N_8
REMARK    3  A    between atoms: C_20  and  S_21
REMARK    4  A    between atoms: S_21  and  C_22
REMARK    5  A    between atoms: C_22  and  C_23
REMARK    6  A    between atoms: C_23  and  C_25
REMARK                            x       y       z     vdW  Elec       q    Type
REMARK                         _______ _______ _______ _____ _____    ______ ____
ROOT
ATOM      1  N   UNL     1       1.567   3.159   0.005  0.00  0.00    -0.245 N 
ATOM      2  C   UNL     1       0.626   3.973   0.510  0.00  0.00    +0.268 A 
ATOM      3  O   UNL     1       0.936   5.064   0.955  0.00  0.00    -0.266 OA
ATOM      4  C   UNL     1      -0.789   3.539   0.525  0.00  0.00    +0.075 A 
ATOM      5  C   UNL     1      -1.952   4.275   1.026  0.00  0.00    -0.023 A 
ATOM      6  C   UNL     1      -3.139   3.645   0.921  0.00  0.00    -0.004 A 
ATOM      7  S   UNL     1      -2.758   2.088   0.168  0.00  0.00    -0.074 S 
ATOM      8  C   UNL     1      -1.053   2.281  -0.005  0.00  0.00    +0.102 A 
ATOM      9  N   UNL     1      -0.055   1.477  -0.509  0.00  0.00    -0.249 N 
ATOM     10  C   UNL     1       1.245   1.912  -0.508  0.00  0.00    +0.245 A 
ATOM     11  N   UNL     1       1.987   0.970  -1.041  0.00  0.00    -0.109 NA
ATOM     12  N   UNL     1       1.150  -0.095  -1.395  0.00  0.00    -0.120 NA
ATOM     13  C   UNL     1      -0.077   0.226  -1.067  0.00  0.00    +0.198 A 
ATOM     14  C   UNL     1      -4.478   4.160   1.351  0.00  0.00    +0.043 C 
ATOM     15  C   UNL     1      -4.257   5.368   2.274  0.00  0.00    +0.005 C 
ATOM     16  C   UNL     1      -3.243   6.310   1.619  0.00  0.00    +0.005 C 
ATOM     17  C   UNL     1      -1.853   5.670   1.633  0.00  0.00    +0.037 C 
ENDROOT
BRANCH   1  22
ATOM     18  C   UNL     1       6.980   4.859  -0.030  0.00  0.00    +0.044 C 
ATOM     19  C   UNL     1       5.543   4.408  -0.021  0.00  0.00    -0.050 A 
ATOM     20  C   UNL     1       4.724   4.691  -1.098  0.00  0.00    +0.005 A 
ATOM     21  C   UNL     1       3.406   4.278  -1.093  0.00  0.00    +0.026 A 
ATOM     22  C   UNL     1       2.903   3.578  -0.004  0.00  0.00    +0.053 A 
ATOM     23  C   UNL     1       3.727   3.301   1.080  0.00  0.00    +0.026 A 
ATOM     24  C   UNL     1       5.045   3.712   1.066  0.00  0.00    +0.005 A 
ENDBRANCH   1  22
BRANCH  13  25
ATOM     25  S   UNL     1      -1.507  -0.776  -1.303  0.00  0.00    -0.078 S 
BRANCH  25  26
ATOM     26  C   UNL     1      -0.863  -2.285  -2.077  0.00  0.00    +0.157 C 
BRANCH  26  27
ATOM     27  C   UNL     1      -1.998  -3.241  -2.336  0.00  0.00    +0.173 C 
ATOM     28  O   UNL     1      -3.131  -2.935  -2.029  0.00  0.00    -0.291 OA
BRANCH  27  29
ATOM     29  C   UNL     1      -1.733  -4.546  -2.962  0.00  0.00    +0.018 A 
ATOM     30  C   UNL     1      -0.428  -4.900  -3.322  0.00  0.00    +0.013 A 
ATOM     31  C   UNL     1      -0.187  -6.126  -3.902  0.00  0.00    +0.020 A 
ATOM     32  C   UNL     1      -1.233  -7.003  -4.140  0.00  0.00    +0.041 A 
ATOM     33  C   UNL     1      -2.529  -6.656  -3.790  0.00  0.00    +0.020 A 
ATOM     34  C   UNL     1      -2.785  -5.436  -3.204  0.00  0.00    +0.013 A 
ATOM     35 CL   UNL     1      -0.920  -8.543  -4.878  0.00  0.00    -0.084 Cl
ENDBRANCH  27  29
ENDBRANCH  26  27
ENDBRANCH  25  26
ENDBRANCH  13  25
TORSDOF 5
