REMARK  Name = ZINC36597168
REMARK  14 active torsions:
REMARK  status: ('A' for Active; 'I' for Inactive)
REMARK    1  A    between atoms: C_1  and  C_2
REMARK    2  A    between atoms: C_5  and  C_7
REMARK    3  A    between atoms: C_7  and  N_8
REMARK    4  A    between atoms: N_8  and  C_9
REMARK    5  A    between atoms: C_9  and  C_11
REMARK    6  A    between atoms: C_9  and  C_24
REMARK    7  A    between atoms: C_11  and  C_12
REMARK    8  A    between atoms: C_11  and  C_18
REMARK    9  A    between atoms: N_26  and  C_27
REMARK   10  A    between atoms: C_27  and  C_28
REMARK   11  A    between atoms: C_27  and  C_29
REMARK   12  A    between atoms: C_27  and  C_30
REMARK   13  A    between atoms: C_31  and  C_33
REMARK   14  A    between atoms: C_36  and  O_39
REMARK                            x       y       z     vdW  Elec       q    Type
REMARK                         _______ _______ _______ _____ _____    ______ ____
ROOT
ATOM      1  C   UNL     1       2.782  -2.564  -3.357  0.00  0.00    +0.174 C 
ENDROOT
BRANCH   1   2
ATOM      2  C   UNL     1       4.013  -2.787  -2.516  0.00  0.00    +0.235 C 
ATOM      3  O   UNL     1       4.043  -3.697  -1.715  0.00  0.00    -0.274 OA
ATOM      4  N   UNL     1       5.079  -1.976  -2.655  0.00  0.00    -0.309 N 
ATOM      5  H   UNL     1       5.026  -1.200  -3.235  0.00  0.00    +0.149 HD
BRANCH   4   6
ATOM      6  C   UNL     1       6.319  -2.265  -1.931  0.00  0.00    +0.026 C 
ATOM      7  C   UNL     1       6.791  -3.680  -2.272  0.00  0.00    +0.031 C 
ATOM      8  C   UNL     1       7.395  -1.256  -2.338  0.00  0.00    +0.031 C 
ATOM      9  C   UNL     1       6.066  -2.161  -0.425  0.00  0.00    +0.031 C 
ENDBRANCH   4   6
ENDBRANCH   1   2
BRANCH   1  10
ATOM     10  N   UNL     1       1.846  -3.673  -3.155  0.00  0.00    -0.278 N 
ATOM     11  C   UNL     1       1.958  -4.793  -3.897  0.00  0.00    +0.248 C 
ATOM     12  O   UNL     1       2.801  -4.862  -4.770  0.00  0.00    -0.270 OA
BRANCH  11  13
ATOM     13  C   UNL     1       1.057  -5.936  -3.649  0.00  0.00    +0.037 A 
ATOM     14  C   UNL     1       0.516  -6.138  -2.377  0.00  0.00    +0.016 A 
ATOM     15  C   UNL     1      -0.325  -7.205  -2.150  0.00  0.00    +0.046 A 
ATOM     16  C   UNL     1      -0.634  -8.081  -3.184  0.00  0.00    +0.117 A 
ATOM     17  C   UNL     1      -0.098  -7.883  -4.451  0.00  0.00    +0.046 A 
ATOM     18  C   UNL     1       0.739  -6.815  -4.688  0.00  0.00    +0.016 A 
BRANCH  16  19
ATOM     19  O   UNL     1      -1.462  -9.132  -2.956  0.00  0.00    -0.507 OA
ATOM     20  H   UNL     1      -2.397  -8.935  -3.106  0.00  0.00    +0.292 HD
ENDBRANCH  16  19
ENDBRANCH  11  13
BRANCH  10  21
ATOM     21  C   UNL     1       0.787  -3.565  -2.148  0.00  0.00    +0.183 C 
BRANCH  21  26
ATOM     22  C   UNL     1       3.168  -5.411   1.898  0.00  0.00    +0.086 C 
ATOM     23  C   UNL     1       2.428  -4.465   0.988  0.00  0.00    +0.102 A 
ATOM     24  C   UNL     1       2.065  -3.205   1.290  0.00  0.00    +0.045 A 
ATOM     25  C   UNL     1       1.398  -2.688   0.156  0.00  0.00    +0.046 A 
ATOM     26  C   UNL     1       1.393  -3.662  -0.771  0.00  0.00    +0.122 A 
ATOM     27  O   UNL     1       2.023  -4.734  -0.264  0.00  0.00    -0.463 OA
ENDBRANCH  21  26
ENDBRANCH  10  21
ENDBRANCH   1  10
BRANCH   1  28
ATOM     28  C   UNL     1       2.113  -1.252  -2.944  0.00  0.00    +0.078 C 
BRANCH  28  29
ATOM     29  C   UNL     1       3.054  -0.104  -3.207  0.00  0.00    -0.038 A 
ATOM     30  C   UNL     1       3.630   0.045  -4.455  0.00  0.00    +0.004 A 
ATOM     31  C   UNL     1       4.494   1.097  -4.696  0.00  0.00    +0.000 A 
ATOM     32  C   UNL     1       4.781   2.001  -3.690  0.00  0.00    +0.000 A 
ATOM     33  C   UNL     1       4.204   1.852  -2.442  0.00  0.00    +0.000 A 
ATOM     34  C   UNL     1       3.337   0.802  -2.202  0.00  0.00    +0.004 A 
ENDBRANCH  28  29
BRANCH  28  35
ATOM     35  C   UNL     1       0.850  -1.058  -3.743  0.00  0.00    -0.038 A 
ATOM     36  C   UNL     1       0.831  -1.364  -5.091  0.00  0.00    +0.004 A 
ATOM     37  C   UNL     1      -0.328  -1.187  -5.824  0.00  0.00    +0.000 A 
ATOM     38  C   UNL     1      -1.468  -0.704  -5.208  0.00  0.00    +0.000 A 
ATOM     39  C   UNL     1      -1.449  -0.399  -3.860  0.00  0.00    +0.000 A 
ATOM     40  C   UNL     1      -0.291  -0.580  -3.127  0.00  0.00    +0.004 A 
ENDBRANCH  28  35
ENDBRANCH   1  28
TORSDOF 10
