REMARK  Name = ZINC24788668
REMARK  6 active torsions:
REMARK  status: ('A' for Active; 'I' for Inactive)
REMARK    1  A    between atoms: C_1  and  C_2
REMARK    2  A    between atoms: C_13  and  C_15
REMARK    3  A    between atoms: C_15  and  N_16
REMARK    4  A    between atoms: C_19  and  C_23
REMARK    5  A    between atoms: C_19  and  C_24
REMARK    6  A    between atoms: C_24  and  C_25
REMARK                            x       y       z     vdW  Elec       q    Type
REMARK                         _______ _______ _______ _____ _____    ______ ____
ROOT
ATOM      1  N   UNL     1       1.859   2.897   0.197  0.00  0.00    -0.215 N 
ATOM      2  C   UNL     1       2.050   2.138  -0.900  0.00  0.00    +0.247 C 
ATOM      3  O   UNL     1       3.106   1.880  -1.437  0.00  0.00    -0.273 OA
ATOM      4  C   UNL     1       0.671   1.673  -1.322  0.00  0.00    +0.114 C 
ATOM      5  N   UNL     1      -0.222   2.281  -0.320  0.00  0.00    -0.285 N 
ATOM      6  C   UNL     1       0.564   2.975   0.523  0.00  0.00    +0.310 C 
ATOM      7  O   UNL     1       0.143   3.604   1.475  0.00  0.00    -0.252 OA
ATOM      8  C   UNL     1       0.578   0.147  -1.270  0.00  0.00    +0.042 C 
ATOM      9  H   UNL     1      -1.307   2.112  -0.376  0.00  0.00    +0.151 HD
ENDROOT
BRANCH   1  10
ATOM     10  C   UNL     1       2.936   3.554   0.941  0.00  0.00    +0.214 C 
BRANCH  10  22
ATOM     11  C   UNL     1       4.908   3.814   2.129  0.00  0.00    +0.028 C 
ATOM     12  C   UNL     1       4.821   5.342   2.134  0.00  0.00    +0.079 C 
ATOM     13  C   UNL     1       6.222   5.945   1.934  0.00  0.00    +0.027 C 
ATOM     14  C   UNL     1       6.117   7.468   2.017  0.00  0.00    +0.039 C 
ATOM     15  C   UNL     1       5.041   7.973   1.093  0.00  0.00    -0.026 A 
ATOM     16  C   UNL     1       5.068   9.300   0.695  0.00  0.00    +0.005 A 
ATOM     17  C   UNL     1       4.090   9.796  -0.145  0.00  0.00    +0.000 A 
ATOM     18  C   UNL     1       3.077   8.969  -0.596  0.00  0.00    +0.002 A 
ATOM     19  C   UNL     1       3.044   7.646  -0.206  0.00  0.00    +0.024 A 
ATOM     20  C   UNL     1       4.028   7.144   0.638  0.00  0.00    +0.040 A 
ATOM     21  N   UNL     1       3.979   5.796   1.018  0.00  0.00    -0.267 N 
ATOM     22  C   UNL     1       3.169   4.931   0.375  0.00  0.00    +0.238 C 
ATOM     23  O   UNL     1       2.628   5.262  -0.659  0.00  0.00    -0.273 OA
ENDBRANCH  10  22
ENDBRANCH   1  10
BRANCH   4  24
ATOM     24  C   UNL     1       0.337   2.183  -2.726  0.00  0.00    +0.070 C 
BRANCH  24  25
ATOM     25  C   UNL     1      -1.098   1.858  -3.050  0.00  0.00    -0.041 A 
ATOM     26  C   UNL     1      -2.098   2.759  -2.735  0.00  0.00    +0.007 A 
ATOM     27  C   UNL     1      -3.416   2.465  -3.032  0.00  0.00    +0.050 A 
ATOM     28  C   UNL     1      -3.738   1.266  -3.645  0.00  0.00    +0.166 A 
ATOM     29  C   UNL     1      -2.731   0.358  -3.962  0.00  0.00    +0.166 A 
ATOM     30  C   UNL     1      -1.412   0.661  -3.667  0.00  0.00    +0.053 A 
ATOM     31  O   UNL     1      -3.298  -0.735  -4.553  0.00  0.00    -0.453 OA
ATOM     32  C   UNL     1      -4.698  -0.665  -4.224  0.00  0.00    +0.466 C 
ATOM     33  O   UNL     1      -4.936   0.742  -4.037  0.00  0.00    -0.453 OA
ENDBRANCH  24  25
ENDBRANCH   4  24
TORSDOF 4
