REMARK  Name = ZINC38556069
REMARK  6 active torsions:
REMARK  status: ('A' for Active; 'I' for Inactive)
REMARK    1  A    between atoms: C_1  and  O_2
REMARK    2  A    between atoms: O_2  and  C_3
REMARK    3  A    between atoms: C_3  and  C_5
REMARK    4  A    between atoms: C_7  and  N_16
REMARK    5  A    between atoms: C_17  and  C_19
REMARK    6  A    between atoms: C_19  and  N_20
REMARK                            x       y       z     vdW  Elec       q    Type
REMARK                         _______ _______ _______ _____ _____    ______ ____
ROOT
ATOM      1  N   UNL     1       1.731  -2.508   1.014  0.00  0.00    -0.288 N 
ATOM      2  C   UNL     1       2.806  -2.927   1.710  0.00  0.00    +0.200 C 
ATOM      3  O   UNL     1       3.781  -3.348   1.125  0.00  0.00    -0.278 OA
ATOM      4  H   UNL     1       0.984  -2.095   1.476  0.00  0.00    +0.155 HD
ENDROOT
BRANCH   1   6
ATOM      5  C   UNL     1       2.666  -3.442  -1.196  0.00  0.00    +0.234 C 
ATOM      6  C   UNL     1       1.692  -2.666  -0.339  0.00  0.00    +0.053 C 
ATOM      7  C   UNL     1       0.751  -2.149  -1.213  0.00  0.00    +0.019 A 
ATOM      8  C   UNL     1      -0.397  -1.345  -1.015  0.00  0.00    +0.031 A 
ATOM      9  C   UNL     1      -1.154  -0.979  -2.080  0.00  0.00    +0.042 A 
ATOM     10  C   UNL     1      -0.828  -1.376  -3.381  0.00  0.00    +0.022 A 
ATOM     11  C   UNL     1       0.255  -2.146  -3.644  0.00  0.00    +0.027 A 
ATOM     12  C   UNL     1       1.096  -2.569  -2.582  0.00  0.00    +0.045 A 
ATOM     13  N   UNL     1       2.190  -3.307  -2.576  0.00  0.00    -0.367 N 
ATOM     14 CL   UNL     1      -2.559   0.006  -1.822  0.00  0.00    -0.084 Cl
ATOM     15  H   UNL     1       2.611  -3.697  -3.358  0.00  0.00    +0.161 HD
BRANCH   5  16
ATOM     16  C   UNL     1       2.674  -4.893  -0.790  0.00  0.00    +0.335 C 
ATOM     17  O   UNL     1       1.948  -5.681  -1.349  0.00  0.00    -0.248 OA
BRANCH  16  19
ATOM     18  C   UNL     1       3.442  -6.699   0.527  0.00  0.00    +0.280 C 
ATOM     19  O   UNL     1       3.487  -5.310   0.193  0.00  0.00    -0.466 OA
ENDBRANCH  16  19
ENDBRANCH   5  16
ENDBRANCH   1   6
BRANCH   2  20
ATOM     20  C   UNL     1       2.797  -2.871   3.216  0.00  0.00    +0.019 C 
BRANCH  20  21
ATOM     21  N   UNL     1       4.075  -3.379   3.733  0.00  0.00    +0.386 N 
ATOM     22  C   UNL     1       4.116  -3.206   5.188  0.00  0.00    -0.073 C 
ATOM     23  C   UNL     1       5.424  -3.722   5.766  0.00  0.00    -0.007 C 
ATOM     24  C   UNL     1       5.644  -5.189   5.385  0.00  0.00    +0.011 C 
ATOM     25  C   UNL     1       5.595  -5.277   3.855  0.00  0.00    +0.020 C 
ATOM     26  C   UNL     1       4.206  -4.804   3.397  0.00  0.00    -0.069 C 
ATOM     27  C   UNL     1       6.625  -4.334   3.273  0.00  0.00    +0.023 A 
ATOM     28  C   UNL     1       7.162  -4.659   2.067  0.00  0.00    +0.022 A 
ATOM     29  C   UNL     1       8.072  -3.799   1.441  0.00  0.00    +0.007 A 
ATOM     30  C   UNL     1       8.391  -2.620   2.049  0.00  0.00    +0.070 A 
ATOM     31  C   UNL     1       7.815  -2.315   3.290  0.00  0.00    +0.251 A 
ATOM     32  O   UNL     1       8.044  -1.236   3.813  0.00  0.00    -0.268 OA
ATOM     33  N   UNL     1       7.006  -3.206   3.915  0.00  0.00    -0.312 N 
ATOM     34  C   UNL     1       6.614  -2.905   5.289  0.00  0.00    +0.126 C 
ATOM     35  H   UNL     1       4.835  -2.864   3.313  0.00  0.00    -0.081 HD
ENDBRANCH  20  21
ENDBRANCH   2  20
TORSDOF 5
