REMARK  Name = ZINC02667761
REMARK  10 active torsions:
REMARK  status: ('A' for Active; 'I' for Inactive)
REMARK    1  A    between atoms: C_1  and  C_2
REMARK    2  A    between atoms: C_2  and  O_3
REMARK    3  A    between atoms: O_3  and  C_4
REMARK    4  A    between atoms: C_4  and  C_6
REMARK    5  A    between atoms: C_7  and  C_34
REMARK    6  A    between atoms: C_11  and  C_20
REMARK    7  A    between atoms: C_12  and  O_19
REMARK    8  A    between atoms: C_20  and  C_22
REMARK    9  A    between atoms: C_20  and  N_65
REMARK   10  A    between atoms: C_25  and  C_28
REMARK                            x       y       z     vdW  Elec       q    Type
REMARK                         _______ _______ _______ _____ _____    ______ ____
ROOT
ATOM      1  C   UNL     1       5.335   3.310   3.604  0.00  0.00    +0.108 A 
ATOM      2  C   UNL     1       5.807   4.290   4.425  0.00  0.00    +0.117 A 
ATOM      3  O   UNL     1       5.257   5.460   4.087  0.00  0.00    -0.459 OA
ATOM      4  C   UNL     1       4.409   5.323   3.048  0.00  0.00    +0.144 A 
ATOM      5  C   UNL     1       4.400   3.980   2.678  0.00  0.00    +0.040 A 
ATOM      6  C   UNL     1       3.603   3.531   1.615  0.00  0.00    -0.003 A 
ATOM      7  C   UNL     1       2.823   4.401   0.916  0.00  0.00    +0.127 A 
ATOM      8  C   UNL     1       2.802   5.770   1.265  0.00  0.00    +0.027 A 
ATOM      9  C   UNL     1       3.601   6.236   2.337  0.00  0.00    +0.029 A 
ATOM     10  C   UNL     1       3.577   7.598   2.673  0.00  0.00    +0.012 A 
ATOM     11  C   UNL     1       2.786   8.454   1.968  0.00  0.00    +0.001 A 
ATOM     12  C   UNL     1       2.000   7.996   0.914  0.00  0.00    +0.001 A 
ATOM     13  C   UNL     1       2.000   6.681   0.560  0.00  0.00    +0.012 A 
ATOM     14  C   UNL     1       6.797   4.085   5.542  0.00  0.00    +0.087 C 
ENDROOT
BRANCH   1  15
ATOM     15  C   UNL     1       5.684   1.883   3.634  0.00  0.00    +0.343 C 
ATOM     16  O   UNL     1       6.621   1.472   2.977  0.00  0.00    -0.245 OA
BRANCH  15  17
ATOM     17  O   UNL     1       4.965   1.029   4.390  0.00  0.00    -0.461 OA
BRANCH  17  19
ATOM     18  C   UNL     1       4.442  -1.176   5.282  0.00  0.00    +0.048 C 
ATOM     19  C   UNL     1       5.367  -0.367   4.372  0.00  0.00    +0.229 C 
ENDBRANCH  17  19
ENDBRANCH  15  17
ENDBRANCH   1  15
BRANCH   7  20
ATOM     20  O   UNL     1       2.060   3.951  -0.115  0.00  0.00    -0.506 OA
ATOM     21  H   UNL     1       1.184   3.639   0.151  0.00  0.00    +0.292 HD
ENDBRANCH   7  20
BRANCH   6  22
ATOM     22  C   UNL     1       3.615   2.072   1.238  0.00  0.00    -0.002 C 
BRANCH  22  23
ATOM     23  C   UNL     1       4.360   1.894  -0.060  0.00  0.00    -0.057 A 
ATOM     24  C   UNL     1       3.695   2.039  -1.263  0.00  0.00    +0.002 A 
ATOM     25  C   UNL     1       4.380   1.881  -2.454  0.00  0.00    +0.003 A 
ATOM     26  C   UNL     1       5.726   1.568  -2.441  0.00  0.00    -0.050 A 
ATOM     27  C   UNL     1       6.389   1.417  -1.238  0.00  0.00    +0.003 A 
ATOM     28  C   UNL     1       5.706   1.581  -0.047  0.00  0.00    +0.002 A 
ATOM     29  C   UNL     1       6.471   1.390  -3.739  0.00  0.00    +0.044 C 
ENDBRANCH  22  23
BRANCH  22  35
ATOM     30  C   UNL     1       2.207   0.171   0.723  0.00  0.00    -0.078 C 
ATOM     31  C   UNL     1       0.767  -0.253   0.425  0.00  0.00    -0.019 C 
ATOM     32  C   UNL     1      -0.101  -0.000   1.661  0.00  0.00    -0.004 C 
ATOM     33  C   UNL     1      -0.016   1.481   2.040  0.00  0.00    -0.019 C 
ATOM     34  C   UNL     1       1.446   1.855   2.291  0.00  0.00    -0.078 C 
ATOM     35  N   UNL     1       2.223   1.611   1.057  0.00  0.00    +0.387 N 
ATOM     36  H   UNL     1       1.796   2.137   0.286  0.00  0.00    -0.080 HD
ENDBRANCH  22  35
ENDBRANCH   6  22
TORSDOF 7
