REMARK  Name = ZINC42957294
REMARK  6 active torsions:
REMARK  status: ('A' for Active; 'I' for Inactive)
REMARK    1  A    between atoms: C_1  and  C_2
REMARK    2  A    between atoms: C_2  and  N_9
REMARK    3  A    between atoms: N_9  and  N_10
REMARK    4  A    between atoms: N_13  and  C_14
REMARK    5  A    between atoms: C_14  and  C_15
REMARK    6  A    between atoms: C_15  and  C_16
REMARK                            x       y       z     vdW  Elec       q    Type
REMARK                         _______ _______ _______ _____ _____    ______ ____
ROOT
ATOM      1  N   UNL     1      -2.107  -0.036  -1.006  0.00  0.00    -0.234 N 
ATOM      2  C   UNL     1      -3.404  -0.376  -1.133  0.00  0.00    +0.313 C 
ATOM      3  O   UNL     1      -4.049   0.031  -2.081  0.00  0.00    -0.252 OA
ATOM      4  N   UNL     1      -3.988  -1.167  -0.211  0.00  0.00    -0.298 N 
ATOM      5  H   UNL     1      -1.687   0.533  -1.669  0.00  0.00    +0.171 HD
ATOM      6  H   UNL     1      -3.473  -1.491   0.545  0.00  0.00    +0.150 HD
ENDROOT
BRANCH   1   7
ATOM      7  N   UNL     1      -1.382  -0.492   0.059  0.00  0.00    -0.232 NA
ATOM      8  H   UNL     1      -1.821  -0.237   0.931  0.00  0.00    +0.145 HD
BRANCH   7  10
ATOM      9  C   UNL     1      -0.019   1.526   0.010  0.00  0.00    +0.031 C 
ATOM     10  C   UNL     1       0.002  -0.004   0.002  0.00  0.00    +0.054 C 
ATOM     11  C   UNL     1       0.632  -0.478  -1.307  0.00  0.00    +0.047 C 
ATOM     12  C   UNL     1       2.169  -0.637  -1.140  0.00  0.00    +0.168 C 
ATOM     13  S   UNL     1       2.220  -1.358   0.560  0.00  0.00    -0.029 S 
ATOM     14  O   UNL     1       1.951  -2.751   0.484  0.00  0.00    -0.174 OA
ATOM     15  O   UNL     1       3.390  -0.903   1.225  0.00  0.00    -0.174 OA
ATOM     16  C   UNL     1       0.751  -0.495   1.257  0.00  0.00    +0.189 C 
ENDBRANCH   7  10
ENDBRANCH   1   7
BRANCH   4  17
ATOM     17  C   UNL     1      -5.398  -1.536  -0.349  0.00  0.00    +0.110 C 
BRANCH  17  18
ATOM     18  C   UNL     1      -5.808  -2.432   0.821  0.00  0.00    +0.056 C 
BRANCH  18  19
ATOM     19  C   UNL     1      -7.260  -2.813   0.678  0.00  0.00    -0.021 A 
ATOM     20  C   UNL     1      -8.307  -2.192   1.243  0.00  0.00    +0.087 A 
ATOM     21  N   UNL     1      -9.469  -2.820   0.887  0.00  0.00    -0.360 N 
ATOM     22  H   UNL     1     -10.357  -2.553   1.173  0.00  0.00    +0.165 HD
ATOM     23  C   UNL     1      -9.191  -3.888   0.064  0.00  0.00    +0.047 A 
ATOM     24  C   UNL     1      -7.795  -3.926  -0.108  0.00  0.00    +0.003 A 
ATOM     25  C   UNL     1      -7.219  -4.914  -0.909  0.00  0.00    +0.010 A 
ATOM     26  C   UNL     1      -8.016  -5.837  -1.526  0.00  0.00    +0.001 A 
ATOM     27  C   UNL     1      -9.393  -5.801  -1.363  0.00  0.00    +0.002 A 
ATOM     28  C   UNL     1      -9.982  -4.841  -0.569  0.00  0.00    +0.026 A 
ENDBRANCH  18  19
ENDBRANCH  17  18
ENDBRANCH   4  17
TORSDOF 5
