REMARK  Name = ZINC10339240
REMARK  10 active torsions:
REMARK  status: ('A' for Active; 'I' for Inactive)
REMARK    1  A    between atoms: C_1  and  C_2
REMARK    2  A    between atoms: C_2  and  O_3
REMARK    3  A    between atoms: O_3  and  C_4
REMARK    4  A    between atoms: C_4  and  C_6
REMARK    5  A    between atoms: C_7  and  N_32
REMARK    6  A    between atoms: N_18  and  C_21
REMARK    7  A    between atoms: C_21  and  C_22
REMARK    8  A    between atoms: C_22  and  C_23
REMARK    9  A    between atoms: C_22  and  C_24
REMARK   10  A    between atoms: C_28  and  C_31
REMARK                            x       y       z     vdW  Elec       q    Type
REMARK                         _______ _______ _______ _____ _____    ______ ____
ROOT
ATOM      1  C   UNL     1      -0.316   2.340  -1.093  0.00  0.00    +0.117 C 
ATOM      2  C   UNL     1      -1.490   3.023  -1.035  0.00  0.00    +0.195 C 
ATOM      3  O   UNL     1      -2.188   3.115   0.106  0.00  0.00    -0.446 OA
ATOM      4  C   UNL     1      -1.579   2.915   1.290  0.00  0.00    +0.116 C 
ATOM      5  C   UNL     1      -0.420   2.236   1.377  0.00  0.00    +0.057 C 
ATOM      6  C   UNL     1       0.230   1.676   0.138  0.00  0.00    +0.141 C 
ATOM      7  C   UNL     1       0.057   0.191   0.070  0.00  0.00    -0.002 A 
ATOM      8  C   UNL     1      -1.073  -0.594  -0.009  0.00  0.00    +0.007 A 
ATOM      9  C   UNL     1      -0.883  -1.971  -0.057  0.00  0.00    +0.000 A 
ATOM     10  C   UNL     1       0.381  -2.523  -0.026  0.00  0.00    +0.002 A 
ATOM     11  C   UNL     1       1.522  -1.740   0.055  0.00  0.00    +0.024 A 
ATOM     12  C   UNL     1       1.345  -0.356   0.103  0.00  0.00    +0.041 A 
ATOM     13  N   UNL     1       2.293   0.648   0.185  0.00  0.00    -0.270 N 
ATOM     14  C   UNL     1       1.730   1.874   0.212  0.00  0.00    +0.240 C 
ATOM     15  O   UNL     1       2.314   2.934   0.282  0.00  0.00    -0.274 OA
ATOM     16  C   UNL     1       0.217   2.030   2.616  0.00  0.00    +0.164 C 
ATOM     17  O   UNL     1       1.251   1.393   2.657  0.00  0.00    -0.292 OA
ATOM     18  C   UNL     1      -0.361   2.583   3.890  0.00  0.00    +0.083 C 
ATOM     19  C   UNL     1      -1.170   3.842   3.560  0.00  0.00    +0.001 C 
ATOM     20  C   UNL     1      -2.239   3.474   2.529  0.00  0.00    +0.078 C 
ATOM     21  C   UNL     1      -1.837   4.372   4.831  0.00  0.00    +0.008 C 
ENDROOT
BRANCH   2  22
ATOM     22  N   UNL     1      -1.970   3.629  -2.166  0.00  0.00    -0.329 N 
ATOM     23  H   UNL     1      -1.513   3.507  -3.012  0.00  0.00    +0.145 HD
ATOM     24  H   UNL     1      -2.767   4.180  -2.119  0.00  0.00    +0.145 HD
ENDBRANCH   2  22
BRANCH   1  25
ATOM     25  C   UNL     1       0.387   2.255  -2.305  0.00  0.00    +0.342 C 
ATOM     26  O   UNL     1       0.377   1.218  -2.943  0.00  0.00    -0.245 OA
BRANCH  25  27
ATOM     27  O   UNL     1       1.073   3.324  -2.763  0.00  0.00    -0.462 OA
BRANCH  27  29
ATOM     28  C   UNL     1       2.501   4.456  -4.351  0.00  0.00    +0.048 C 
ATOM     29  C   UNL     1       1.669   3.206  -4.057  0.00  0.00    +0.229 C 
ENDBRANCH  27  29
ENDBRANCH  25  27
ENDBRANCH   1  25
BRANCH  13  30
ATOM     30  C   UNL     1       3.737   0.409   0.237  0.00  0.00    +0.116 C 
BRANCH  30  31
ATOM     31  C   UNL     1       4.279   0.245  -1.184  0.00  0.00    +0.001 C 
ATOM     32  C   UNL     1       4.130   1.566  -1.942  0.00  0.00    +0.009 C 
ATOM     33  C   UNL     1       5.756  -0.146  -1.125  0.00  0.00    +0.009 C 
ENDBRANCH  30  31
ENDBRANCH  13  30
TORSDOF 6
