REMARK  Name = ZINC02313659
REMARK  10 active torsions:
REMARK  status: ('A' for Active; 'I' for Inactive)
REMARK    1  A    between atoms: C_1  and  C_2
REMARK    2  A    between atoms: C_2  and  C_3
REMARK    3  A    between atoms: C_2  and  C_4
REMARK    4  A    between atoms: N_14  and  C_26
REMARK    5  A    between atoms: C_17  and  S_20
REMARK    6  A    between atoms: S_20  and  C_21
REMARK    7  A    between atoms: C_21  and  C_23
REMARK    8  A    between atoms: C_21  and  C_24
REMARK    9  A    between atoms: C_29  and  O_32
REMARK   10  A    between atoms: O_32  and  C_33
REMARK                            x       y       z     vdW  Elec       q    Type
REMARK                         _______ _______ _______ _____ _____    ______ ____
ROOT
ATOM      1  C   UNL     1       5.173   3.176  -2.386  0.00  0.00    +0.126 C 
ATOM      2  C   UNL     1       3.854   3.189  -1.605  0.00  0.00    +0.068 C 
ATOM      3  C   UNL     1       3.652   1.803  -1.004  0.00  0.00    -0.018 A 
ATOM      4  C   UNL     1       4.696   0.953  -0.904  0.00  0.00    +0.021 A 
ATOM      5  S   UNL     1       4.021  -0.505  -0.166  0.00  0.00    -0.072 S 
ATOM      6  C   UNL     1       2.384   0.011   0.005  0.00  0.00    +0.102 A 
ATOM      7  C   UNL     1       2.370   1.305  -0.509  0.00  0.00    +0.075 A 
ATOM      8  C   UNL     1       1.065   2.004  -0.487  0.00  0.00    +0.268 A 
ATOM      9  O   UNL     1       0.972   3.139  -0.918  0.00  0.00    -0.266 OA
ATOM     10  N   UNL     1      -0.017   1.382   0.010  0.00  0.00    -0.245 N 
ATOM     11  C   UNL     1       0.057   0.091   0.508  0.00  0.00    +0.245 A 
ATOM     12  N   UNL     1       1.249  -0.587   0.505  0.00  0.00    -0.249 N 
ATOM     13  C   UNL     1       1.028  -1.824   1.050  0.00  0.00    +0.199 A 
ATOM     14  N   UNL     1      -0.240  -1.906   1.373  0.00  0.00    -0.120 NA
ATOM     15  N   UNL     1      -0.854  -0.695   1.031  0.00  0.00    -0.109 NA
ATOM     16  C   UNL     1       6.103   1.228  -1.338  0.00  0.00    +0.203 C 
ATOM     17  O   UNL     1       6.221   2.640  -1.574  0.00  0.00    -0.371 OA
ENDROOT
BRANCH  10  18
ATOM     18  C   UNL     1      -1.248   2.050   0.019  0.00  0.00    +0.053 A 
ATOM     19  C   UNL     1      -2.104   1.946  -1.070  0.00  0.00    +0.030 A 
ATOM     20  C   UNL     1      -3.320   2.601  -1.058  0.00  0.00    +0.047 A 
ATOM     21  C   UNL     1      -3.681   3.372   0.037  0.00  0.00    +0.120 A 
ATOM     22  C   UNL     1      -2.825   3.481   1.123  0.00  0.00    +0.047 A 
ATOM     23  C   UNL     1      -1.611   2.822   1.115  0.00  0.00    +0.030 A 
BRANCH  21  24
ATOM     24  O   UNL     1      -4.876   4.020   0.046  0.00  0.00    -0.495 OA
ATOM     25  C   UNL     1      -5.708   3.864  -1.105  0.00  0.00    +0.277 C 
ENDBRANCH  21  24
ENDBRANCH  10  18
BRANCH   1  27
ATOM     26  C   UNL     1       6.838   4.597  -3.591  0.00  0.00    +0.010 C 
ATOM     27  C   UNL     1       5.530   4.606  -2.797  0.00  0.00    +0.012 C 
ATOM     28  C   UNL     1       4.410   5.182  -3.665  0.00  0.00    +0.010 C 
ENDBRANCH   1  27
BRANCH  13  29
ATOM     29  S   UNL     1       2.236  -3.086   1.276  0.00  0.00    -0.071 S 
BRANCH  29  30
ATOM     30  C   UNL     1       1.310  -4.450   2.034  0.00  0.00    +0.164 C 
ATOM     31  C   UNL     1       0.269  -4.972   1.042  0.00  0.00    +0.031 C 
BRANCH  30  32
ATOM     32  C   UNL     1       2.260  -5.562   2.396  0.00  0.00    +0.369 C 
ATOM     33  O   UNL     1       3.345  -5.627   1.867  0.00  0.00    -0.245 OA
ATOM     34  O   UNL     1       1.902  -6.481   3.307  0.00  0.00    -0.245 OA
ENDBRANCH  30  32
ENDBRANCH  29  30
ENDBRANCH  13  29
TORSDOF 6
