REMARK  Name = ZINC44874556
REMARK  11 active torsions:
REMARK  status: ('A' for Active; 'I' for Inactive)
REMARK    1  A    between atoms: C_1  and  C_2
REMARK    2  A    between atoms: C_6  and  N_8
REMARK    3  A    between atoms: N_8  and  C_9
REMARK    4  A    between atoms: N_8  and  S_33
REMARK    5  A    between atoms: C_9  and  C_10
REMARK    6  A    between atoms: C_13  and  C_16
REMARK    7  A    between atoms: N_18  and  C_19
REMARK    8  A    between atoms: C_19  and  C_20
REMARK    9  A    between atoms: C_23  and  C_26
REMARK   10  A    between atoms: C_26  and  N_27
REMARK   11  A    between atoms: S_33  and  C_36
REMARK                            x       y       z     vdW  Elec       q    Type
REMARK                         _______ _______ _______ _____ _____    ______ ____
ROOT
ATOM      1  C   UNL     1       2.232  -3.861   2.428  0.00  0.00    -0.028 A 
ATOM      2  C   UNL     1       2.906  -3.807   1.221  0.00  0.00    +0.006 A 
ATOM      3  C   UNL     1       4.269  -3.601   1.198  0.00  0.00    +0.013 A 
ATOM      4  C   UNL     1       4.969  -3.446   2.396  0.00  0.00    +0.037 A 
ATOM      5  C   UNL     1       4.283  -3.501   3.610  0.00  0.00    +0.013 A 
ATOM      6  C   UNL     1       2.918  -3.703   3.619  0.00  0.00    +0.006 A 
ENDROOT
BRANCH   4   7
ATOM      7  C   UNL     1       6.431  -3.224   2.378  0.00  0.00    +0.244 C 
ATOM      8  O   UNL     1       7.026  -3.177   1.319  0.00  0.00    -0.270 OA
ATOM      9  N   UNL     1       7.104  -3.075   3.537  0.00  0.00    -0.307 N 
ATOM     10  H   UNL     1       6.629  -3.113   4.382  0.00  0.00    +0.149 HD
BRANCH   9  11
ATOM     11  C   UNL     1       8.552  -2.856   3.519  0.00  0.00    +0.139 C 
BRANCH  11  12
ATOM     12  C   UNL     1       9.057  -2.722   4.933  0.00  0.00    -0.030 A 
ATOM     13  C   UNL     1       9.103  -1.479   5.535  0.00  0.00    +0.005 A 
ATOM     14  C   UNL     1       9.566  -1.356   6.832  0.00  0.00    +0.002 A 
ATOM     15  C   UNL     1       9.982  -2.477   7.527  0.00  0.00    -0.064 A 
ATOM     16  C   UNL     1       9.935  -3.720   6.925  0.00  0.00    +0.002 A 
ATOM     17  C   UNL     1       9.468  -3.843   5.629  0.00  0.00    +0.005 A 
BRANCH  15  18
ATOM     18  C   UNL     1      10.488  -2.342   8.940  0.00  0.00    -0.043 C 
BRANCH  18  19
ATOM     19  N   UNL     1       9.365  -2.481   9.877  0.00  0.00    +0.382 N 
ATOM     20  C   UNL     1       8.428  -1.367   9.683  0.00  0.00    -0.078 C 
ATOM     21  C   UNL     1       7.217  -1.550  10.600  0.00  0.00    -0.019 C 
ATOM     22  C   UNL     1       7.686  -1.577  12.058  0.00  0.00    -0.004 C 
ATOM     23  C   UNL     1       8.718  -2.695  12.231  0.00  0.00    -0.019 C 
ATOM     24  C   UNL     1       9.874  -2.470  11.254  0.00  0.00    -0.078 C 
ATOM     25  H   UNL     1       8.888  -3.353   9.703  0.00  0.00    -0.081 HD
ENDBRANCH  18  19
ENDBRANCH  15  18
ENDBRANCH  11  12
ENDBRANCH   9  11
ENDBRANCH   4   7
BRANCH   1  26
ATOM     26  C   UNL     1       0.742  -4.087   2.446  0.00  0.00    +0.166 C 
BRANCH  26  27
ATOM     27  N   UNL     1       0.051  -2.796   2.390  0.00  0.00    -0.203 N 
BRANCH  27  33
ATOM     28  C   UNL     1       0.692   1.020  -0.640  0.00  0.00    +0.044 C 
ATOM     29  C   UNL     1       0.107  -0.337  -0.339  0.00  0.00    -0.049 A 
ATOM     30  C   UNL     1      -0.671  -0.979  -1.286  0.00  0.00    +0.003 A 
ATOM     31  C   UNL     1      -1.209  -2.223  -1.014  0.00  0.00    +0.002 A 
ATOM     32  C   UNL     1      -0.972  -2.829   0.205  0.00  0.00    +0.025 A 
ATOM     33  C   UNL     1      -0.191  -2.187   1.157  0.00  0.00    +0.051 A 
ATOM     34  C   UNL     1       0.353  -0.939   0.879  0.00  0.00    +0.028 A 
ENDBRANCH  27  33
BRANCH  27  35
ATOM     35  S   UNL     1      -0.442  -2.060   3.789  0.00  0.00    +0.043 S 
ATOM     36  O   UNL     1       0.396  -2.604   4.800  0.00  0.00    -0.155 OA
ATOM     37  O   UNL     1      -0.415  -0.670   3.496  0.00  0.00    -0.155 OA
ATOM     38  C   UNL     1      -2.152  -2.615   4.030  0.00  0.00    +0.218 C 
ENDBRANCH  27  35
ENDBRANCH  26  27
ENDBRANCH   1  26
TORSDOF 9
