REMARK  Name = ZINC39769607
REMARK  4 active torsions:
REMARK  status: ('A' for Active; 'I' for Inactive)
REMARK    1  A    between atoms: C_4  and  C_7
REMARK    2  A    between atoms: C_9  and  C_20
REMARK    3  A    between atoms: N_22  and  N_23
REMARK    4  A    between atoms: C_24  and  C_25
REMARK                            x       y       z     vdW  Elec       q    Type
REMARK                         _______ _______ _______ _____ _____    ______ ____
ROOT
ATOM      1  C   UNL     1       3.711  -0.707  -0.038  0.00  0.00    +0.167 C 
ATOM      2  C   UNL     1       4.020  -1.245  -1.450  0.00  0.00    +0.243 C 
ATOM      3  N   UNL     1       4.074  -2.702  -1.271  0.00  0.00    -0.156 NA
ATOM      4  N   UNL     1       3.865  -3.015  -0.103  0.00  0.00    -0.076 NA
ATOM      5  N   UNL     1       3.632  -1.942   0.765  0.00  0.00    -0.173 N 
ATOM      6  C   UNL     1       3.373  -2.023   2.132  0.00  0.00    +0.228 A 
ATOM      7  C   UNL     1       3.302  -3.257   2.921  0.00  0.00    +0.204 A 
ATOM      8  N   UNL     1       3.042  -2.937   4.159  0.00  0.00    -0.032 NA
ATOM      9  O   UNL     1       2.934  -1.526   4.230  0.00  0.00    -0.239 OA
ATOM     10  N   UNL     1       3.158  -1.013   2.929  0.00  0.00    -0.030 NA
ATOM     11  N   UNL     1       3.482  -4.546   2.434  0.00  0.00    -0.338 N 
ATOM     12  H   UNL     1       3.673  -4.687   1.493  0.00  0.00    +0.144 HD
ATOM     13  H   UNL     1       3.416  -5.305   3.034  0.00  0.00    +0.144 HD
ENDROOT
BRANCH   1  17
ATOM     14  C   UNL     1      -0.017   1.378   0.010  0.00  0.00    +0.000 A 
ATOM     15  C   UNL     1       1.171   2.086   0.002  0.00  0.00    +0.000 A 
ATOM     16  C   UNL     1       2.377   1.411  -0.013  0.00  0.00    +0.005 A 
ATOM     17  C   UNL     1       2.396   0.029  -0.020  0.00  0.00    -0.022 A 
ATOM     18  C   UNL     1       1.208  -0.679  -0.012  0.00  0.00    +0.005 A 
ATOM     19  C   UNL     1       0.002  -0.004   0.002  0.00  0.00    +0.000 A 
ENDBRANCH   1  17
BRANCH   2  20
ATOM     20  C   UNL     1       5.346  -0.721  -1.937  0.00  0.00    +0.261 C 
ATOM     21  O   UNL     1       6.336  -1.420  -1.874  0.00  0.00    -0.272 OA
ATOM     22  N   UNL     1       5.433   0.525  -2.444  0.00  0.00    -0.205 N 
ATOM     23  H   UNL     1       4.642   1.085  -2.495  0.00  0.00    +0.177 HD
BRANCH  22  24
ATOM     24  N   UNL     1       6.666   1.013  -2.897  0.00  0.00    -0.189 NA
ATOM     25  C   UNL     1       6.749   2.197  -3.377  0.00  0.00    +0.149 C 
BRANCH  25  26
ATOM     26  C   UNL     1       8.075   2.721  -3.864  0.00  0.00    +0.219 C 
ATOM     27  N   UNL     1       9.130   1.730  -3.620  0.00  0.00    -0.359 N 
ATOM     28  C   UNL     1      10.004   2.277  -2.826  0.00  0.00    +0.060 A 
ATOM     29  C   UNL     1      11.259   1.792  -2.235  0.00  0.00    +0.027 A 
ATOM     30  C   UNL     1      11.973   2.604  -1.430  0.00  0.00    +0.002 A 
ATOM     31  C   UNL     1      11.566   3.915  -1.123  0.00  0.00    +0.002 A 
ATOM     32  C   UNL     1      10.433   4.458  -1.611  0.00  0.00    +0.027 A 
ATOM     33  C   UNL     1       9.574   3.665  -2.501  0.00  0.00    +0.060 A 
ATOM     34  N   UNL     1       8.451   3.921  -3.107  0.00  0.00    -0.359 N 
ATOM     35  H   UNL     1       9.168   0.831  -3.983  0.00  0.00    +0.162 HD
ATOM     36  H   UNL     1       7.954   4.753  -3.065  0.00  0.00    +0.162 HD
ENDBRANCH  25  26
ENDBRANCH  22  24
ENDBRANCH   2  20
TORSDOF 4
