REMARK  Name = ZINC39638243
REMARK  10 active torsions:
REMARK  status: ('A' for Active; 'I' for Inactive)
REMARK    1  A    between atoms: C_1  and  C_2
REMARK    2  A    between atoms: C_2  and  C_3
REMARK    3  A    between atoms: C_3  and  C_5
REMARK    4  A    between atoms: C_3  and  N_8
REMARK    5  A    between atoms: C_5  and  O_6
REMARK    6  A    between atoms: O_6  and  C_7
REMARK    7  A    between atoms: C_9  and  C_11
REMARK    8  A    between atoms: C_22  and  C_24
REMARK    9  A    between atoms: C_25  and  C_30
REMARK   10  A    between atoms: C_28  and  C_29
REMARK                            x       y       z     vdW  Elec       q    Type
REMARK                         _______ _______ _______ _____ _____    ______ ____
ROOT
ATOM      1  C   UNL     1      -0.633   1.488  -4.304  0.00  0.00    +0.100 C 
ATOM      2  C   UNL     1      -0.439   0.398  -5.382  0.00  0.00    +0.121 C 
ATOM      3  N   UNL     1      -0.355   1.145  -6.659  0.00  0.00    -0.296 N 
ATOM      4  C   UNL     1       0.440   2.352  -6.328  0.00  0.00    +0.115 C 
ATOM      5  C   UNL     1      -0.054   2.768  -4.928  0.00  0.00    -0.004 C 
ATOM      6  C   UNL     1       1.111   3.285  -4.090  0.00  0.00    -0.010 C 
ATOM      7  C   UNL     1       1.633   4.590  -4.699  0.00  0.00    -0.082 C 
ATOM      8  N   UNL     1       0.552   5.582  -4.733  0.00  0.00    +0.379 N 
ATOM      9  C   UNL     1      -0.525   5.118  -5.616  0.00  0.00    -0.082 C 
ATOM     10  C   UNL     1      -1.138   3.835  -5.047  0.00  0.00    -0.010 C 
ATOM     11  C   UNL     1      -0.883   0.804  -7.851  0.00  0.00    +0.252 C 
ATOM     12  O   UNL     1      -0.725   1.529  -8.815  0.00  0.00    -0.270 OA
ATOM     13  H   UNL     1       0.188   5.714  -3.801  0.00  0.00    -0.086 HD
ATOM     14  H   UNL     1       0.913   6.459  -5.077  0.00  0.00    -0.086 HD
ENDROOT
BRANCH  11  15
ATOM     15  C   UNL     1      -1.651  -0.446  -7.987  0.00  0.00    +0.101 A 
ATOM     16  C   UNL     1      -3.094  -0.608  -7.802  0.00  0.00    +0.093 A 
ATOM     17  N   UNL     1      -3.369  -1.862  -8.013  0.00  0.00    -0.083 NA
ATOM     18  O   UNL     1      -2.171  -2.542  -8.331  0.00  0.00    -0.359 OA
ATOM     19  C   UNL     1      -1.155  -1.675  -8.316  0.00  0.00    +0.147 A 
ATOM     20  C   UNL     1       0.288  -1.998  -8.607  0.00  0.00    +0.090 C 
ATOM     21  C   UNL     1      -4.076   0.474  -7.435  0.00  0.00    +0.070 C 
ENDBRANCH  11  15
BRANCH   1  23
ATOM     22  N   UNL     1      -0.283   1.605  -1.858  0.00  0.00    -0.310 N 
ATOM     23  C   UNL     1       0.122   1.127  -3.051  0.00  0.00    +0.218 C 
ATOM     24  O   UNL     1       1.096   0.406  -3.116  0.00  0.00    -0.275 OA
ATOM     25  H   UNL     1      -1.010   2.246  -1.814  0.00  0.00    +0.149 HD
BRANCH  22  26
ATOM     26  C   UNL     1       0.374   1.157  -0.627  0.00  0.00    +0.098 C 
BRANCH  26  28
ATOM     27  C   UNL     1       2.464   2.430  -1.130  0.00  0.00    +0.006 C 
ATOM     28  C   UNL     1       1.321   2.250  -0.129  0.00  0.00    +0.021 C 
ENDBRANCH  26  28
BRANCH  26  29
ATOM     29  C   UNL     1      -0.684   0.873   0.441  0.00  0.00    +0.181 C 
BRANCH  29  30
ATOM     30  O   UNL     1      -1.349   2.089   0.788  0.00  0.00    -0.381 OA
ATOM     31  C   UNL     1      -2.362   1.933   1.784  0.00  0.00    +0.194 C 
ENDBRANCH  29  30
ENDBRANCH  26  29
ENDBRANCH  22  26
ENDBRANCH   1  23
TORSDOF 6
