REMARK  Name = ZINC52000269
REMARK  3 active torsions:
REMARK  status: ('A' for Active; 'I' for Inactive)
REMARK    1  A    between atoms: C_6  and  N_7
REMARK    2  A    between atoms: N_8  and  C_9
REMARK    3  A    between atoms: C_15  and  O_17
REMARK                            x       y       z     vdW  Elec       q    Type
REMARK                         _______ _______ _______ _____ _____    ______ ____
ROOT
ATOM      1  C   UNL     1      -0.017   1.384   0.010  0.00  0.00    +0.043 A 
ATOM      2  C   UNL     1       1.196   2.062   0.002  0.00  0.00    +0.038 A 
ATOM      3  C   UNL     1       2.374   1.343  -0.013  0.00  0.00    +0.128 A 
ATOM      4  N   UNL     1       2.364   0.022  -0.020  0.00  0.00    -0.238 NA
ATOM      5  C   UNL     1       1.234  -0.664  -0.013  0.00  0.00    +0.140 A 
ATOM      6  C   UNL     1       0.002  -0.004   0.002  0.00  0.00    +0.066 A 
ATOM      7  N   UNL     1       1.271  -2.057  -0.021  0.00  0.00    -0.322 N 
ATOM      8 BR   UNL     1       1.232   3.953   0.011  0.00  0.00    -0.049 Br
ATOM      9  H   UNL     1       0.444  -2.564  -0.016  0.00  0.00    +0.148 HD
ENDROOT
BRANCH   7  10
ATOM     10  C   UNL     1       2.558  -2.756  -0.037  0.00  0.00    +0.100 C 
ATOM     11  C   UNL     1       3.080  -2.896   1.394  0.00  0.00    +0.025 C 
ATOM     12  C   UNL     1       4.425  -3.625   1.377  0.00  0.00    +0.002 C 
ATOM     13  C   UNL     1       4.245  -5.014   0.762  0.00  0.00    +0.003 C 
ATOM     14  C   UNL     1       3.723  -4.874  -0.669  0.00  0.00    +0.033 C 
ATOM     15  C   UNL     1       2.378  -4.145  -0.653  0.00  0.00    +0.135 C 
BRANCH  15  16
ATOM     16  O   UNL     1       1.890  -4.014  -1.989  0.00  0.00    -0.390 OA
ATOM     17  H   UNL     1       1.752  -4.857  -2.442  0.00  0.00    +0.210 HD
ENDBRANCH  15  16
ENDBRANCH   7  10
BRANCH   6  18
ATOM     18  N   UNL     1      -1.194  -0.731   0.009  0.00  0.00    -0.355 N 
ATOM     19  H   UNL     1      -2.045  -0.265   0.020  0.00  0.00    +0.142 HD
ATOM     20  H   UNL     1      -1.173  -1.701   0.004  0.00  0.00    +0.142 HD
ENDBRANCH   6  18
TORSDOF 3
