REMARK  Name = ZINC64050344
REMARK  10 active torsions:
REMARK  status: ('A' for Active; 'I' for Inactive)
REMARK    1  A    between atoms: C_1  and  C_2
REMARK    2  A    between atoms: C_5  and  C_8
REMARK    3  A    between atoms: C_8  and  C_10
REMARK    4  A    between atoms: C_8  and  N_33
REMARK    5  A    between atoms: C_10  and  C_11
REMARK    6  A    between atoms: N_13  and  C_14
REMARK    7  A    between atoms: C_14  and  C_15
REMARK    8  A    between atoms: C_15  and  C_17
REMARK    9  A    between atoms: C_15  and  C_24
REMARK   10  A    between atoms: C_34  and  C_36
REMARK                            x       y       z     vdW  Elec       q    Type
REMARK                         _______ _______ _______ _____ _____    ______ ____
ROOT
ATOM      1  C   UNL     1       3.062  -8.149   0.232  0.00  0.00    +0.116 C 
ENDROOT
BRANCH   1   4
ATOM      2  C   UNL     1       1.690  -6.138   0.127  0.00  0.00    +0.215 C 
ATOM      3  O   UNL     1       0.719  -6.845  -0.042  0.00  0.00    -0.276 OA
ATOM      4  N   UNL     1       2.909  -6.692   0.275  0.00  0.00    -0.314 N 
ATOM      5  H   UNL     1       3.686  -6.127   0.409  0.00  0.00    +0.149 HD
BRANCH   2   6
ATOM      6  C   UNL     1       1.533  -4.640   0.171  0.00  0.00    +0.122 C 
BRANCH   6   7
ATOM      7  C   UNL     1       0.059  -4.275  -0.021  0.00  0.00    +0.112 C 
BRANCH   7  12
ATOM      8  C   UNL     1      -0.484   1.470  -0.325  0.00  0.00    +0.044 C 
ATOM      9  C   UNL     1      -0.342  -0.029  -0.245  0.00  0.00    -0.050 A 
ATOM     10  C   UNL     1      -0.387  -0.789  -1.399  0.00  0.00    +0.004 A 
ATOM     11  C   UNL     1      -0.257  -2.163  -1.327  0.00  0.00    +0.006 A 
ATOM     12  C   UNL     1      -0.081  -2.777  -0.101  0.00  0.00    -0.027 A 
ATOM     13  C   UNL     1      -0.035  -2.017   1.053  0.00  0.00    +0.006 A 
ATOM     14  C   UNL     1      -0.161  -0.642   0.980  0.00  0.00    +0.004 A 
ENDBRANCH   7  12
BRANCH   7  15
ATOM     15  N   UNL     1      -0.720  -4.780   1.112  0.00  0.00    -0.308 N 
ATOM     16  C   UNL     1      -2.038  -5.021   0.969  0.00  0.00    +0.210 C 
ATOM     17  O   UNL     1      -2.561  -4.907  -0.120  0.00  0.00    -0.276 OA
ATOM     18  C   UNL     1      -2.863  -5.432   2.161  0.00  0.00    +0.109 C 
ATOM     19  H   UNL     1      -0.287  -4.941   1.965  0.00  0.00    +0.149 HD
ENDBRANCH   7  15
ENDBRANCH   6   7
ENDBRANCH   2   6
ENDBRANCH   1   4
BRANCH   1  20
ATOM     20  C   UNL     1       4.535  -8.513   0.424  0.00  0.00    +0.066 C 
BRANCH  20  21
ATOM     21  C   UNL     1       4.711 -10.001   0.258  0.00  0.00    -0.033 C 
ATOM     22  C   UNL     1       5.489 -10.631  -0.651  0.00  0.00    -0.000 A 
ATOM     23  C   UNL     1       6.369 -10.140  -1.717  0.00  0.00    +0.010 A 
ATOM     24  C   UNL     1       7.033 -11.035  -2.484  0.00  0.00    +0.001 A 
ATOM     25  C   UNL     1       6.901 -12.416  -2.286  0.00  0.00    +0.002 A 
ATOM     26  C   UNL     1       6.111 -12.943  -1.327  0.00  0.00    +0.026 A 
ATOM     27  C   UNL     1       5.367 -12.095  -0.462  0.00  0.00    +0.043 A 
ATOM     28  N   UNL     1       4.546 -12.358   0.525  0.00  0.00    -0.380 N 
ATOM     29  C   UNL     1       4.058 -11.090   1.079  0.00  0.00    +0.145 C 
ATOM     30  H   UNL     1       4.304 -13.243   0.840  0.00  0.00    +0.160 HD
ENDBRANCH  20  21
BRANCH  20  31
ATOM     31  C   UNL     1       4.977  -8.106   1.806  0.00  0.00    -0.020 A 
ATOM     32  C   UNL     1       4.357  -8.646   2.917  0.00  0.00    +0.006 A 
ATOM     33  C   UNL     1       4.762  -8.273   4.185  0.00  0.00    +0.000 A 
ATOM     34  C   UNL     1       5.788  -7.360   4.343  0.00  0.00    +0.001 A 
ATOM     35  C   UNL     1       6.409  -6.819   3.233  0.00  0.00    +0.020 A 
ATOM     36  C   UNL     1       6.008  -7.196   1.964  0.00  0.00    +0.045 A 
ATOM     37 CL   UNL     1       6.791  -6.523   0.569  0.00  0.00    -0.083 Cl
ENDBRANCH  20  31
ENDBRANCH   1  20
TORSDOF 8
