REMARK  Name = ZINC39687646
REMARK  6 active torsions:
REMARK  status: ('A' for Active; 'I' for Inactive)
REMARK    1  A    between atoms: C_1  and  C_2
REMARK    2  A    between atoms: C_7  and  N_8
REMARK    3  A    between atoms: C_11  and  N_14
REMARK    4  A    between atoms: C_15  and  C_17
REMARK    5  A    between atoms: C_28  and  C_30
REMARK    6  A    between atoms: N_34  and  C_35
REMARK                            x       y       z     vdW  Elec       q    Type
REMARK                         _______ _______ _______ _____ _____    ______ ____
ROOT
ATOM      1  C   UNL     1       2.533   2.731   8.732  0.00  0.00    +0.100 C 
ATOM      2  C   UNL     1       3.904   2.134   8.343  0.00  0.00    +0.121 C 
ATOM      3  N   UNL     1       4.484   1.663   9.623  0.00  0.00    -0.295 N 
ATOM      4  C   UNL     1       3.333   1.085  10.359  0.00  0.00    +0.115 C 
ATOM      5  C   UNL     1       2.162   2.040  10.055  0.00  0.00    -0.004 C 
ATOM      6  C   UNL     1       0.867   1.250   9.893  0.00  0.00    -0.010 C 
ATOM      7  C   UNL     1       0.487   0.620  11.236  0.00  0.00    -0.082 C 
ATOM      8  N   UNL     1       0.318   1.675  12.242  0.00  0.00    +0.379 N 
ATOM      9  C   UNL     1       1.593   2.369  12.460  0.00  0.00    -0.082 C 
ATOM     10  C   UNL     1       2.019   3.073  11.168  0.00  0.00    -0.010 C 
ATOM     11  C   UNL     1       5.767   1.743  10.028  0.00  0.00    +0.263 C 
ATOM     12  O   UNL     1       6.068   1.424  11.163  0.00  0.00    -0.268 OA
ATOM     13  H   UNL     1      -0.374   2.336  11.922  0.00  0.00    -0.086 HD
ATOM     14  H   UNL     1       0.008   1.263  13.110  0.00  0.00    -0.086 HD
ENDROOT
BRANCH  11  15
ATOM     15  C   UNL     1       6.801   2.215   9.100  0.00  0.00    +0.104 A 
ATOM     16  C   UNL     1       6.637   2.455   7.752  0.00  0.00    +0.032 A 
ATOM     17  C   UNL     1       7.872   2.889   7.260  0.00  0.00    +0.020 A 
ATOM     18  C   UNL     1       8.748   2.906   8.293  0.00  0.00    +0.086 A 
ATOM     19  N   UNL     1       8.108   2.503   9.417  0.00  0.00    -0.346 N 
ATOM     20  C   UNL     1       8.709   2.391  10.749  0.00  0.00    +0.149 C 
ENDBRANCH  11  15
BRANCH   1  22
ATOM     21  N   UNL     1       0.439   3.229   7.513  0.00  0.00    -0.312 N 
ATOM     22  C   UNL     1       1.507   2.422   7.672  0.00  0.00    +0.218 C 
ATOM     23  O   UNL     1       1.642   1.448   6.963  0.00  0.00    -0.275 OA
ATOM     24  H   UNL     1       0.331   4.008   8.080  0.00  0.00    +0.149 HD
BRANCH  21  28
ATOM     25  N   UNL     1      -2.452   3.631   4.502  0.00  0.00    -0.316 N 
ATOM     26  C   UNL     1      -2.950   3.203   5.816  0.00  0.00    +0.108 C 
ATOM     27  C   UNL     1      -1.901   3.547   6.878  0.00  0.00    +0.041 C 
ATOM     28  C   UNL     1      -0.558   2.929   6.483  0.00  0.00    +0.076 C 
ATOM     29  C   UNL     1      -0.101   3.512   5.144  0.00  0.00    +0.041 C 
ATOM     30  C   UNL     1      -1.131   3.162   4.060  0.00  0.00    +0.108 C 
BRANCH  25  37
ATOM     31  C   UNL     1      -4.370   2.413   2.791  0.00  0.00    +0.047 C 
ATOM     32  C   UNL     1      -4.167   3.905   2.839  0.00  0.00    -0.012 A 
ATOM     33  C   UNL     1      -4.926   4.742   2.041  0.00  0.00    +0.008 A 
ATOM     34  C   UNL     1      -4.704   6.111   2.117  0.00  0.00    +0.018 A 
ATOM     35  C   UNL     1      -3.741   6.593   2.980  0.00  0.00    +0.084 A 
ATOM     36  N   UNL     1      -3.032   5.771   3.730  0.00  0.00    -0.349 N 
ATOM     37  C   UNL     1      -3.217   4.460   3.690  0.00  0.00    +0.102 A 
ATOM     38  H   UNL     1      -2.361   6.136   4.328  0.00  0.00    +0.167 HD
ENDBRANCH  25  37
ENDBRANCH  21  28
ENDBRANCH   1  22
TORSDOF 4
