REMARK  Name = ZINC06198200
REMARK  10 active torsions:
REMARK  status: ('A' for Active; 'I' for Inactive)
REMARK    1  A    between atoms: C_1  and  C_2
REMARK    2  A    between atoms: C_2  and  C_3
REMARK    3  A    between atoms: C_10  and  C_15
REMARK    4  A    between atoms: C_15  and  C_17
REMARK    5  A    between atoms: C_15  and  N_70
REMARK    6  A    between atoms: N_21  and  C_22
REMARK    7  A    between atoms: C_27  and  C_28
REMARK    8  A    between atoms: C_27  and  N_70
REMARK    9  A    between atoms: C_34  and  C_35
REMARK   10  A    between atoms: C_34  and  N_70
REMARK                            x       y       z     vdW  Elec       q    Type
REMARK                         _______ _______ _______ _____ _____    ______ ____
ROOT
ATOM      1  C   UNL     1       3.074  -0.531  -0.355  0.00  0.00    +0.040 C 
ENDROOT
BRANCH   1   9
ATOM      2  C   UNL     1       5.968   0.336  -5.755  0.00  0.00    -0.047 A 
ATOM      3  C   UNL     1       6.155  -1.008  -6.050  0.00  0.00    +0.005 A 
ATOM      4  C   UNL     1       5.709  -1.986  -5.186  0.00  0.00    +0.026 A 
ATOM      5  C   UNL     1       5.065  -1.624  -4.007  0.00  0.00    +0.049 A 
ATOM      6  C   UNL     1       4.878  -0.261  -3.712  0.00  0.00    -0.001 A 
ATOM      7  C   UNL     1       5.339   0.714  -4.604  0.00  0.00    +0.013 A 
ATOM      8  C   UNL     1       4.200   0.110  -2.469  0.00  0.00    +0.017 A 
ATOM      9  C   UNL     1       3.776  -0.878  -1.643  0.00  0.00    +0.011 A 
ATOM     10  C   UNL     1       3.993  -2.231  -1.983  0.00  0.00    +0.251 A 
ATOM     11  O   UNL     1       3.608  -3.103  -1.224  0.00  0.00    -0.268 OA
ATOM     12  N   UNL     1       4.610  -2.581  -3.125  0.00  0.00    -0.322 N 
ATOM     13  H   UNL     1       4.740  -3.549  -3.338  0.00  0.00    +0.169 HD
BRANCH   2  15
ATOM     14  C   UNL     1       7.902   1.768  -6.356  0.00  0.00    +0.009 C 
ATOM     15  C   UNL     1       6.465   1.386  -6.715  0.00  0.00    +0.032 C 
ENDBRANCH   2  15
ENDBRANCH   1   9
BRANCH   1  16
ATOM     16  C   UNL     1       3.073   0.965  -0.172  0.00  0.00    +0.143 A 
ATOM     17  N   UNL     1       4.089   1.710   0.187  0.00  0.00    -0.115 NA
ATOM     18  N   UNL     1       3.688   2.934   0.233  0.00  0.00    -0.023 NA
ATOM     19  N   UNL     1       2.444   2.989  -0.092  0.00  0.00    -0.044 NA
ATOM     20  N   UNL     1       2.026   1.794  -0.343  0.00  0.00    -0.227 N 
BRANCH  20  21
ATOM     21  C   UNL     1       0.670   1.413  -0.746  0.00  0.00    +0.111 C 
ATOM     22  C   UNL     1      -0.345   1.867   0.323  0.00  0.00    +0.027 C 
ATOM     23  C   UNL     1      -0.865   3.229  -0.204  0.00  0.00    +0.002 C 
ATOM     24  C   UNL     1      -0.950   2.996  -1.732  0.00  0.00    +0.002 C 
ATOM     25  C   UNL     1       0.287   2.130  -2.052  0.00  0.00    +0.027 C 
ENDBRANCH  20  21
ENDBRANCH   1  16
BRANCH   1  26
ATOM     26  N   UNL     1       3.779  -1.190   0.765  0.00  0.00    +0.395 N 
ATOM     27  H   UNL     1       3.845  -2.196   0.571  0.00  0.00    -0.079 HD
BRANCH  26  28
ATOM     28  C   UNL     1       3.026  -0.991   2.021  0.00  0.00    -0.041 C 
BRANCH  28  29
ATOM     29  C   UNL     1       1.839  -1.919   2.026  0.00  0.00    -0.064 A 
ATOM     30  C   UNL     1       0.600  -1.459   1.621  0.00  0.00    +0.002 A 
ATOM     31  C   UNL     1      -0.488  -2.312   1.621  0.00  0.00    +0.000 A 
ATOM     32  C   UNL     1      -0.339  -3.622   2.034  0.00  0.00    +0.000 A 
ATOM     33  C   UNL     1       0.899  -4.081   2.444  0.00  0.00    +0.000 A 
ATOM     34  C   UNL     1       1.988  -3.230   2.439  0.00  0.00    +0.002 A 
ENDBRANCH  28  29
ENDBRANCH  26  28
BRANCH  26  35
ATOM     35  C   UNL     1       5.142  -0.636   0.899  0.00  0.00    -0.034 C 
BRANCH  35  36
ATOM     36  C   UNL     1       5.950  -1.549   1.785  0.00  0.00    -0.027 A 
ATOM     37  C   UNL     1       6.713  -2.616   1.441  0.00  0.00    +0.009 A 
ATOM     38  C   UNL     1       7.374  -3.315   2.434  0.00  0.00    +0.008 A 
ATOM     39  C   UNL     1       7.240  -2.913   3.721  0.00  0.00    +0.045 A 
ATOM     40  S   UNL     1       6.158  -1.503   3.557  0.00  0.00    -0.103 S 
ENDBRANCH  35  36
ENDBRANCH  26  35
ENDBRANCH   1  26
TORSDOF 9
