REMARK  Name = ZINC10036630
REMARK  12 active torsions:
REMARK  status: ('A' for Active; 'I' for Inactive)
REMARK    1  A    between atoms: C_1  and  C_2
REMARK    2  A    between atoms: C_2  and  N_3
REMARK    3  A    between atoms: C_6  and  C_19
REMARK    4  A    between atoms: C_7  and  N_18
REMARK    5  A    between atoms: N_8  and  C_11
REMARK    6  A    between atoms: C_11  and  C_12
REMARK    7  A    between atoms: C_19  and  C_21
REMARK    8  A    between atoms: C_21  and  S_22
REMARK    9  A    between atoms: S_22  and  C_23
REMARK   10  A    between atoms: N_27  and  C_28
REMARK   11  A    between atoms: C_31  and  C_35
REMARK   12  A    between atoms: C_33  and  C_34
REMARK                            x       y       z     vdW  Elec       q    Type
REMARK                         _______ _______ _______ _____ _____    ______ ____
ROOT
ATOM      1  N   UNL     1      -4.652   6.910  -5.631  0.00  0.00    -0.260 N 
ATOM      2  C   UNL     1      -3.914   6.082  -4.863  0.00  0.00    +0.269 A 
ATOM      3  O   UNL     1      -4.353   5.653  -3.812  0.00  0.00    -0.267 OA
ATOM      4  C   UNL     1      -2.567   5.715  -5.319  0.00  0.00    +0.121 A 
ATOM      5  C   UNL     1      -2.122   6.240  -6.545  0.00  0.00    +0.116 A 
ATOM      6  N   UNL     1      -2.951   7.065  -7.250  0.00  0.00    -0.277 N 
ATOM      7  C   UNL     1      -4.174   7.381  -6.794  0.00  0.00    +0.334 A 
ATOM      8  O   UNL     1      -4.873   8.120  -7.459  0.00  0.00    -0.246 OA
ENDROOT
BRANCH   5   9
ATOM      9  N   UNL     1      -0.886   5.930  -7.022  0.00  0.00    -0.344 N 
ATOM     10  H   UNL     1      -0.336   5.279  -6.558  0.00  0.00    +0.144 HD
ATOM     11  H   UNL     1      -0.555   6.360  -7.826  0.00  0.00    +0.144 HD
ENDBRANCH   5   9
BRANCH   1  13
ATOM     12  C   UNL     1      -7.016   6.288  -5.730  0.00  0.00    +0.027 C 
ATOM     13  C   UNL     1      -5.997   7.295  -5.194  0.00  0.00    +0.126 C 
ENDBRANCH   1  13
BRANCH   4  14
ATOM     14  C   UNL     1      -1.748   4.857  -4.554  0.00  0.00    +0.182 C 
ATOM     15  O   UNL     1      -0.685   4.476  -5.000  0.00  0.00    -0.291 OA
BRANCH  14  16
ATOM     16  C   UNL     1      -2.193   4.415  -3.183  0.00  0.00    +0.157 C 
BRANCH  16  17
ATOM     17  S   UNL     1      -0.937   3.330  -2.462  0.00  0.00    -0.078 S 
BRANCH  17  18
ATOM     18  C   UNL     1      -1.694   2.975  -0.911  0.00  0.00    +0.196 A 
ATOM     19  N   UNL     1      -2.853   3.422  -0.487  0.00  0.00    -0.122 NA
ATOM     20  N   UNL     1      -3.095   2.963   0.689  0.00  0.00    -0.137 NA
ATOM     21  C   UNL     1      -2.118   2.197   1.082  0.00  0.00    +0.230 A 
ATOM     22  N   UNL     1      -1.185   2.180   0.079  0.00  0.00    -0.277 N 
BRANCH  22  23
ATOM     23  C   UNL     1       0.035   1.488   0.068  0.00  0.00    +0.053 A 
ATOM     24  C   UNL     1       0.048   0.100   0.088  0.00  0.00    +0.027 A 
ATOM     25  C   UNL     1       1.250  -0.579   0.071  0.00  0.00    +0.005 A 
ATOM     26  C   UNL     1       2.441   0.123   0.034  0.00  0.00    -0.050 A 
ATOM     27  C   UNL     1       2.432   1.505   0.015  0.00  0.00    +0.008 A 
ATOM     28  C   UNL     1       1.232   2.190   0.032  0.00  0.00    -0.026 A 
ATOM     29  C   UNL     1       1.223   3.697   0.010  0.00  0.00    +0.046 C 
ATOM     30  C   UNL     1       3.752  -0.621   0.015  0.00  0.00    +0.044 C 
ENDBRANCH  22  23
ENDBRANCH  17  18
ENDBRANCH  16  17
ENDBRANCH  14  16
ENDBRANCH   4  14
BRANCH   6  31
ATOM     31  C   UNL     1      -2.497   7.618  -8.528  0.00  0.00    +0.163 C 
BRANCH  31  32
ATOM     32  C   UNL     1      -2.883   6.683  -9.645  0.00  0.00    -0.028 A 
ATOM     33  C   UNL     1      -2.016   5.682 -10.040  0.00  0.00    +0.005 A 
ATOM     34  C   UNL     1      -2.373   4.822 -11.061  0.00  0.00    +0.000 A 
ATOM     35  C   UNL     1      -3.592   4.969 -11.695  0.00  0.00    +0.000 A 
ATOM     36  C   UNL     1      -4.457   5.974 -11.304  0.00  0.00    +0.000 A 
ATOM     37  C   UNL     1      -4.103   6.831 -10.279  0.00  0.00    +0.005 A 
ENDBRANCH  31  32
ENDBRANCH   6  31
TORSDOF 9
