REMARK  Name = ZINC12151464
REMARK  7 active torsions:
REMARK  status: ('A' for Active; 'I' for Inactive)
REMARK    1  A    between atoms: C_1  and  C_2
REMARK    2  A    between atoms: C_6  and  C_10
REMARK    3  A    between atoms: C_10  and  N_11
REMARK    4  A    between atoms: C_12  and  C_14
REMARK    5  A    between atoms: C_17  and  C_22
REMARK    6  A    between atoms: C_22  and  N_53
REMARK    7  A    between atoms: C_25  and  C_28
REMARK                            x       y       z     vdW  Elec       q    Type
REMARK                         _______ _______ _______ _____ _____    ______ ____
ROOT
ATOM      1  C   UNL     1      -1.885   6.709  -4.527  0.00  0.00    +0.101 A 
ATOM      2  C   UNL     1      -2.114   7.130  -3.219  0.00  0.00    +0.020 A 
ATOM      3  C   UNL     1      -1.240   6.715  -2.214  0.00  0.00    +0.020 A 
ATOM      4  C   UNL     1      -0.181   5.922  -2.517  0.00  0.00    +0.003 A 
ATOM      5  N   UNL     1       0.047   5.509  -3.786  0.00  0.00    -0.327 N 
ATOM      6  H   UNL     1       0.810   4.940  -3.973  0.00  0.00    +0.169 HD
ATOM      7  C   UNL     1      -0.768   5.877  -4.793  0.00  0.00    +0.261 A 
ATOM      8  O   UNL     1      -0.546   5.495  -5.929  0.00  0.00    -0.267 OA
ENDROOT
BRANCH   1  10
ATOM      9  N   UNL     1      -2.491   6.806  -6.891  0.00  0.00    -0.306 N 
ATOM     10  C   UNL     1      -2.787   7.120  -5.614  0.00  0.00    +0.250 C 
ATOM     11  O   UNL     1      -3.800   7.745  -5.360  0.00  0.00    -0.270 OA
ATOM     12  H   UNL     1      -1.724   6.246  -7.087  0.00  0.00    +0.149 HD
BRANCH   9  13
ATOM     13  C   UNL     1      -3.329   7.310  -7.982  0.00  0.00    +0.161 C 
BRANCH  13  19
ATOM     14  C   UNL     1      -1.199   4.247 -14.445  0.00  0.00    +0.053 C 
ATOM     15  C   UNL     1      -1.465   5.029 -13.184  0.00  0.00    +0.007 A 
ATOM     16  C   UNL     1      -2.348   4.787 -12.217  0.00  0.00    +0.103 A 
ATOM     17  N   UNL     1      -2.449   5.624 -11.127  0.00  0.00    -0.300 N 
ATOM     18  C   UNL     1      -3.201   5.723  -9.959  0.00  0.00    +0.118 A 
ATOM     19  C   UNL     1      -2.787   6.818  -9.299  0.00  0.00    +0.078 A 
ATOM     20  N   UNL     1      -1.813   7.402 -10.015  0.00  0.00    -0.225 NA
ATOM     21  C   UNL     1      -1.604   6.701 -11.093  0.00  0.00    +0.178 A 
ATOM     22  S   UNL     1      -0.677   6.521 -12.598  0.00  0.00    -0.055 S 
ENDBRANCH  13  19
ENDBRANCH   9  13
ENDBRANCH   1  10
BRANCH   4  23
ATOM     23  C   UNL     1       0.756   5.488  -1.419  0.00  0.00    -0.025 C 
BRANCH  23  30
ATOM     24  C   UNL     1       1.383   3.600  -0.039  0.00  0.00    -0.078 C 
ATOM     25  C   UNL     1       1.396   2.071   0.028  0.00  0.00    -0.016 C 
ATOM     26  C   UNL     1      -0.045   1.554   0.051  0.00  0.00    -0.018 C 
ATOM     27  C   UNL     1      -0.779   2.057  -1.195  0.00  0.00    -0.016 C 
ATOM     28  C   UNL     1      -0.730   3.587  -1.227  0.00  0.00    -0.078 C 
ATOM     29  C   UNL     1      -0.038   0.024   0.057  0.00  0.00    +0.007 C 
ATOM     30  N   UNL     1       0.683   4.020  -1.272  0.00  0.00    +0.383 N 
ATOM     31  H   UNL     1       1.140   3.581  -2.080  0.00  0.00    -0.081 HD
ENDBRANCH  23  30
ENDBRANCH   4  23
TORSDOF 5
