REMARK  Name = ZINC45245911
REMARK  4 active torsions:
REMARK  status: ('A' for Active; 'I' for Inactive)
REMARK    1  A    between atoms: C_3  and  C_10
REMARK    2  A    between atoms: C_5  and  O_7
REMARK    3  A    between atoms: O_7  and  C_8
REMARK    4  A    between atoms: C_17  and  C_19
REMARK                            x       y       z     vdW  Elec       q    Type
REMARK                         _______ _______ _______ _____ _____    ______ ____
ROOT
ATOM      1  C   UNL     1       3.659   2.172  -0.022  0.00  0.00    +0.019 A 
ATOM      2  C   UNL     1       4.889   1.510  -0.043  0.00  0.00    +0.124 A 
ATOM      3  N   UNL     1       6.002   2.223  -0.050  0.00  0.00    -0.222 NA
ATOM      4  C   UNL     1       5.960   3.547  -0.038  0.00  0.00    +0.221 A 
ATOM      5  N   UNL     1       4.814   4.211  -0.018  0.00  0.00    -0.222 NA
ATOM      6  C   UNL     1       3.659   3.570  -0.015  0.00  0.00    +0.124 A 
ATOM      7  N   UNL     1       7.152   4.259  -0.047  0.00  0.00    -0.254 N 
ATOM      8  C   UNL     1       7.133   5.607  -0.034  0.00  0.00    +0.222 C 
ATOM      9  O   UNL     1       6.074   6.197  -0.016  0.00  0.00    -0.275 OA
ATOM     10  H   UNL     1       8.000   3.787  -0.061  0.00  0.00    +0.158 HD
ENDROOT
BRANCH   8  11
ATOM     11  C   UNL     1       8.426   6.380  -0.044  0.00  0.00    +0.076 C 
ATOM     12  C   UNL     1       9.249   6.011   1.192  0.00  0.00    +0.017 C 
ATOM     13  C   UNL     1       8.454   6.352   2.454  0.00  0.00    +0.054 C 
ATOM     14  C   UNL     1       8.140   7.848   2.472  0.00  0.00    +0.141 C 
ATOM     15  C   UNL     1       7.327   8.225   1.233  0.00  0.00    +0.054 C 
ATOM     16  C   UNL     1       8.124   7.880  -0.026  0.00  0.00    +0.017 C 
ATOM     17  C   UNL     1       7.373   8.199   3.718  0.00  0.00    +0.028 A 
ATOM     18  C   UNL     1       6.155   7.804   4.234  0.00  0.00    +0.011 A 
ATOM     19  C   UNL     1       5.748   8.346   5.445  0.00  0.00    +0.020 A 
ATOM     20  C   UNL     1       6.571   9.258   6.088  0.00  0.00    +0.111 A 
ATOM     21  N   UNL     1       7.726   9.616   5.571  0.00  0.00    -0.248 NA
ATOM     22  C   UNL     1       8.154   9.121   4.415  0.00  0.00    +0.155 A 
ATOM     23  C   UNL     1       9.384   9.346   3.624  0.00  0.00    +0.359 C 
ATOM     24  O   UNL     1      10.288  10.094   3.939  0.00  0.00    -0.243 OA
ATOM     25  O   UNL     1       9.354   8.602   2.507  0.00  0.00    -0.449 OA
ENDBRANCH   8  11
BRANCH   1  28
ATOM     26  C   UNL     1      -0.017   1.378   0.010  0.00  0.00    +0.004 A 
ATOM     27  C   UNL     1       1.167   2.088   0.002  0.00  0.00    +0.009 A 
ATOM     28  C   UNL     1       2.385   1.411  -0.013  0.00  0.00    -0.012 A 
ATOM     29  C   UNL     1       2.404   0.019  -0.021  0.00  0.00    +0.054 A 
ATOM     30  C   UNL     1       1.211  -0.686  -0.013  0.00  0.00    +0.124 A 
ATOM     31  C   UNL     1       0.002  -0.004   0.002  0.00  0.00    +0.046 A 
BRANCH  30  32
ATOM     32  O   UNL     1       1.225  -2.045  -0.021  0.00  0.00    -0.462 OA
BRANCH  32  33
ATOM     33  C   UNL     1      -0.041  -2.707  -0.013  0.00  0.00    +0.444 C 
ATOM     34  F   UNL     1      -0.625  -2.613  -1.280  0.00  0.00    -0.204 F 
ENDBRANCH  32  33
ENDBRANCH  30  32
ENDBRANCH   1  28
TORSDOF 4
