REMARK  Name = ZINC17354306
REMARK  3 active torsions:
REMARK  status: ('A' for Active; 'I' for Inactive)
REMARK    1  A    between atoms: C_3  and  S_10
REMARK    2  A    between atoms: C_6  and  N_7
REMARK    3  A    between atoms: S_10  and  N_13
REMARK                            x       y       z     vdW  Elec       q    Type
REMARK                         _______ _______ _______ _____ _____    ______ ____
ROOT
ATOM      1  S   UNL     1       3.934  -0.832  -0.039  0.00  0.00    +0.102 S 
ATOM      2  O   UNL     1       4.901   0.055   0.506  0.00  0.00    -0.146 OA
ATOM      3  O   UNL     1       3.685  -2.119   0.508  0.00  0.00    -0.146 OA
ENDROOT
BRANCH   1   4
ATOM      4  N   UNL     1       4.346  -1.064  -1.626  0.00  0.00    -0.096 NA
ATOM      5  C   UNL     1       5.442  -1.677  -1.925  0.00  0.00    +0.209 C 
ATOM      6  C   UNL     1       5.837  -1.906  -3.368  0.00  0.00    +0.097 C 
ATOM      7  C   UNL     1       6.229  -3.376  -3.536  0.00  0.00    +0.013 C 
ATOM      8  C   UNL     1       7.266  -3.740  -2.468  0.00  0.00    +0.041 C 
ATOM      9  C   UNL     1       6.666  -3.510  -1.079  0.00  0.00    +0.230 C 
ATOM     10  O   UNL     1       6.270  -2.139  -0.956  0.00  0.00    -0.478 OA
ENDBRANCH   1   4
BRANCH   1  13
ATOM     11  C   UNL     1       1.171   2.086   0.002  0.00  0.00    +0.034 A 
ATOM     12  C   UNL     1       2.377   1.411  -0.015  0.00  0.00    +0.031 A 
ATOM     13  C   UNL     1       2.396   0.029  -0.021  0.00  0.00    +0.113 A 
ATOM     14  C   UNL     1       1.208  -0.679  -0.013  0.00  0.00    +0.031 A 
ATOM     15  C   UNL     1       0.002  -0.004   0.002  0.00  0.00    +0.034 A 
ATOM     16  C   UNL     1      -0.017   1.378   0.010  0.00  0.00    +0.126 A 
BRANCH  16  17
ATOM     17  N   UNL     1      -1.308   2.101   0.020  0.00  0.00    +0.056 N 
ATOM     18  O   UNL     1      -2.355   1.478   0.021  0.00  0.00    -0.126 OA
ATOM     19  O   UNL     1      -1.325   3.319   0.026  0.00  0.00    -0.126 OA
ENDBRANCH  16  17
ENDBRANCH   1  13
TORSDOF 3
