REMARK  Name = ZINC63478677
REMARK  6 active torsions:
REMARK  status: ('A' for Active; 'I' for Inactive)
REMARK    1  A    between atoms: C_1  and  C_2
REMARK    2  A    between atoms: C_2  and  C_3
REMARK    3  A    between atoms: C_3  and  C_4
REMARK    4  A    between atoms: C_4  and  N_5
REMARK    5  A    between atoms: C_10  and  C_28
REMARK    6  A    between atoms: C_28  and  C_29
REMARK                            x       y       z     vdW  Elec       q    Type
REMARK                         _______ _______ _______ _____ _____    ______ ____
ROOT
ATOM      1  N   UNL     1      -2.787  -2.571   0.015  0.00  0.00    -0.242 N 
ATOM      2  C   UNL     1      -3.457  -2.822   1.145  0.00  0.00    +0.227 C 
ATOM      3  O   UNL     1      -3.021  -2.669   2.266  0.00  0.00    -0.275 OA
ATOM      4  C   UNL     1      -4.842  -3.324   0.807  0.00  0.00    +0.107 C 
ATOM      5  C   UNL     1      -4.966  -4.803   1.230  0.00  0.00    +0.072 C 
ATOM      6  N   UNL     1      -4.455  -5.577   0.068  0.00  0.00    -0.295 NA
ATOM      7  C   UNL     1      -4.956  -4.838  -1.106  0.00  0.00    +0.136 C 
ATOM      8  C   UNL     1      -4.851  -3.335  -0.747  0.00  0.00    +0.122 C 
ATOM      9  C   UNL     1      -3.477  -2.815  -1.105  0.00  0.00    +0.228 C 
ATOM     10  O   UNL     1      -3.063  -2.648  -2.233  0.00  0.00    -0.275 OA
ATOM     11  C   UNL     1      -4.167  -5.168  -2.341  0.00  0.00    +0.006 A 
ATOM     12  C   UNL     1      -2.836  -5.053  -2.674  0.00  0.00    +0.046 A 
ATOM     13  C   UNL     1      -2.397  -5.455  -3.925  0.00  0.00    +0.124 A 
ATOM     14  C   UNL     1      -3.301  -5.972  -4.838  0.00  0.00    +0.040 A 
ATOM     15  C   UNL     1      -4.635  -6.088  -4.507  0.00  0.00    +0.026 A 
ATOM     16  C   UNL     1      -5.084  -5.686  -3.251  0.00  0.00    +0.039 A 
ATOM     17  N   UNL     1      -6.364  -5.702  -2.691  0.00  0.00    -0.283 N 
ATOM     18  C   UNL     1      -6.373  -5.220  -1.433  0.00  0.00    +0.243 C 
ATOM     19  O   UNL     1      -7.338  -5.115  -0.705  0.00  0.00    -0.273 OA
ATOM     20  F   UNL     1      -1.091  -5.342  -4.255  0.00  0.00    -0.205 F 
ATOM     21  H   UNL     1      -3.447  -5.611   0.071  0.00  0.00    +0.124 HD
ATOM     22  H   UNL     1      -7.154  -6.023  -3.154  0.00  0.00    +0.155 HD
ENDROOT
BRANCH   1  23
ATOM     23  C   UNL     1      -1.413  -2.063   0.004  0.00  0.00    +0.116 C 
BRANCH  23  24
ATOM     24  C   UNL     1      -1.433  -0.534   0.013  0.00  0.00    +0.019 C 
BRANCH  24  26
ATOM     25  C   UNL     1      -0.019   1.526   0.010  0.00  0.00    +0.004 C 
ATOM     26  C   UNL     1       0.002  -0.004   0.002  0.00  0.00    -0.002 C 
ENDBRANCH  24  26
ENDBRANCH  23  24
ENDBRANCH   1  23
BRANCH   5  27
ATOM     27  C   UNL     1      -4.112  -5.075   2.471  0.00  0.00    +0.052 C 
BRANCH  27  28
ATOM     28  C   UNL     1      -4.343  -6.489   2.938  0.00  0.00    -0.040 C 
ATOM     29  C   UNL     1      -3.598  -7.577   2.637  0.00  0.00    -0.001 A 
ATOM     30  C   UNL     1      -2.397  -7.763   1.814  0.00  0.00    +0.010 A 
ATOM     31  C   UNL     1      -1.866  -9.001   1.698  0.00  0.00    +0.001 A 
ATOM     32  C   UNL     1      -2.433 -10.110   2.342  0.00  0.00    +0.002 A 
ATOM     33  C   UNL     1      -3.536 -10.018   3.115  0.00  0.00    +0.026 A 
ATOM     34  C   UNL     1      -4.177  -8.763   3.307  0.00  0.00    +0.043 A 
ATOM     35  N   UNL     1      -5.239  -8.422   3.996  0.00  0.00    -0.380 N 
ATOM     36  C   UNL     1      -5.450  -6.978   3.845  0.00  0.00    +0.144 C 
ATOM     37  H   UNL     1      -5.790  -9.023   4.521  0.00  0.00    +0.160 HD
ENDBRANCH  27  28
ENDBRANCH   5  27
TORSDOF 5
