REMARK  Name = ZINC01111593
REMARK  11 active torsions:
REMARK  status: ('A' for Active; 'I' for Inactive)
REMARK    1  A    between atoms: C_1  and  C_2
REMARK    2  A    between atoms: C_2  and  O_3
REMARK    3  A    between atoms: O_3  and  C_4
REMARK    4  A    between atoms: C_4  and  C_6
REMARK    5  A    between atoms: C_7  and  C_31
REMARK    6  A    between atoms: C_12  and  C_14
REMARK    7  A    between atoms: C_17  and  O_29
REMARK    8  A    between atoms: C_18  and  C_20
REMARK    9  A    between atoms: C_20  and  O_21
REMARK   10  A    between atoms: O_21  and  C_22
REMARK   11  A    between atoms: O_29  and  C_30
REMARK                            x       y       z     vdW  Elec       q    Type
REMARK                         _______ _______ _______ _____ _____    ______ ____
ROOT
ATOM      1  C   UNL     1       1.151   0.197   4.453  0.00  0.00    -0.022 A 
ATOM      2  C   UNL     1       1.960  -0.279   3.438  0.00  0.00    +0.009 A 
ATOM      3  C   UNL     1       1.619  -0.056   2.119  0.00  0.00    +0.046 A 
ATOM      4  C   UNL     1       0.463   0.647   1.812  0.00  0.00    +0.126 A 
ATOM      5  C   UNL     1      -0.344   1.129   2.831  0.00  0.00    +0.032 A 
ATOM      6  C   UNL     1      -0.001   0.898   4.150  0.00  0.00    +0.016 A 
ENDROOT
BRANCH   1  13
ATOM      7  C   UNL     1       1.112  -1.462   6.248  0.00  0.00    +0.078 C 
ATOM      8  C   UNL     1       2.071  -2.306   6.687  0.00  0.00    +0.019 C 
ATOM      9  N   UNL     1       3.368  -1.898   6.805  0.00  0.00    -0.300 N 
ATOM     10  C   UNL     1       3.788  -0.662   6.505  0.00  0.00    +0.135 C 
ATOM     11  S   UNL     1       5.446  -0.282   6.699  0.00  0.00    -0.019 S 
ATOM     12  N   UNL     1       2.949   0.291   6.055  0.00  0.00    -0.315 N 
ATOM     13  C   UNL     1       1.525  -0.048   5.892  0.00  0.00    +0.141 C 
ATOM     14  C   UNL     1       1.703  -3.721   7.051  0.00  0.00    +0.061 C 
ATOM     15  H   UNL     1       4.022  -2.539   7.124  0.00  0.00    +0.154 HD
ATOM     16  H   UNL     1       3.275   1.180   5.843  0.00  0.00    +0.149 HD
BRANCH   7  17
ATOM     17  C   UNL     1      -0.232  -1.883   6.125  0.00  0.00    +0.339 C 
ATOM     18  O   UNL     1      -0.521  -3.053   6.294  0.00  0.00    -0.245 OA
BRANCH  17  19
ATOM     19  O   UNL     1      -1.195  -0.988   5.819  0.00  0.00    -0.462 OA
BRANCH  19  21
ATOM     20  C   UNL     1      -3.475  -0.332   5.362  0.00  0.00    +0.048 C 
ATOM     21  C   UNL     1      -2.531  -1.484   5.711  0.00  0.00    +0.229 C 
ENDBRANCH  19  21
ENDBRANCH  17  19
ENDBRANCH   7  17
ENDBRANCH   1  13
BRANCH   4  22
ATOM     22  O   UNL     1       0.125   0.868   0.514  0.00  0.00    -0.495 OA
ATOM     23  C   UNL     1       1.006   0.348  -0.483  0.00  0.00    +0.277 C 
ENDBRANCH   4  22
BRANCH   5  24
ATOM     24  C   UNL     1      -1.597   1.899   2.502  0.00  0.00    +0.268 C 
BRANCH  24  25
ATOM     25  O   UNL     1      -2.251   2.285   3.712  0.00  0.00    -0.487 OA
BRANCH  25  26
ATOM     26  C   UNL     1      -3.406   2.992   3.591  0.00  0.00    +0.121 A 
ATOM     27  C   UNL     1      -3.896   3.312   2.333  0.00  0.00    +0.047 A 
ATOM     28  C   UNL     1      -5.072   4.025   2.212  0.00  0.00    +0.019 A 
ATOM     29  C   UNL     1      -5.756   4.431   3.344  0.00  0.00    +0.018 A 
ATOM     30  C   UNL     1      -5.266   4.118   4.599  0.00  0.00    +0.019 A 
ATOM     31  C   UNL     1      -4.093   3.400   4.725  0.00  0.00    +0.047 A 
ATOM     32 BR   UNL     1      -7.363   5.414   3.175  0.00  0.00    -0.050 Br
ENDBRANCH  25  26
ENDBRANCH  24  25
ENDBRANCH   5  24
TORSDOF 8
