REMARK  Name = ZINC35921313
REMARK  10 active torsions:
REMARK  status: ('A' for Active; 'I' for Inactive)
REMARK    1  A    between atoms: C_1  and  C_2
REMARK    2  A    between atoms: C_2  and  C_3
REMARK    3  A    between atoms: C_2  and  C_4
REMARK    4  A    between atoms: C_4  and  N_5
REMARK    5  A    between atoms: N_5  and  C_6
REMARK    6  A    between atoms: C_6  and  C_7
REMARK    7  A    between atoms: N_10  and  C_12
REMARK    8  A    between atoms: N_21  and  C_23
REMARK    9  A    between atoms: C_23  and  C_24
REMARK   10  A    between atoms: C_27  and  C_29
REMARK                            x       y       z     vdW  Elec       q    Type
REMARK                         _______ _______ _______ _____ _____    ______ ____
ROOT
ATOM      1  C   UNL     1      -1.725  -1.572  -2.568  0.00  0.00    +0.082 A 
ATOM      2  C   UNL     1      -1.569  -2.533  -1.574  0.00  0.00    -0.018 A 
ATOM      3  C   UNL     1      -2.705  -2.549  -0.825  0.00  0.00    +0.045 A 
ATOM      4  N   UNL     1      -3.543  -1.628  -1.327  0.00  0.00    -0.236 N 
ATOM      5  N   UNL     1      -2.907  -1.021  -2.421  0.00  0.00    -0.169 NA
ATOM      6  C   UNL     1      -2.902  -3.479   0.346  0.00  0.00    +0.037 C 
ATOM      7  C   UNL     1      -1.830  -4.575   0.255  0.00  0.00    -0.072 C 
ATOM      8  N   UNL     1      -0.510  -3.963   0.061  0.00  0.00    +0.383 N 
ATOM      9  C   UNL     1      -0.389  -3.433  -1.307  0.00  0.00    -0.039 C 
ATOM     10  H   UNL     1      -0.390  -3.211   0.723  0.00  0.00    -0.081 HD
ENDROOT
BRANCH   4  11
ATOM     11  C   UNL     1      -4.823  -1.323  -0.842  0.00  0.00    +0.067 A 
ATOM     12  C   UNL     1      -5.093  -1.423   0.517  0.00  0.00    +0.028 A 
ATOM     13  C   UNL     1      -6.354  -1.121   0.992  0.00  0.00    +0.003 A 
ATOM     14  C   UNL     1      -7.348  -0.721   0.118  0.00  0.00    +0.020 A 
ATOM     15  C   UNL     1      -7.082  -0.621  -1.236  0.00  0.00    +0.043 A 
ATOM     16  C   UNL     1      -5.820  -0.917  -1.718  0.00  0.00    +0.047 A 
ATOM     17 CL   UNL     1      -8.332  -0.119  -2.331  0.00  0.00    -0.083 Cl
ENDBRANCH   4  11
BRANCH   1  18
ATOM     18  C   UNL     1      -0.710  -1.220  -3.625  0.00  0.00    +0.165 C 
BRANCH  18  19
ATOM     19  N   UNL     1      -1.004   0.111  -4.160  0.00  0.00    -0.291 N 
ATOM     20  C   UNL     1      -2.064   0.292  -4.972  0.00  0.00    +0.247 C 
ATOM     21  O   UNL     1      -2.947  -0.542  -5.013  0.00  0.00    -0.270 OA
BRANCH  20  22
ATOM     22  C   UNL     1      -2.154   1.506  -5.811  0.00  0.00    +0.040 A 
ATOM     23  C   UNL     1      -2.077   2.771  -5.226  0.00  0.00    +0.013 A 
ATOM     24  C   UNL     1      -2.161   3.900  -6.014  0.00  0.00    +0.004 A 
ATOM     25  C   UNL     1      -2.321   3.782  -7.383  0.00  0.00    +0.038 A 
ATOM     26  C   UNL     1      -2.398   2.530  -7.972  0.00  0.00    +0.124 A 
ATOM     27  C   UNL     1      -2.310   1.391  -7.193  0.00  0.00    +0.051 A 
ATOM     28  F   UNL     1      -2.555   2.422  -9.309  0.00  0.00    -0.205 F 
ENDBRANCH  20  22
BRANCH  19  29
ATOM     29  C   UNL     1      -0.145   1.246  -3.813  0.00  0.00    +0.111 C 
BRANCH  29  31
ATOM     30  C   UNL     1      -0.122   0.945  -1.333  0.00  0.00    +0.009 C 
ATOM     31  C   UNL     1      -0.599   1.841  -2.479  0.00  0.00    +0.000 C 
ATOM     32  C   UNL     1      -0.002   3.240  -2.314  0.00  0.00    +0.009 C 
ENDBRANCH  29  31
ENDBRANCH  19  29
ENDBRANCH  18  19
ENDBRANCH   1  18
BRANCH   8  33
ATOM     33  C   UNL     1       0.533  -4.973   0.285  0.00  0.00    -0.075 C 
BRANCH  33  34
ATOM     34  C   UNL     1       0.503  -5.422   1.747  0.00  0.00    -0.028 C 
ATOM     35  C   UNL     1       1.738  -5.128   2.602  0.00  0.00    +0.002 C 
ATOM     36  C   UNL     1       1.439  -6.561   2.156  0.00  0.00    +0.002 C 
ENDBRANCH  33  34
ENDBRANCH   8  33
TORSDOF 8
