REMARK  Name = ZINC00002645
REMARK  1 active torsions:
REMARK  status: ('A' for Active; 'I' for Inactive)
REMARK    1  A    between atoms: C_4  and  C_8
REMARK                            x       y       z     vdW  Elec       q    Type
REMARK                         _______ _______ _______ _____ _____    ______ ____
ROOT
ATOM      1  C   UNL     1       3.699  -0.689  -0.037  0.00  0.00    +0.168 A 
ATOM      2  N   UNL     1       4.840  -0.006  -0.040  0.00  0.00    -0.195 NA
ATOM      3  C   UNL     1       6.001  -0.653  -0.054  0.00  0.00    +0.217 A 
ATOM      4  N   UNL     1       6.022  -1.982  -0.067  0.00  0.00    -0.181 NA
ATOM      5  C   UNL     1       4.881  -2.664  -0.065  0.00  0.00    +0.217 A 
ATOM      6  N   UNL     1       3.720  -2.019  -0.045  0.00  0.00    -0.195 NA
ATOM      7  N   UNL     1       4.904  -4.045  -0.077  0.00  0.00    -0.327 N 
ATOM      8  N   UNL     1       7.186   0.056  -0.057  0.00  0.00    -0.327 N 
ATOM      9  H   UNL     1       5.751  -4.516  -0.088  0.00  0.00    +0.145 HD
ATOM     10  H   UNL     1       4.072  -4.543  -0.076  0.00  0.00    +0.145 HD
ATOM     11  H   UNL     1       7.171   1.026  -0.048  0.00  0.00    +0.145 HD
ATOM     12  H   UNL     1       8.033  -0.416  -0.068  0.00  0.00    +0.145 HD
ENDROOT
BRANCH   1  16
ATOM     13  C   UNL     1      -0.017   1.380   0.010  0.00  0.00    +0.021 A 
ATOM     14  C   UNL     1       1.168   2.093   0.002  0.00  0.00    +0.022 A 
ATOM     15  C   UNL     1       2.378   1.427  -0.013  0.00  0.00    +0.052 A 
ATOM     16  C   UNL     1       2.403   0.032  -0.021  0.00  0.00    +0.039 A 
ATOM     17  C   UNL     1       1.206  -0.681  -0.013  0.00  0.00    +0.033 A 
ATOM     18  C   UNL     1       0.002  -0.004   0.002  0.00  0.00    +0.042 A 
ATOM     19 CL   UNL     1      -1.490  -0.891   0.012  0.00  0.00    -0.084 Cl
ATOM     20 CL   UNL     1       3.865   2.324  -0.023  0.00  0.00    -0.083 Cl
ENDBRANCH   1  16
TORSDOF 1
