REMARK  Name = ZINC38702277
REMARK  11 active torsions:
REMARK  status: ('A' for Active; 'I' for Inactive)
REMARK    1  A    between atoms: C_1  and  C_2
REMARK    2  A    between atoms: C_4  and  C_10
REMARK    3  A    between atoms: C_5  and  O_9
REMARK    4  A    between atoms: C_7  and  C_8
REMARK    5  A    between atoms: N_18  and  C_33
REMARK    6  A    between atoms: C_19  and  C_21
REMARK    7  A    between atoms: C_24  and  O_29
REMARK    8  A    between atoms: C_25  and  O_27
REMARK    9  A    between atoms: O_27  and  C_28
REMARK   10  A    between atoms: O_29  and  C_30
REMARK   11  A    between atoms: C_30  and  C_31
REMARK                            x       y       z     vdW  Elec       q    Type
REMARK                         _______ _______ _______ _____ _____    ______ ____
ROOT
ATOM      1  C   UNL     1      -0.229  -2.946  -2.881  0.00  0.00    +0.102 A 
ATOM      2  C   UNL     1       0.034  -4.319  -2.848  0.00  0.00    +0.035 A 
ATOM      3  C   UNL     1       0.067  -4.729  -4.167  0.00  0.00    +0.126 A 
ATOM      4  N   UNL     1      -0.171  -3.612  -4.917  0.00  0.00    -0.272 N 
ATOM      5  H   UNL     1      -0.209  -3.590  -5.886  0.00  0.00    +0.189 HD
ATOM      6  N   UNL     1      -0.344  -2.597  -4.148  0.00  0.00    -0.173 NA
ATOM      7  C   UNL     1       0.340  -6.170  -4.201  0.00  0.00    +0.266 C 
ATOM      8  O   UNL     1       0.432  -6.835  -5.216  0.00  0.00    -0.268 OA
ATOM      9  N   UNL     1       0.473  -6.652  -2.953  0.00  0.00    -0.280 N 
ATOM     10  C   UNL     1       0.294  -5.540  -2.009  0.00  0.00    +0.142 C 
ENDROOT
BRANCH   1  14
ATOM     11  C   UNL     1       1.463  -1.318   1.524  0.00  0.00    +0.044 C 
ATOM     12  C   UNL     1       0.449  -1.261   0.412  0.00  0.00    -0.047 A 
ATOM     13  C   UNL     1       0.576  -2.099  -0.678  0.00  0.00    +0.017 A 
ATOM     14  C   UNL     1      -0.361  -2.047  -1.707  0.00  0.00    +0.044 A 
ATOM     15  C   UNL     1      -1.427  -1.146  -1.629  0.00  0.00    +0.126 A 
ATOM     16  C   UNL     1      -1.542  -0.310  -0.530  0.00  0.00    +0.049 A 
ATOM     17  C   UNL     1      -0.610  -0.374   0.488  0.00  0.00    -0.044 A 
ATOM     18  C   UNL     1      -0.743   0.532   1.685  0.00  0.00    +0.044 C 
BRANCH  15  19
ATOM     19  O   UNL     1      -2.345  -1.088  -2.629  0.00  0.00    -0.506 OA
ATOM     20  H   UNL     1      -3.135  -1.622  -2.468  0.00  0.00    +0.292 HD
ENDBRANCH  15  19
ENDBRANCH   1  14
BRANCH   9  21
ATOM     21  C   UNL     1       0.749  -8.045  -2.595  0.00  0.00    +0.100 C 
ATOM     22  C   UNL     1       2.072  -8.494  -3.239  0.00  0.00    +0.047 C 
ATOM     23  C   UNL     1       2.211 -10.032  -3.139  0.00  0.00    +0.168 C 
ATOM     24  S   UNL     1       0.461 -10.596  -3.116  0.00  0.00    -0.029 S 
ATOM     25  O   UNL     1       0.178 -11.277  -4.330  0.00  0.00    -0.174 OA
ATOM     26  O   UNL     1       0.200 -11.240  -1.876  0.00  0.00    -0.174 OA
ATOM     27  C   UNL     1      -0.387  -8.961  -3.134  0.00  0.00    +0.188 C 
ENDBRANCH   9  21
BRANCH  10  28
ATOM     28  C   UNL     1      -0.882  -5.811  -1.107  0.00  0.00    -0.019 A 
ATOM     29  C   UNL     1      -2.052  -6.326  -1.635  0.00  0.00    +0.009 A 
ATOM     30  C   UNL     1      -3.134  -6.576  -0.811  0.00  0.00    +0.050 A 
ATOM     31  C   UNL     1      -3.048  -6.311   0.546  0.00  0.00    +0.162 A 
ATOM     32  C   UNL     1      -1.870  -5.793   1.077  0.00  0.00    +0.162 A 
ATOM     33  C   UNL     1      -0.788  -5.549   0.247  0.00  0.00    +0.055 A 
BRANCH  32  34
ATOM     34  O   UNL     1      -1.781  -5.532   2.409  0.00  0.00    -0.491 OA
ATOM     35  C   UNL     1      -0.542  -5.001   2.884  0.00  0.00    +0.277 C 
ENDBRANCH  32  34
BRANCH  31  36
ATOM     36  O   UNL     1      -4.111  -6.556   1.357  0.00  0.00    -0.484 OA
BRANCH  36  37
ATOM     37  C   UNL     1      -5.287  -7.087   0.743  0.00  0.00    +0.256 C 
BRANCH  37  38
ATOM     38  C   UNL     1      -6.352  -7.292   1.789  0.00  0.00    +0.006 C 
ATOM     39  C   UNL     1      -7.584  -6.914   1.553  0.00  0.00    +0.007 C 
ENDBRANCH  37  38
ENDBRANCH  36  37
ENDBRANCH  31  36
ENDBRANCH  10  28
TORSDOF 8
