REMARK  Name = ZINC63625173
REMARK  9 active torsions:
REMARK  status: ('A' for Active; 'I' for Inactive)
REMARK    1  A    between atoms: C_1  and  C_2
REMARK    2  A    between atoms: C_2  and  C_3
REMARK    3  A    between atoms: C_6  and  C_9
REMARK    4  A    between atoms: C_11  and  C_15
REMARK    5  A    between atoms: N_17  and  C_18
REMARK    6  A    between atoms: C_25  and  N_28
REMARK    7  A    between atoms: C_29  and  C_31
REMARK    8  A    between atoms: C_31  and  C_32
REMARK    9  A    between atoms: C_31  and  C_33
REMARK                            x       y       z     vdW  Elec       q    Type
REMARK                         _______ _______ _______ _____ _____    ______ ____
ROOT
ATOM      1  C   UNL     1      -8.973  -2.309  -0.878  0.00  0.00    +0.248 C 
ATOM      2  O   UNL     1      -9.764  -1.887  -0.061  0.00  0.00    -0.273 OA
ATOM      3  N   UNL     1      -9.104  -1.975  -2.177  0.00  0.00    -0.283 N 
ATOM      4  H   UNL     1      -8.435  -2.256  -2.820  0.00  0.00    +0.155 HD
ENDROOT
BRANCH   3   5
ATOM      5  C   UNL     1     -10.207  -1.220  -2.599  0.00  0.00    +0.035 A 
ATOM      6  C   UNL     1     -10.724  -0.238  -1.764  0.00  0.00    +0.024 A 
ATOM      7  C   UNL     1     -11.814   0.499  -2.194  0.00  0.00    +0.018 A 
ATOM      8  C   UNL     1     -12.367   0.253  -3.430  0.00  0.00    +0.032 A 
ATOM      9  C   UNL     1     -11.872  -0.728  -4.295  0.00  0.00    +0.044 A 
ATOM     10  C   UNL     1     -10.761  -1.461  -3.841  0.00  0.00    +0.047 A 
ATOM     11  N   UNL     1     -12.505  -0.897  -5.526  0.00  0.00    -0.316 N 
ATOM     12  C   UNL     1     -13.652  -0.029  -5.825  0.00  0.00    +0.224 C 
ATOM     13  S   UNL     1     -13.739   0.984  -4.294  0.00  0.00    -0.082 S 
ATOM     14  H   UNL     1     -12.200  -1.564  -6.161  0.00  0.00    +0.149 HD
BRANCH  12  15
ATOM     15  N   UNL     1     -13.387   0.808  -6.997  0.00  0.00    -0.288 N 
ATOM     16  C   UNL     1     -14.402   1.445  -7.614  0.00  0.00    +0.218 C 
ATOM     17  O   UNL     1     -15.535   1.325  -7.198  0.00  0.00    -0.275 OA
ATOM     18  H   UNL     1     -12.480   0.904  -7.330  0.00  0.00    +0.151 HD
BRANCH  16  19
ATOM     19  C   UNL     1     -14.129   2.307  -8.820  0.00  0.00    +0.069 C 
ATOM     20  C   UNL     1     -15.442   2.909  -9.324  0.00  0.00    +0.017 C 
ATOM     21  C   UNL     1     -13.166   3.432  -8.436  0.00  0.00    +0.017 C 
ENDBRANCH  16  19
ENDBRANCH  12  15
ENDBRANCH   3   5
BRANCH   1  24
ATOM     22  C   UNL     1      -6.224  -2.547   0.988  0.00  0.00    +0.092 C 
ATOM     23  C   UNL     1      -6.552  -2.418  -0.312  0.00  0.00    +0.040 C 
ATOM     24  C   UNL     1      -7.844  -3.206  -0.441  0.00  0.00    +0.239 C 
ATOM     25  N   UNL     1      -8.071  -3.704   0.926  0.00  0.00    -0.170 NA
ATOM     26  N   UNL     1      -7.145  -3.307   1.637  0.00  0.00    -0.153 NA
BRANCH  22  30
ATOM     27  C   UNL     1      -2.783  -0.831   2.803  0.00  0.00    -0.048 A 
ATOM     28  C   UNL     1      -3.656  -1.589   3.561  0.00  0.00    +0.004 A 
ATOM     29  C   UNL     1      -4.775  -2.148   2.978  0.00  0.00    +0.010 A 
ATOM     30  C   UNL     1      -5.023  -1.948   1.621  0.00  0.00    +0.002 A 
ATOM     31  C   UNL     1      -4.140  -1.183   0.862  0.00  0.00    +0.010 A 
ATOM     32  C   UNL     1      -3.027  -0.624   1.457  0.00  0.00    +0.004 A 
BRANCH  27  34
ATOM     33  C   UNL     1      -1.910   1.168   3.983  0.00  0.00    +0.009 C 
ATOM     34  C   UNL     1      -1.563  -0.222   3.446  0.00  0.00    +0.032 C 
ENDBRANCH  27  34
ENDBRANCH  22  30
ENDBRANCH   1  24
TORSDOF 6
