REMARK  Name = ZINC08442112
REMARK  8 active torsions:
REMARK  status: ('A' for Active; 'I' for Inactive)
REMARK    1  A    between atoms: C_1  and  C_2
REMARK    2  A    between atoms: C_2  and  N_3
REMARK    3  A    between atoms: C_14  and  C_25
REMARK    4  A    between atoms: C_20  and  N_24
REMARK    5  A    between atoms: C_21  and  C_22
REMARK    6  A    between atoms: C_25  and  S_26
REMARK    7  A    between atoms: S_26  and  C_27
REMARK    8  A    between atoms: C_30  and  C_33
REMARK                            x       y       z     vdW  Elec       q    Type
REMARK                         _______ _______ _______ _____ _____    ______ ____
ROOT
ATOM      1  N   UNL     1       0.688  -0.476  -1.203  0.00  0.00    -0.270 N 
ATOM      2  C   UNL     1       0.052  -0.731  -2.406  0.00  0.00    +0.041 A 
ATOM      3  C   UNL     1      -1.299  -0.611  -2.737  0.00  0.00    +0.024 A 
ATOM      4  C   UNL     1      -1.666  -0.939  -4.032  0.00  0.00    +0.002 A 
ATOM      5  C   UNL     1      -0.745  -1.368  -4.966  0.00  0.00    +0.000 A 
ATOM      6  C   UNL     1       0.604  -1.491  -4.650  0.00  0.00    +0.007 A 
ATOM      7  C   UNL     1       0.976  -1.167  -3.363  0.00  0.00    -0.001 A 
ATOM      8  C   UNL     1       2.307  -1.179  -2.682  0.00  0.00    +0.145 C 
ATOM      9  C   UNL     1       2.016  -0.709  -1.274  0.00  0.00    +0.240 C 
ATOM     10  O   UNL     1       2.821  -0.571  -0.378  0.00  0.00    -0.274 OA
ATOM     11  C   UNL     1       2.901  -2.558  -2.666  0.00  0.00    +0.062 A 
ATOM     12  C   UNL     1       2.491  -3.693  -1.980  0.00  0.00    +0.081 A 
ATOM     13  N   UNL     1       3.317  -4.669  -2.273  0.00  0.00    -0.175 NA
ATOM     14  N   UNL     1       4.286  -4.178  -3.163  0.00  0.00    -0.246 N 
ATOM     15  H   UNL     1       5.020  -4.684  -3.545  0.00  0.00    +0.192 HD
ATOM     16  C   UNL     1       4.016  -2.883  -3.392  0.00  0.00    +0.223 A 
ATOM     17  O   UNL     1       4.663  -1.986  -4.176  0.00  0.00    -0.423 OA
ATOM     18  C   UNL     1       4.352  -0.682  -4.034  0.00  0.00    +0.201 C 
ATOM     19  C   UNL     1       3.271  -0.237  -3.351  0.00  0.00    +0.110 C 
ENDROOT
BRANCH  18  20
ATOM     20  N   UNL     1       5.179   0.248  -4.614  0.00  0.00    -0.328 N 
ATOM     21  H   UNL     1       5.961  -0.041  -5.110  0.00  0.00    +0.145 HD
ATOM     22  H   UNL     1       4.980   1.194  -4.529  0.00  0.00    +0.145 HD
ENDBRANCH  18  20
BRANCH   1  24
ATOM     23  C   UNL     1      -0.019   1.526   0.010  0.00  0.00    +0.025 C 
ATOM     24  C   UNL     1       0.002  -0.004   0.002  0.00  0.00    +0.110 C 
ENDBRANCH   1  24
BRANCH  19  25
ATOM     25  C   UNL     1       3.038   1.173  -3.262  0.00  0.00    +0.102 C 
ATOM     26  N   UNL     1       2.853   2.291  -3.192  0.00  0.00    -0.191 NA
ENDBRANCH  19  25
BRANCH  12  27
ATOM     27  C   UNL     1       1.303  -3.788  -1.058  0.00  0.00    +0.132 C 
BRANCH  27  28
ATOM     28  S   UNL     1      -0.165  -4.267  -2.010  0.00  0.00    -0.119 S 
BRANCH  28  29
ATOM     29  C   UNL     1      -1.450  -4.334  -0.807  0.00  0.00    +0.008 A 
ATOM     30  C   UNL     1      -1.176  -4.038   0.523  0.00  0.00    +0.015 A 
ATOM     31  C   UNL     1      -2.186  -4.092   1.463  0.00  0.00    +0.004 A 
ATOM     32  C   UNL     1      -3.470  -4.439   1.082  0.00  0.00    -0.050 A 
ATOM     33  C   UNL     1      -3.746  -4.734  -0.240  0.00  0.00    +0.004 A 
ATOM     34  C   UNL     1      -2.743  -4.676  -1.187  0.00  0.00    +0.015 A 
ATOM     35  C   UNL     1      -4.569  -4.496   2.111  0.00  0.00    +0.044 C 
ENDBRANCH  28  29
ENDBRANCH  27  28
ENDBRANCH  12  27
TORSDOF 6
