REMARK  Name = ZINC36497292
REMARK  17 active torsions:
REMARK  status: ('A' for Active; 'I' for Inactive)
REMARK    1  A    between atoms: C_1  and  C_2
REMARK    2  A    between atoms: C_2  and  C_3
REMARK    3  A    between atoms: C_3  and  C_5
REMARK    4  A    between atoms: C_3  and  C_11
REMARK    5  A    between atoms: N_13  and  C_14
REMARK    6  A    between atoms: N_13  and  C_20
REMARK    7  A    between atoms: C_14  and  C_15
REMARK    8  A    between atoms: C_20  and  C_22
REMARK    9  A    between atoms: C_20  and  C_31
REMARK   10  A    between atoms: N_33  and  C_34
REMARK   11  A    between atoms: C_34  and  C_35
REMARK   12  A    between atoms: C_34  and  C_36
REMARK   13  A    between atoms: C_34  and  C_37
REMARK   14  A    between atoms: C_37  and  C_38
REMARK   15  A    between atoms: C_38  and  C_39
REMARK   16  A    between atoms: C_38  and  C_40
REMARK   17  A    between atoms: C_38  and  C_41
REMARK                            x       y       z     vdW  Elec       q    Type
REMARK                         _______ _______ _______ _____ _____    ______ ____
ROOT
ATOM      1  C   UNL     1      -3.531   2.546  -3.795  0.00  0.00    +0.193 C 
ENDROOT
BRANCH   1   2
ATOM      2  C   UNL     1      -4.322   3.701  -3.239  0.00  0.00    -0.015 A 
ATOM      3  C   UNL     1      -3.925   4.306  -2.061  0.00  0.00    +0.010 A 
ATOM      4  C   UNL     1      -4.647   5.366  -1.547  0.00  0.00    +0.050 A 
ATOM      5  C   UNL     1      -5.772   5.826  -2.212  0.00  0.00    +0.166 A 
ATOM      6  C   UNL     1      -6.173   5.217  -3.398  0.00  0.00    +0.167 A 
ATOM      7  C   UNL     1      -5.441   4.158  -3.911  0.00  0.00    +0.055 A 
ATOM      8  O   UNL     1      -7.296   5.846  -3.853  0.00  0.00    -0.453 OA
ATOM      9  C   UNL     1      -7.811   6.576  -2.725  0.00  0.00    +0.466 C 
ATOM     10  O   UNL     1      -6.644   6.836  -1.923  0.00  0.00    -0.453 OA
ENDBRANCH   1   2
BRANCH   1  11
ATOM     11  C   UNL     1      -2.248   3.058  -4.396  0.00  0.00    +0.239 C 
ATOM     12  O   UNL     1      -1.195   2.519  -4.129  0.00  0.00    -0.273 OA
ATOM     13  N   UNL     1      -2.270   4.116  -5.231  0.00  0.00    -0.308 N 
ATOM     14  H   UNL     1      -3.100   4.594  -5.387  0.00  0.00    +0.149 HD
BRANCH  13  15
ATOM     15  C   UNL     1      -1.042   4.543  -5.905  0.00  0.00    +0.030 C 
ATOM     16  C   UNL     1      -0.034   5.036  -4.864  0.00  0.00    +0.031 C 
ATOM     17  C   UNL     1      -0.444   3.363  -6.674  0.00  0.00    +0.031 C 
BRANCH  15  18
ATOM     18  C   UNL     1      -1.363   5.678  -6.881  0.00  0.00    +0.031 C 
BRANCH  18  19
ATOM     19  C   UNL     1      -2.269   5.150  -7.995  0.00  0.00    -0.036 C 
ATOM     20  C   UNL     1      -3.354   4.257  -7.390  0.00  0.00    +0.010 C 
ATOM     21  C   UNL     1      -2.924   6.328  -8.720  0.00  0.00    +0.010 C 
ATOM     22  C   UNL     1      -1.436   4.339  -8.989  0.00  0.00    +0.010 C 
ENDBRANCH  18  19
ENDBRANCH  15  18
ENDBRANCH  13  15
ENDBRANCH   1  11
BRANCH   1  25
ATOM     23  C   UNL     1      -4.188   0.796  -2.231  0.00  0.00    +0.224 C 
ATOM     24  O   UNL     1      -5.328   0.906  -2.631  0.00  0.00    -0.275 OA
ATOM     25  N   UNL     1      -3.223   1.601  -2.719  0.00  0.00    -0.278 N 
BRANCH  23  26
ATOM     26  C   UNL     1      -3.851  -0.239  -1.190  0.00  0.00    +0.105 C 
BRANCH  26  27
ATOM     27  C   UNL     1      -4.123   0.321   0.182  0.00  0.00    -0.036 A 
ATOM     28  C   UNL     1      -5.400   0.726   0.522  0.00  0.00    +0.004 A 
ATOM     29  C   UNL     1      -5.650   1.240   1.781  0.00  0.00    +0.000 A 
ATOM     30  C   UNL     1      -4.623   1.348   2.700  0.00  0.00    +0.000 A 
ATOM     31  C   UNL     1      -3.346   0.942   2.360  0.00  0.00    +0.000 A 
ATOM     32  C   UNL     1      -3.097   0.424   1.103  0.00  0.00    +0.004 A 
ENDBRANCH  26  27
BRANCH  26  34
ATOM     33  C   UNL     1      -4.393  -2.087  -2.782  0.00  0.00    +0.005 C 
ATOM     34  C   UNL     1      -4.711  -1.485  -1.412  0.00  0.00    +0.014 C 
ENDBRANCH  26  34
ENDBRANCH  23  26
BRANCH  25  35
ATOM     35  C   UNL     1      -1.866   1.532  -2.171  0.00  0.00    +0.183 C 
BRANCH  35  36
ATOM     36  C   UNL     1      -1.153   0.335  -2.747  0.00  0.00    +0.122 A 
ATOM     37  C   UNL     1      -0.269   0.358  -3.760  0.00  0.00    +0.046 A 
ATOM     38  C   UNL     1       0.148  -0.977  -3.970  0.00  0.00    +0.041 A 
ATOM     39  C   UNL     1      -0.507  -1.735  -3.073  0.00  0.00    +0.195 A 
ATOM     40  O   UNL     1      -1.289  -0.935  -2.331  0.00  0.00    -0.466 OA
ENDBRANCH  35  36
ENDBRANCH  25  35
ENDBRANCH   1  25
TORSDOF 11
