REMARK  Name = ZINC06743249
REMARK  11 active torsions:
REMARK  status: ('A' for Active; 'I' for Inactive)
REMARK    1  A    between atoms: C_1  and  C_2
REMARK    2  A    between atoms: C_4  and  C_32
REMARK    3  A    between atoms: C_5  and  C_9
REMARK    4  A    between atoms: C_6  and  O_8
REMARK    5  A    between atoms: N_17  and  C_28
REMARK    6  A    between atoms: C_18  and  C_20
REMARK    7  A    between atoms: C_24  and  O_26
REMARK    8  A    between atoms: O_26  and  C_27
REMARK    9  A    between atoms: C_28  and  C_29
REMARK   10  A    between atoms: C_29  and  C_30
REMARK   11  A    between atoms: C_30  and  O_31
REMARK                            x       y       z     vdW  Elec       q    Type
REMARK                         _______ _______ _______ _____ _____    ______ ____
ROOT
ATOM      1  C   UNL     1      -0.190  -4.646  -0.107  0.00  0.00    +0.102 A 
ATOM      2  C   UNL     1       0.061  -5.312   1.097  0.00  0.00    +0.035 A 
ATOM      3  C   UNL     1       0.108  -6.656   0.782  0.00  0.00    +0.126 A 
ATOM      4  N   UNL     1      -0.111  -6.738  -0.564  0.00  0.00    -0.272 N 
ATOM      5  H   UNL     1      -0.136  -7.562  -1.075  0.00  0.00    +0.189 HD
ATOM      6  N   UNL     1      -0.286  -5.561  -1.051  0.00  0.00    -0.173 NA
ATOM      7  C   UNL     1       0.369  -7.415   2.010  0.00  0.00    +0.265 C 
ATOM      8  O   UNL     1       0.468  -8.626   2.070  0.00  0.00    -0.268 OA
ATOM      9  N   UNL     1       0.482  -6.582   3.060  0.00  0.00    -0.285 N 
ATOM     10  C   UNL     1       0.301  -5.207   2.579  0.00  0.00    +0.141 C 
ENDROOT
BRANCH   1  15
ATOM     11  C   UNL     1      -0.734   1.048  -0.810  0.00  0.00    +0.044 C 
ATOM     12  C   UNL     1      -0.589  -0.440  -0.625  0.00  0.00    -0.047 A 
ATOM     13  C   UNL     1      -1.528  -1.297  -1.172  0.00  0.00    +0.007 A 
ATOM     14  C   UNL     1      -1.403  -2.662  -1.007  0.00  0.00    -0.037 A 
ATOM     15  C   UNL     1      -0.328  -3.179  -0.287  0.00  0.00    +0.047 A 
ATOM     16  C   UNL     1       0.618  -2.312   0.264  0.00  0.00    +0.127 A 
ATOM     17  C   UNL     1       0.484  -0.944   0.086  0.00  0.00    +0.049 A 
ATOM     18  C   UNL     1      -2.428  -3.591  -1.604  0.00  0.00    +0.044 C 
BRANCH  16  19
ATOM     19  O   UNL     1       1.669  -2.808   0.968  0.00  0.00    -0.506 OA
ATOM     20  H   UNL     1       2.473  -2.926   0.443  0.00  0.00    +0.292 HD
ENDBRANCH  16  19
ENDBRANCH   1  15
BRANCH  10  21
ATOM     21  C   UNL     1      -0.889  -4.575   3.253  0.00  0.00    -0.019 A 
ATOM     22  C   UNL     1      -2.054  -5.300   3.421  0.00  0.00    +0.006 A 
ATOM     23  C   UNL     1      -3.148  -4.723   4.040  0.00  0.00    +0.004 A 
ATOM     24  C   UNL     1      -3.079  -3.419   4.491  0.00  0.00    +0.045 A 
ATOM     25  C   UNL     1      -1.911  -2.689   4.324  0.00  0.00    +0.120 A 
ATOM     26  C   UNL     1      -0.813  -3.273   3.709  0.00  0.00    +0.051 A 
BRANCH  25  27
ATOM     27  O   UNL     1      -1.841  -1.407   4.768  0.00  0.00    -0.495 OA
ATOM     28  C   UNL     1      -3.008  -0.873   5.397  0.00  0.00    +0.277 C 
ENDBRANCH  25  27
ENDBRANCH  10  21
BRANCH   9  29
ATOM     29  C   UNL     1       0.742  -6.979   4.446  0.00  0.00    +0.111 C 
BRANCH  29  30
ATOM     30  C   UNL     1       2.251  -7.013   4.693  0.00  0.00    +0.047 C 
BRANCH  30  31
ATOM     31  C   UNL     1       2.522  -7.428   6.141  0.00  0.00    +0.157 C 
BRANCH  31  32
ATOM     32  O   UNL     1       3.932  -7.459   6.371  0.00  0.00    -0.395 OA
ATOM     33  H   UNL     1       4.178  -7.715   7.271  0.00  0.00    +0.209 HD
ENDBRANCH  31  32
ENDBRANCH  30  31
ENDBRANCH  29  30
ENDBRANCH   9  29
TORSDOF 8
