REMARK  Name = ZINC02870961
REMARK  5 active torsions:
REMARK  status: ('A' for Active; 'I' for Inactive)
REMARK    1  A    between atoms: C_10  and  S_15
REMARK    2  A    between atoms: S_15  and  N_18
REMARK    3  A    between atoms: N_18  and  C_19
REMARK    4  A    between atoms: C_22  and  S_25
REMARK    5  A    between atoms: S_25  and  N_28
REMARK                            x       y       z     vdW  Elec       q    Type
REMARK                         _______ _______ _______ _____ _____    ______ ____
ROOT
ATOM      1  N   UNL     1       0.002  -0.001   0.004  0.00  0.00    -0.216 N 
ATOM      2  H   UNL     1       0.591   0.682   0.362  0.00  0.00    +0.174 HD
ENDROOT
BRANCH   1   3
ATOM      3  C   UNL     1       0.066  -0.339  -1.349  0.00  0.00    +0.048 A 
ATOM      4  C   UNL     1       0.093  -1.674  -1.732  0.00  0.00    +0.026 A 
ATOM      5  C   UNL     1       0.153  -2.006  -3.072  0.00  0.00    +0.030 A 
ATOM      6  C   UNL     1       0.195  -1.010  -4.031  0.00  0.00    +0.109 A 
ATOM      7  C   UNL     1       0.174   0.320  -3.652  0.00  0.00    +0.030 A 
ATOM      8  C   UNL     1       0.110   0.658  -2.315  0.00  0.00    +0.026 A 
BRANCH   6   9
ATOM      9  S   UNL     1       0.277  -1.437  -5.738  0.00  0.00    +0.074 S 
ATOM     10  O   UNL     1      -0.266  -2.745  -5.856  0.00  0.00    -0.150 OA
ATOM     11  O   UNL     1      -0.243  -0.329  -6.459  0.00  0.00    -0.150 OA
BRANCH   9  12
ATOM     12  N   UNL     1       1.880  -1.552  -6.138  0.00  0.00    -0.194 N 
ATOM     13  C   UNL     1       2.668  -2.538  -5.565  0.00  0.00    +0.177 A 
ATOM     14  N   UNL     1       2.331  -3.463  -4.687  0.00  0.00    -0.232 NA
ATOM     15  C   UNL     1       3.214  -4.337  -4.242  0.00  0.00    +0.120 A 
ATOM     16  C   UNL     1       4.487  -4.258  -4.700  0.00  0.00    +0.068 A 
ATOM     17  S   UNL     1       4.355  -2.867  -5.813  0.00  0.00    -0.059 S 
ATOM     18  H   UNL     1       2.267  -0.929  -6.773  0.00  0.00    +0.176 HD
ENDBRANCH   9  12
ENDBRANCH   6   9
ENDBRANCH   1   3
BRANCH   1  19
ATOM     19  S   UNL     1      -1.079  -0.765   0.999  0.00  0.00    +0.072 S 
ATOM     20  O   UNL     1      -0.879  -2.161   0.820  0.00  0.00    -0.150 OA
ATOM     21  O   UNL     1      -0.977  -0.138   2.269  0.00  0.00    -0.150 OA
BRANCH  19  31
ATOM     22  C   UNL     1      -8.758   0.929  -1.913  0.00  0.00    +0.001 A 
ATOM     23  C   UNL     1      -8.924   2.141  -1.270  0.00  0.00    +0.001 A 
ATOM     24  C   UNL     1      -7.922   2.642  -0.456  0.00  0.00    +0.012 A 
ATOM     25  C   UNL     1      -6.744   1.923  -0.285  0.00  0.00    +0.030 A 
ATOM     26  C   UNL     1      -6.575   0.692  -0.938  0.00  0.00    -0.006 A 
ATOM     27  C   UNL     1      -7.588   0.203  -1.751  0.00  0.00    +0.009 A 
ATOM     28  C   UNL     1      -5.239   0.146  -0.583  0.00  0.00    -0.006 A 
ATOM     29  C   UNL     1      -4.588  -1.023  -0.952  0.00  0.00    +0.011 A 
ATOM     30  C   UNL     1      -3.319  -1.294  -0.466  0.00  0.00    +0.029 A 
ATOM     31  C   UNL     1      -2.693  -0.406   0.388  0.00  0.00    +0.109 A 
ATOM     32  C   UNL     1      -3.331   0.762   0.770  0.00  0.00    +0.041 A 
ATOM     33  C   UNL     1      -4.602   1.048   0.285  0.00  0.00    +0.032 A 
ATOM     34  C   UNL     1      -5.518   2.192   0.503  0.00  0.00    +0.194 C 
ATOM     35  O   UNL     1      -5.305   3.165   1.197  0.00  0.00    -0.287 OA
ENDBRANCH  19  31
ENDBRANCH   1  19
TORSDOF 5
