REMARK  Name = ZINC45725314
REMARK  7 active torsions:
REMARK  status: ('A' for Active; 'I' for Inactive)
REMARK    1  A    between atoms: C_4  and  N_11
REMARK    2  A    between atoms: C_5  and  C_7
REMARK    3  A    between atoms: C_7  and  C_8
REMARK    4  A    between atoms: N_14  and  C_15
REMARK    5  A    between atoms: C_15  and  C_16
REMARK    6  A    between atoms: C_16  and  C_18
REMARK    7  A    between atoms: C_16  and  N_23
REMARK                            x       y       z     vdW  Elec       q    Type
REMARK                         _______ _______ _______ _____ _____    ______ ____
ROOT
ATOM      1  N   UNL     1       3.666  -0.661   0.253  0.00  0.00    -0.269 N 
ATOM      2  C   UNL     1       4.803   0.030   0.038  0.00  0.00    +0.304 C 
ATOM      3  O   UNL     1       4.777   1.245  -0.011  0.00  0.00    -0.253 OA
ATOM      4  N   UNL     1       5.970  -0.625  -0.122  0.00  0.00    -0.300 N 
ATOM      5  H   UNL     1       3.697  -1.624   0.362  0.00  0.00    +0.156 HD
ATOM      6  H   UNL     1       5.991  -1.594  -0.084  0.00  0.00    +0.150 HD
ENDROOT
BRANCH   1  10
ATOM      7  C   UNL     1       0.017   1.341   0.444  0.00  0.00    +0.000 A 
ATOM      8  C   UNL     1       1.164   1.950   0.920  0.00  0.00    +0.002 A 
ATOM      9  C   UNL     1       2.375   1.289   0.858  0.00  0.00    +0.023 A 
ATOM     10  C   UNL     1       2.441   0.012   0.317  0.00  0.00    +0.038 A 
ATOM     11  C   UNL     1       1.287  -0.597  -0.160  0.00  0.00    -0.017 A 
ATOM     12  C   UNL     1       0.079   0.070  -0.095  0.00  0.00    +0.006 A 
BRANCH  11  13
ATOM     13  C   UNL     1       1.354  -1.983  -0.748  0.00  0.00    +0.132 C 
BRANCH  13  14
ATOM     14  C   UNL     1       1.261  -3.003   0.357  0.00  0.00    +0.215 C 
ATOM     15  O   UNL     1       1.152  -2.640   1.510  0.00  0.00    -0.276 OA
ATOM     16  N   UNL     1       1.299  -4.318   0.066  0.00  0.00    -0.329 N 
ATOM     17  H   UNL     1       1.387  -4.608  -0.856  0.00  0.00    +0.145 HD
ATOM     18  H   UNL     1       1.240  -4.974   0.778  0.00  0.00    +0.145 HD
ENDBRANCH  13  14
ENDBRANCH  11  13
ENDBRANCH   1  10
BRANCH   4  19
ATOM     19  C   UNL     1       7.206   0.126  -0.355  0.00  0.00    +0.095 C 
BRANCH  19  20
ATOM     20  C   UNL     1       8.353  -0.850  -0.624  0.00  0.00    -0.013 C 
BRANCH  20  21
ATOM     21  N   UNL     1       9.563  -0.098  -0.980  0.00  0.00    +0.386 N 
ATOM     22  C   UNL     1      10.634  -1.028  -1.420  0.00  0.00    -0.078 C 
ATOM     23  C   UNL     1      11.568  -0.122  -2.261  0.00  0.00    -0.020 C 
ATOM     24  C   UNL     1      10.577   0.815  -2.989  0.00  0.00    -0.020 C 
ATOM     25  C   UNL     1       9.294   0.783  -2.138  0.00  0.00    -0.078 C 
ATOM     26  H   UNL     1       9.878   0.449  -0.193  0.00  0.00    -0.081 HD
ENDBRANCH  20  21
BRANCH  20  27
ATOM     27  C   UNL     1       8.616  -1.669   0.613  0.00  0.00    -0.022 A 
ATOM     28  C   UNL     1       8.223  -2.934   0.899  0.00  0.00    +0.009 A 
ATOM     29  C   UNL     1       8.585  -3.491   2.112  0.00  0.00    +0.008 A 
ATOM     30  C   UNL     1       9.324  -2.755   2.978  0.00  0.00    +0.045 A 
ATOM     31  S   UNL     1       9.534  -1.227   2.079  0.00  0.00    -0.103 S 
ENDBRANCH  20  27
ENDBRANCH  19  20
ENDBRANCH   4  19
TORSDOF 7
