REMARK  Name = ZINC08742752
REMARK  3 active torsions:
REMARK  status: ('A' for Active; 'I' for Inactive)
REMARK    1  A    between atoms: C_1  and  C_2
REMARK    2  A    between atoms: C_7  and  C_19
REMARK    3  A    between atoms: C_10  and  C_12
REMARK                            x       y       z     vdW  Elec       q    Type
REMARK                         _______ _______ _______ _____ _____    ______ ____
ROOT
ATOM      1  C   UNL     1      -0.018   1.503   0.010  0.00  0.00    +0.090 C 
ATOM      2  C   UNL     1       0.002  -0.004   0.002  0.00  0.00    +0.150 A 
ATOM      3  N   UNL     1       0.008  -0.768  -1.091  0.00  0.00    -0.195 NA
ATOM      4  C   UNL     1       0.025  -2.032  -0.747  0.00  0.00    +0.250 A 
ATOM      5  N   UNL     1       0.039  -2.084   0.621  0.00  0.00    -0.221 N 
ATOM      6  N   UNL     1       0.023  -0.768   1.070  0.00  0.00    -0.153 NA
ATOM      7  C   UNL     1       0.077  -3.345   1.362  0.00  0.00    +0.147 C 
ATOM      8  C   UNL     1      -0.616  -4.416   0.511  0.00  0.00    +0.087 C 
ATOM      9  C   UNL     1      -0.209  -4.306  -0.932  0.00  0.00    +0.055 C 
ATOM     10  N   UNL     1       0.052  -3.161  -1.504  0.00  0.00    -0.215 NA
ENDROOT
BRANCH   9  11
ATOM     11  C   UNL     1      -0.100  -5.536  -1.731  0.00  0.00    -0.003 A 
ATOM     12  C   UNL     1      -0.378  -6.778  -1.150  0.00  0.00    +0.011 A 
ATOM     13  C   UNL     1      -0.275  -7.927  -1.905  0.00  0.00    +0.020 A 
ATOM     14  C   UNL     1       0.104  -7.853  -3.236  0.00  0.00    +0.041 A 
ATOM     15  C   UNL     1       0.381  -6.627  -3.818  0.00  0.00    +0.020 A 
ATOM     16  C   UNL     1       0.277  -5.469  -3.076  0.00  0.00    +0.011 A 
ATOM     17 CL   UNL     1       0.231  -9.305  -4.179  0.00  0.00    -0.084 Cl
ENDBRANCH   9  11
BRANCH   7  18
ATOM     18  C   UNL     1       1.508  -3.742   1.618  0.00  0.00    -0.020 A 
ATOM     19  C   UNL     1       2.384  -3.957   0.565  0.00  0.00    +0.025 A 
ATOM     20  C   UNL     1       3.689  -4.321   0.838  0.00  0.00    +0.111 A 
ATOM     21  N   UNL     1       4.103  -4.464   2.082  0.00  0.00    -0.263 NA
ATOM     22  C   UNL     1       3.298  -4.267   3.107  0.00  0.00    +0.111 A 
ATOM     23  C   UNL     1       1.981  -3.896   2.912  0.00  0.00    +0.025 A 
ENDBRANCH   7  18
TORSDOF 2
