REMARK  Name = ZINC07716324
REMARK  5 active torsions:
REMARK  status: ('A' for Active; 'I' for Inactive)
REMARK    1  A    between atoms: C_1  and  C_2
REMARK    2  A    between atoms: C_4  and  C_29
REMARK    3  A    between atoms: C_11  and  C_12
REMARK    4  A    between atoms: C_11  and  O_28
REMARK    5  A    between atoms: C_13  and  C_18
REMARK                            x       y       z     vdW  Elec       q    Type
REMARK                         _______ _______ _______ _____ _____    ______ ____
ROOT
ATOM      1  C   UNL     1       3.443   2.039   1.175  0.00  0.00    +0.064 A 
ATOM      2  C   UNL     1       3.507   0.755   1.638  0.00  0.00    +0.087 A 
ATOM      3  N   UNL     1       3.460   0.533   2.949  0.00  0.00    -0.225 NA
ATOM      4  C   UNL     1       3.341   1.530   3.807  0.00  0.00    +0.156 A 
ATOM      5  S   UNL     1       3.295   2.941   2.711  0.00  0.00    -0.053 S 
ATOM      6  N   UNL     1       3.270   1.492   5.190  0.00  0.00    -0.337 N 
ATOM      7  H   UNL     1       3.182   2.316   5.694  0.00  0.00    +0.144 HD
ATOM      8  H   UNL     1       3.308   0.641   5.654  0.00  0.00    +0.144 HD
ENDROOT
BRANCH   1  19
ATOM      9  C   UNL     1       7.343   6.695  -1.220  0.00  0.00    +0.044 C 
ATOM     10  C   UNL     1       6.396   5.555  -0.948  0.00  0.00    -0.048 A 
ATOM     11  C   UNL     1       6.897   4.313  -0.601  0.00  0.00    +0.007 A 
ATOM     12  C   UNL     1       6.028   3.266  -0.350  0.00  0.00    -0.042 A 
ATOM     13  C   UNL     1       4.669   3.463  -0.447  0.00  0.00    +0.022 A 
ATOM     14  C   UNL     1       4.153   4.706  -0.794  0.00  0.00    +0.041 A 
ATOM     15  C   UNL     1       5.035   5.755  -1.044  0.00  0.00    +0.027 A 
ATOM     16  N   UNL     1       2.759   4.656  -0.831  0.00  0.00    -0.282 N 
ATOM     17  C   UNL     1       2.285   3.439  -0.516  0.00  0.00    +0.259 C 
ATOM     18  O   UNL     1       1.118   3.111  -0.466  0.00  0.00    -0.272 OA
ATOM     19  C   UNL     1       3.481   2.552  -0.242  0.00  0.00    +0.203 C 
ATOM     20  C   UNL     1       6.569   1.911   0.028  0.00  0.00    +0.044 C 
ATOM     21  H   UNL     1       2.197   5.414  -1.056  0.00  0.00    +0.155 HD
BRANCH  19  22
ATOM     22  O   UNL     1       3.519   1.464  -1.167  0.00  0.00    -0.371 OA
ATOM     23  H   UNL     1       2.689   0.972  -1.230  0.00  0.00    +0.212 HD
ENDBRANCH  19  22
ENDBRANCH   1  19
BRANCH   2  24
ATOM     24  C   UNL     1       3.633  -0.378   0.689  0.00  0.00    +0.005 A 
ATOM     25  C   UNL     1       2.496  -0.917   0.090  0.00  0.00    +0.014 A 
ATOM     26  C   UNL     1       2.615  -1.968  -0.795  0.00  0.00    +0.050 A 
ATOM     27  C   UNL     1       3.864  -2.500  -1.084  0.00  0.00    +0.162 A 
ATOM     28  C   UNL     1       5.002  -1.969  -0.487  0.00  0.00    +0.163 A 
ATOM     29  C   UNL     1       4.887  -0.911   0.400  0.00  0.00    +0.059 A 
ATOM     30  O   UNL     1       6.235  -2.473  -0.766  0.00  0.00    -0.485 OA
ATOM     31  C   UNL     1       6.279  -3.770  -1.370  0.00  0.00    +0.270 C 
ATOM     32  C   UNL     1       5.251  -3.804  -2.510  0.00  0.00    +0.270 C 
ATOM     33  O   UNL     1       3.958  -3.544  -1.954  0.00  0.00    -0.485 OA
ENDBRANCH   2  24
TORSDOF 3
