REMARK  Name = ZINC12584574
REMARK  6 active torsions:
REMARK  status: ('A' for Active; 'I' for Inactive)
REMARK    1  A    between atoms: C_3  and  C_29
REMARK    2  A    between atoms: C_5  and  N_7
REMARK    3  A    between atoms: N_7  and  S_8
REMARK    4  A    between atoms: S_8  and  C_11
REMARK    5  A    between atoms: C_15  and  N_17
REMARK    6  A    between atoms: C_18  and  C_20
REMARK                            x       y       z     vdW  Elec       q    Type
REMARK                         _______ _______ _______ _____ _____    ______ ____
ROOT
ATOM      1  C   UNL     1       0.267   5.616  -2.575  0.00  0.00    +0.110 A 
ATOM      2  C   UNL     1       0.948   4.662  -3.308  0.00  0.00    +0.029 A 
ATOM      3  C   UNL     1       0.669   4.489  -4.651  0.00  0.00    +0.004 A 
ATOM      4  C   UNL     1      -0.283   5.277  -5.268  0.00  0.00    +0.023 A 
ATOM      5  C   UNL     1      -0.965   6.240  -4.536  0.00  0.00    +0.036 A 
ATOM      6  C   UNL     1      -0.686   6.408  -3.185  0.00  0.00    +0.052 A 
ENDROOT
BRANCH   5   7
ATOM      7  N   UNL     1      -1.929   7.040  -5.157  0.00  0.00    -0.281 N 
ATOM      8  C   UNL     1      -2.105   8.316  -4.758  0.00  0.00    +0.255 C 
ATOM      9  O   UNL     1      -1.362   8.801  -3.924  0.00  0.00    -0.269 OA
ATOM     10  H   UNL     1      -2.470   6.678  -5.875  0.00  0.00    +0.155 HD
BRANCH   8  11
ATOM     11  C   UNL     1      -3.191   9.118  -5.327  0.00  0.00    +0.075 A 
ATOM     12  C   UNL     1      -3.540  10.429  -5.058  0.00  0.00    +0.024 A 
ATOM     13  C   UNL     1      -4.620  10.970  -5.736  0.00  0.00    -0.036 A 
ATOM     14  C   UNL     1      -5.260  10.154  -6.625  0.00  0.00    -0.006 A 
ATOM     15  S   UNL     1      -4.404   8.662  -6.555  0.00  0.00    -0.088 S 
ATOM     16  C   UNL     1      -6.445  10.498  -7.475  0.00  0.00    +0.043 C 
ATOM     17  C   UNL     1      -7.073  11.789  -6.931  0.00  0.00    +0.005 C 
ATOM     18  C   UNL     1      -5.963  12.820  -6.709  0.00  0.00    +0.005 C 
ATOM     19  C   UNL     1      -5.095  12.405  -5.521  0.00  0.00    +0.036 C 
ENDBRANCH   8  11
ENDBRANCH   5   7
BRANCH   1  20
ATOM     20  S   UNL     1       0.621   5.828  -0.862  0.00  0.00    +0.072 S 
ATOM     21  O   UNL     1       0.243   7.157  -0.530  0.00  0.00    -0.150 OA
ATOM     22  O   UNL     1       1.938   5.337  -0.656  0.00  0.00    -0.150 OA
BRANCH  20  23
ATOM     23  N   UNL     1      -0.395   4.824  -0.024  0.00  0.00    -0.216 N 
ATOM     24  H   UNL     1      -1.069   5.197   0.565  0.00  0.00    +0.174 HD
BRANCH  23  29
ATOM     25  C   UNL     1       1.078   1.467  -0.280  0.00  0.00    +0.002 A 
ATOM     26  C   UNL     1      -0.058   0.696  -0.449  0.00  0.00    +0.012 A 
ATOM     27  C   UNL     1      -1.304   1.293  -0.483  0.00  0.00    +0.057 A 
ATOM     28  C   UNL     1      -1.420   2.661  -0.336  0.00  0.00    +0.036 A 
ATOM     29  C   UNL     1      -0.282   3.439  -0.166  0.00  0.00    +0.049 A 
ATOM     30  C   UNL     1       0.969   2.836  -0.138  0.00  0.00    +0.024 A 
BRANCH  27  31
ATOM     31  C   UNL     1      -2.538   0.449  -0.674  0.00  0.00    +0.417 C 
ATOM     32  F   UNL     1      -2.170  -0.895  -0.792  0.00  0.00    -0.166 F 
ATOM     33  F   UNL     1      -3.385   0.605   0.428  0.00  0.00    -0.166 F 
ATOM     34  F   UNL     1      -3.205   0.854  -1.836  0.00  0.00    -0.166 F 
ENDBRANCH  27  31
ENDBRANCH  23  29
ENDBRANCH  20  23
ENDBRANCH   1  20
TORSDOF 6
