REMARK  Name = ZINC39676492
REMARK  5 active torsions:
REMARK  status: ('A' for Active; 'I' for Inactive)
REMARK    1  A    between atoms: C_7  and  C_11
REMARK    2  A    between atoms: C_15  and  C_24
REMARK    3  A    between atoms: N_26  and  C_27
REMARK    4  A    between atoms: C_27  and  C_28
REMARK    5  A    between atoms: C_28  and  C_29
REMARK                            x       y       z     vdW  Elec       q    Type
REMARK                         _______ _______ _______ _____ _____    ______ ____
ROOT
ATOM      1  C   UNL     1       1.206  -2.696   1.408  0.00  0.00    +0.224 C 
ATOM      2  O   UNL     1       1.058  -1.897   2.308  0.00  0.00    -0.275 OA
ATOM      3  N   UNL     1       1.201  -4.018   1.673  0.00  0.00    -0.300 N 
ATOM      4  C   UNL     1       1.477  -5.133   0.737  0.00  0.00    +0.121 C 
ATOM      5  C   UNL     1       2.298  -6.145   1.567  0.00  0.00    +0.100 C 
ATOM      6  C   UNL     1       1.927  -5.847   3.029  0.00  0.00    -0.004 C 
ATOM      7  C   UNL     1       0.926  -4.684   2.969  0.00  0.00    +0.115 C 
ATOM      8  C   UNL     1       3.166  -5.429   3.814  0.00  0.00    -0.010 C 
ATOM      9  C   UNL     1       2.782  -5.193   5.277  0.00  0.00    -0.082 C 
ATOM     10  N   UNL     1       2.213  -6.423   5.840  0.00  0.00    +0.379 N 
ATOM     11  C   UNL     1       0.971  -6.768   5.139  0.00  0.00    -0.082 C 
ATOM     12  C   UNL     1       1.278  -7.070   3.670  0.00  0.00    -0.010 C 
ATOM     13  H   UNL     1       2.876  -7.177   5.736  0.00  0.00    -0.086 HD
ATOM     14  H   UNL     1       2.018  -6.284   6.820  0.00  0.00    -0.086 HD
ENDROOT
BRANCH   1  21
ATOM     15  C   UNL     1      -1.450   0.303  -0.594  0.00  0.00    +0.000 A 
ATOM     16  C   UNL     1      -0.753   1.495  -0.499  0.00  0.00    +0.001 A 
ATOM     17  C   UNL     1       0.609   1.460  -0.271  0.00  0.00    +0.015 A 
ATOM     18  C   UNL     1       1.256   0.246  -0.137  0.00  0.00    +0.012 A 
ATOM     19  C   UNL     1       0.571  -0.965  -0.214  0.00  0.00    -0.021 A 
ATOM     20  C   UNL     1      -0.804  -0.904  -0.456  0.00  0.00    +0.005 A 
ATOM     21  C   UNL     1       1.394  -2.212  -0.007  0.00  0.00    +0.116 C 
ATOM     22  C   UNL     1       2.898  -1.954  -0.253  0.00  0.00    +0.092 C 
ATOM     23  S   UNL     1       2.967  -0.157   0.137  0.00  0.00    -0.124 S 
ENDBRANCH   1  21
BRANCH   5  24
ATOM     24  C   UNL     1       1.913  -7.556   1.202  0.00  0.00    +0.218 C 
ATOM     25  O   UNL     1       0.811  -7.787   0.751  0.00  0.00    -0.275 OA
ATOM     26  N   UNL     1       2.793  -8.562   1.379  0.00  0.00    -0.315 N 
ATOM     27  H   UNL     1       3.675  -8.377   1.740  0.00  0.00    +0.149 HD
BRANCH  26  28
ATOM     28  C   UNL     1       2.420  -9.933   1.025  0.00  0.00    +0.109 C 
BRANCH  28  29
ATOM     29  C   UNL     1       3.590 -10.873   1.320  0.00  0.00    +0.056 C 
BRANCH  29  30
ATOM     30  C   UNL     1       3.205 -12.284   0.956  0.00  0.00    -0.021 A 
ATOM     31  C   UNL     1       3.300 -12.898  -0.370  0.00  0.00    +0.004 A 
ATOM     32  C   UNL     1       3.730 -12.447  -1.619  0.00  0.00    +0.030 A 
ATOM     33  C   UNL     1       3.692 -13.298  -2.701  0.00  0.00    +0.042 A 
ATOM     34  C   UNL     1       3.229 -14.600  -2.555  0.00  0.00    +0.022 A 
ATOM     35  C   UNL     1       2.801 -15.059  -1.329  0.00  0.00    +0.027 A 
ATOM     36  C   UNL     1       2.831 -14.217  -0.223  0.00  0.00    +0.047 A 
ATOM     37  N   UNL     1       2.481 -14.377   1.100  0.00  0.00    -0.360 N 
ATOM     38  C   UNL     1       2.716 -13.218   1.787  0.00  0.00    +0.087 A 
ATOM     39 CL   UNL     1       4.226 -12.742  -4.257  0.00  0.00    -0.084 Cl
ATOM     40  H   UNL     1       2.125 -15.192   1.487  0.00  0.00    +0.165 HD
ENDBRANCH  29  30
ENDBRANCH  28  29
ENDBRANCH  26  28
ENDBRANCH   5  24
TORSDOF 5
