REMARK  Name = ZINC36524334
REMARK  10 active torsions:
REMARK  status: ('A' for Active; 'I' for Inactive)
REMARK    1  A    between atoms: C_1  and  C_2
REMARK    2  A    between atoms: C_5  and  S_8
REMARK    3  A    between atoms: S_8  and  C_11
REMARK    4  A    between atoms: C_11  and  N_12
REMARK    5  A    between atoms: C_13  and  C_15
REMARK    6  A    between atoms: C_15  and  C_17
REMARK    7  A    between atoms: C_15  and  N_27
REMARK    8  A    between atoms: C_19  and  N_24
REMARK    9  A    between atoms: N_27  and  C_28
REMARK   10  A    between atoms: C_29  and  C_31
REMARK                            x       y       z     vdW  Elec       q    Type
REMARK                         _______ _______ _______ _____ _____    ______ ____
ROOT
ATOM      1  C   UNL     1       3.312  -5.205   3.327  0.00  0.00    +0.193 C 
ENDROOT
BRANCH   1   2
ATOM      2  C   UNL     1       2.322  -4.339   4.064  0.00  0.00    +0.002 A 
ATOM      3  C   UNL     1       1.111  -4.866   4.471  0.00  0.00    +0.040 A 
ATOM      4  C   UNL     1       0.204  -4.072   5.147  0.00  0.00    +0.127 A 
ATOM      5  C   UNL     1       0.507  -2.750   5.416  0.00  0.00    +0.034 A 
ATOM      6  C   UNL     1       1.718  -2.223   5.010  0.00  0.00    +0.022 A 
ATOM      7  C   UNL     1       2.629  -3.018   4.339  0.00  0.00    +0.047 A 
ATOM      8 CL   UNL     1       4.153  -2.358   3.835  0.00  0.00    -0.083 Cl
BRANCH   4   9
ATOM      9  N   UNL     1      -1.093  -4.637   5.582  0.00  0.00    +0.056 N 
ATOM     10  O   UNL     1      -1.359  -5.793   5.346  0.00  0.00    -0.126 OA
ATOM     11  O   UNL     1      -1.887  -3.943   6.173  0.00  0.00    -0.126 OA
ENDBRANCH   4   9
ENDBRANCH   1   2
BRANCH   1  13
ATOM     12  N   UNL     1       2.600  -4.614   1.033  0.00  0.00    -0.294 N 
ATOM     13  C   UNL     1       2.753  -5.566   1.975  0.00  0.00    +0.239 C 
ATOM     14  O   UNL     1       2.442  -6.713   1.734  0.00  0.00    -0.273 OA
ATOM     15  H   UNL     1       2.781  -3.685   1.248  0.00  0.00    +0.150 HD
BRANCH  12  16
ATOM     16  C   UNL     1       2.160  -4.981  -0.315  0.00  0.00    +0.278 C 
BRANCH  16  17
ATOM     17  S   UNL     1       0.361  -4.782  -0.439  0.00  0.00    +0.013 S 
ATOM     18  O   UNL     1      -0.276  -5.380   0.683  0.00  0.00    -0.168 OA
ATOM     19  O   UNL     1      -0.074  -5.074  -1.759  0.00  0.00    -0.168 OA
BRANCH  17  24
ATOM     20  C   UNL     1      -0.598   1.138   0.224  0.00  0.00    +0.044 C 
ATOM     21  C   UNL     1      -0.359  -0.341   0.059  0.00  0.00    -0.050 A 
ATOM     22  C   UNL     1      -0.150  -0.871  -1.201  0.00  0.00    +0.005 A 
ATOM     23  C   UNL     1       0.070  -2.227  -1.353  0.00  0.00    +0.027 A 
ATOM     24  C   UNL     1       0.082  -3.053  -0.245  0.00  0.00    +0.090 A 
ATOM     25  C   UNL     1      -0.126  -2.523   1.015  0.00  0.00    +0.027 A 
ATOM     26  C   UNL     1      -0.342  -1.167   1.167  0.00  0.00    +0.005 A 
ENDBRANCH  17  24
ENDBRANCH  16  17
ENDBRANCH  12  16
ENDBRANCH   1  13
BRANCH   1  27
ATOM     27  N   UNL     1       3.558  -6.428   4.096  0.00  0.00    -0.289 N 
ATOM     28  C   UNL     1       2.451  -7.338   4.398  0.00  0.00    +0.133 C 
ATOM     29  C   UNL     1       4.803  -6.715   4.524  0.00  0.00    +0.219 C 
ATOM     30  O   UNL     1       5.700  -5.914   4.362  0.00  0.00    -0.275 OA
BRANCH  29  31
ATOM     31  C   UNL     1       5.081  -8.030   5.205  0.00  0.00    +0.075 C 
ATOM     32  C   UNL     1       4.370  -8.063   6.560  0.00  0.00    +0.013 C 
ATOM     33  C   UNL     1       4.653  -9.398   7.251  0.00  0.00    +0.001 C 
ATOM     34  C   UNL     1       6.160  -9.555   7.463  0.00  0.00    +0.000 C 
ATOM     35  C   UNL     1       6.871  -9.521   6.108  0.00  0.00    +0.001 C 
ATOM     36  C   UNL     1       6.589  -8.186   5.417  0.00  0.00    +0.013 C 
ENDBRANCH  29  31
ENDBRANCH   1  27
TORSDOF 8
