REMARK  Name = ZINC29677597
REMARK  8 active torsions:
REMARK  status: ('A' for Active; 'I' for Inactive)
REMARK    1  A    between atoms: C_1  and  C_2
REMARK    2  A    between atoms: C_2  and  N_3
REMARK    3  A    between atoms: C_7  and  C_9
REMARK    4  A    between atoms: C_9  and  C_11
REMARK    5  A    between atoms: C_9  and  N_12
REMARK    6  A    between atoms: N_15  and  C_18
REMARK    7  A    between atoms: C_18  and  C_19
REMARK    8  A    between atoms: C_26  and  C_28
REMARK                            x       y       z     vdW  Elec       q    Type
REMARK                         _______ _______ _______ _____ _____    ______ ____
ROOT
ATOM      1  N   UNL     1      -5.540   5.729   1.048  0.00  0.00    -0.295 NA
ATOM      2  C   UNL     1      -5.885   4.609   1.935  0.00  0.00    +0.066 C 
ATOM      3  C   UNL     1      -4.603   4.003   2.509  0.00  0.00    -0.063 C 
ATOM      4  N   UNL     1      -3.741   3.552   1.407  0.00  0.00    +0.387 N 
ATOM      5  C   UNL     1      -3.396   4.672   0.521  0.00  0.00    -0.063 C 
ATOM      6  C   UNL     1      -4.678   5.278  -0.053  0.00  0.00    +0.066 C 
ATOM      7  H   UNL     1      -4.303   2.812   0.818  0.00  0.00    -0.081 HD
ENDROOT
BRANCH   1   8
ATOM      8  C   UNL     1      -6.749   6.387   0.536  0.00  0.00    +0.140 C 
ATOM      9  C   UNL     1      -7.521   5.412  -0.355  0.00  0.00    +0.034 C 
BRANCH   8  14
ATOM     10  N   UNL     1      -7.913  10.216  -2.128  0.00  0.00    -0.299 N 
ATOM     11  C   UNL     1      -6.961   9.451  -1.557  0.00  0.00    +0.306 C 
ATOM     12  O   UNL     1      -5.788   9.740  -1.690  0.00  0.00    -0.252 OA
ATOM     13  N   UNL     1      -7.310   8.365  -0.839  0.00  0.00    -0.239 N 
ATOM     14  C   UNL     1      -6.359   7.601  -0.268  0.00  0.00    +0.237 C 
ATOM     15  O   UNL     1      -5.189   7.889  -0.400  0.00  0.00    -0.274 OA
ATOM     16  H   UNL     1      -8.974   9.954  -2.008  0.00  0.00    +0.150 HD
ATOM     17  H   UNL     1      -8.372   8.104  -0.719  0.00  0.00    +0.159 HD
BRANCH  10  19
ATOM     18  C   UNL     1      -8.793  12.080  -3.443  0.00  0.00    +0.024 C 
ATOM     19  C   UNL     1      -7.533  11.395  -2.909  0.00  0.00    +0.102 C 
ENDBRANCH  10  19
ENDBRANCH   8  14
ENDBRANCH   1   8
BRANCH   4  20
ATOM     20  C   UNL     1      -2.532   2.894   1.920  0.00  0.00    +0.019 C 
BRANCH  20  21
ATOM     21  C   UNL     1      -1.799   2.233   0.781  0.00  0.00    +0.199 C 
ATOM     22  O   UNL     1      -2.240   2.302  -0.346  0.00  0.00    -0.278 OA
ATOM     23  N   UNL     1      -0.652   1.564   1.016  0.00  0.00    -0.300 N 
ATOM     24  C   UNL     1      -0.171   1.363   2.389  0.00  0.00    +0.108 C 
ATOM     25  C   UNL     1       1.272   1.869   2.485  0.00  0.00    +0.019 C 
ATOM     26  C   UNL     1       2.122   1.182   1.414  0.00  0.00    +0.003 C 
ATOM     27  C   UNL     1       1.578   1.532   0.027  0.00  0.00    +0.022 C 
ATOM     28  C   UNL     1       0.139   1.021  -0.097  0.00  0.00    +0.073 C 
ATOM     29  C   UNL     1      -0.457   1.484  -1.428  0.00  0.00    +0.028 C 
ENDBRANCH  20  21
ENDBRANCH   4  20
TORSDOF 5
