REMARK  Name = ZINC36608138
REMARK  15 active torsions:
REMARK  status: ('A' for Active; 'I' for Inactive)
REMARK    1  A    between atoms: C_1  and  C_2
REMARK    2  A    between atoms: C_2  and  C_3
REMARK    3  A    between atoms: C_2  and  C_4
REMARK    4  A    between atoms: C_2  and  C_5
REMARK    5  A    between atoms: C_5  and  C_6
REMARK    6  A    between atoms: C_6  and  C_7
REMARK    7  A    between atoms: C_6  and  C_8
REMARK    8  A    between atoms: C_6  and  N_9
REMARK    9  A    between atoms: C_10  and  C_12
REMARK   10  A    between atoms: C_12  and  C_14
REMARK   11  A    between atoms: C_12  and  N_23
REMARK   12  A    between atoms: C_17  and  N_20
REMARK   13  A    between atoms: N_23  and  C_24
REMARK   14  A    between atoms: C_30  and  C_32
REMARK   15  A    between atoms: C_37  and  O_38
REMARK                            x       y       z     vdW  Elec       q    Type
REMARK                         _______ _______ _______ _____ _____    ______ ____
ROOT
ATOM      1  C   UNL     1       5.169   0.285  -4.010  0.00  0.00    +0.197 C 
ENDROOT
BRANCH   1   2
ATOM      2  C   UNL     1       4.381   1.220  -4.891  0.00  0.00    -0.018 A 
ATOM      3  C   UNL     1       4.788   2.532  -5.045  0.00  0.00    +0.008 A 
ATOM      4  C   UNL     1       4.065   3.389  -5.854  0.00  0.00    +0.033 A 
ATOM      5  C   UNL     1       2.936   2.934  -6.509  0.00  0.00    +0.126 A 
ATOM      6  C   UNL     1       2.530   1.622  -6.355  0.00  0.00    +0.033 A 
ATOM      7  C   UNL     1       3.255   0.763  -5.550  0.00  0.00    +0.008 A 
BRANCH   5   8
ATOM      8  N   UNL     1       2.162   3.852  -7.374  0.00  0.00    +0.056 N 
ATOM      9  O   UNL     1       2.517   5.000  -7.508  0.00  0.00    -0.126 OA
ATOM     10  O   UNL     1       1.174   3.454  -7.946  0.00  0.00    -0.126 OA
ENDBRANCH   5   8
ENDBRANCH   1   2
BRANCH   1  12
ATOM     11  N   UNL     1       3.830   0.778  -1.989  0.00  0.00    -0.308 N 
ATOM     12  C   UNL     1       5.044   0.725  -2.573  0.00  0.00    +0.239 C 
ATOM     13  O   UNL     1       6.034   1.029  -1.944  0.00  0.00    -0.273 OA
ATOM     14  H   UNL     1       3.038   0.535  -2.492  0.00  0.00    +0.149 HD
BRANCH  11  15
ATOM     15  C   UNL     1       3.708   1.205  -0.592  0.00  0.00    +0.030 C 
ATOM     16  C   UNL     1       4.555   2.460  -0.367  0.00  0.00    +0.031 C 
ATOM     17  C   UNL     1       4.200   0.086   0.328  0.00  0.00    +0.031 C 
BRANCH  15  18
ATOM     18  C   UNL     1       2.243   1.515  -0.280  0.00  0.00    +0.031 C 
BRANCH  18  20
ATOM     19  C   UNL     1       1.265   1.393  -2.576  0.00  0.00    +0.010 C 
ATOM     20  C   UNL     1       1.639   2.330  -1.425  0.00  0.00    -0.036 C 
ATOM     21  C   UNL     1       2.662   3.357  -1.916  0.00  0.00    +0.010 C 
ATOM     22  C   UNL     1       0.386   3.055  -0.930  0.00  0.00    +0.010 C 
ENDBRANCH  18  20
ENDBRANCH  15  18
ENDBRANCH  11  15
ENDBRANCH   1  12
BRANCH   1  23
ATOM     23  N   UNL     1       6.579   0.312  -4.407  0.00  0.00    -0.251 N 
ATOM     24  C   UNL     1       7.473  -0.470  -3.770  0.00  0.00    +0.255 C 
ATOM     25  O   UNL     1       8.664  -0.293  -3.939  0.00  0.00    -0.269 OA
BRANCH  23  26
ATOM     26  C   UNL     1       6.997   1.148  -5.447  0.00  0.00    +0.038 A 
ATOM     27  C   UNL     1       7.890   2.180  -5.194  0.00  0.00    +0.023 A 
ATOM     28  C   UNL     1       8.301   3.004  -6.224  0.00  0.00    +0.002 A 
ATOM     29  C   UNL     1       7.824   2.801  -7.506  0.00  0.00    +0.000 A 
ATOM     30  C   UNL     1       6.935   1.774  -7.761  0.00  0.00    +0.002 A 
ATOM     31  C   UNL     1       6.524   0.944  -6.737  0.00  0.00    +0.023 A 
ENDBRANCH  23  26
BRANCH  24  32
ATOM     32  C   UNL     1       7.007  -1.539  -2.867  0.00  0.00    +0.079 A 
ATOM     33  C   UNL     1       5.661  -1.613  -2.502  0.00  0.00    +0.017 A 
ATOM     34  C   UNL     1       5.232  -2.614  -1.658  0.00  0.00    +0.001 A 
ATOM     35  C   UNL     1       6.130  -3.549  -1.169  0.00  0.00    +0.004 A 
ATOM     36  C   UNL     1       7.463  -3.488  -1.522  0.00  0.00    +0.046 A 
ATOM     37  C   UNL     1       7.911  -2.490  -2.375  0.00  0.00    +0.129 A 
BRANCH  37  38
ATOM     38  O   UNL     1       9.220  -2.432  -2.727  0.00  0.00    -0.506 OA
ATOM     39  H   UNL     1       9.764  -1.898  -2.132  0.00  0.00    +0.292 HD
ENDBRANCH  37  38
ENDBRANCH  24  32
ENDBRANCH   1  23
TORSDOF 10
