REMARK  Name = ZINC08733295
REMARK  3 active torsions:
REMARK  status: ('A' for Active; 'I' for Inactive)
REMARK    1  A    between atoms: C_6  and  N_7
REMARK    2  A    between atoms: C_8  and  N_17
REMARK    3  A    between atoms: C_9  and  N_16
REMARK                            x       y       z     vdW  Elec       q    Type
REMARK                         _______ _______ _______ _____ _____    ______ ____
ROOT
ATOM      1  N   UNL     1      -2.585   3.578  -0.457  0.00  0.00    -0.249 N 
ATOM      2  C   UNL     1      -1.442   2.860  -0.731  0.00  0.00    +0.131 A 
ATOM      3  C   UNL     1      -1.318   1.586  -0.248  0.00  0.00    +0.129 A 
ATOM      4  C   UNL     1      -2.361   1.046   0.526  0.00  0.00    +0.277 A 
ATOM      5  O   UNL     1      -2.272  -0.086   0.972  0.00  0.00    -0.266 OA
ATOM      6  N   UNL     1      -3.459   1.786   0.773  0.00  0.00    -0.273 N 
ATOM      7  H   UNL     1      -4.201   1.404   1.324  0.00  0.00    +0.173 HD
ATOM      8  C   UNL     1      -3.567   3.036   0.286  0.00  0.00    +0.335 A 
ATOM      9  O   UNL     1      -4.568   3.686   0.522  0.00  0.00    -0.246 OA
ENDROOT
BRANCH   1  15
ATOM     10  C   UNL     1      -3.296   5.096  -2.198  0.00  0.00    +0.028 A 
ATOM     11  C   UNL     1      -3.436   6.383  -2.680  0.00  0.00    +0.022 A 
ATOM     12  C   UNL     1      -2.998   7.457  -1.926  0.00  0.00    +0.041 A 
ATOM     13  C   UNL     1      -2.424   7.246  -0.685  0.00  0.00    +0.022 A 
ATOM     14  C   UNL     1      -2.286   5.962  -0.196  0.00  0.00    +0.028 A 
ATOM     15  C   UNL     1      -2.724   4.882  -0.951  0.00  0.00    +0.053 A 
ATOM     16 CL   UNL     1      -3.170   9.073  -2.538  0.00  0.00    -0.084 Cl
ENDBRANCH   1  15
BRANCH   3  17
ATOM     17  N   UNL     1      -0.158   0.825  -0.519  0.00  0.00    -0.351 N 
ATOM     18  H   UNL     1      -0.076  -0.076  -0.170  0.00  0.00    +0.143 HD
ATOM     19  H   UNL     1       0.555   1.203  -1.058  0.00  0.00    +0.143 HD
ENDBRANCH   3  17
BRANCH   2  20
ATOM     20  N   UNL     1      -0.435   3.417  -1.488  0.00  0.00    -0.342 N 
ATOM     21  H   UNL     1       0.326   2.878  -1.755  0.00  0.00    +0.144 HD
ATOM     22  H   UNL     1      -0.487   4.348  -1.753  0.00  0.00    +0.144 HD
ENDBRANCH   2  20
TORSDOF 3
