REMARK  Name = ZINC12575414
REMARK  11 active torsions:
REMARK  status: ('A' for Active; 'I' for Inactive)
REMARK    1  A    between atoms: C_1  and  C_2
REMARK    2  A    between atoms: C_5  and  P_7
REMARK    3  A    between atoms: P_7  and  C_19
REMARK    4  A    between atoms: P_7  and  O_23
REMARK    5  A    between atoms: N_8  and  C_9
REMARK    6  A    between atoms: C_12  and  S_15
REMARK    7  A    between atoms: S_15  and  N_18
REMARK    8  A    between atoms: C_19  and  C_20
REMARK    9  A    between atoms: C_19  and  C_21
REMARK   10  A    between atoms: C_19  and  C_22
REMARK   11  A    between atoms: O_23  and  C_24
REMARK                            x       y       z     vdW  Elec       q    Type
REMARK                         _______ _______ _______ _____ _____    ______ ____
ROOT
ATOM      1  P   UNL     1      -2.027   1.338   4.854  0.00  0.00    +0.208 P 
ATOM      2  N   UNL     1      -1.293   0.932   6.161  0.00  0.00    -0.222 NA
ENDROOT
BRANCH   1   7
ATOM      3  C   UNL     1       1.843   3.491   1.878  0.00  0.00    +0.086 C 
ATOM      4  C   UNL     1       0.593   3.382   2.713  0.00  0.00    +0.103 A 
ATOM      5  C   UNL     1      -0.229   4.398   3.035  0.00  0.00    +0.045 A 
ATOM      6  C   UNL     1      -1.268   3.850   3.821  0.00  0.00    +0.055 A 
ATOM      7  C   UNL     1      -1.016   2.534   3.939  0.00  0.00    +0.181 A 
ATOM      8  O   UNL     1       0.113   2.257   3.266  0.00  0.00    -0.455 OA
ENDBRANCH   1   7
BRANCH   2   9
ATOM      9  C   UNL     1      -0.922   1.862   7.029  0.00  0.00    +0.066 A 
ATOM     10  C   UNL     1      -1.420   3.185   6.918  0.00  0.00    +0.029 A 
ATOM     11  C   UNL     1      -1.034   4.129   7.822  0.00  0.00    +0.030 A 
ATOM     12  C   UNL     1      -0.147   3.804   8.841  0.00  0.00    +0.105 A 
ATOM     13  C   UNL     1       0.354   2.514   8.960  0.00  0.00    +0.030 A 
ATOM     14  C   UNL     1      -0.018   1.545   8.075  0.00  0.00    +0.029 A 
BRANCH  12  15
ATOM     15  S   UNL     1       0.346   5.040   9.995  0.00  0.00    +0.056 S 
ATOM     16  O   UNL     1      -0.679   6.024  10.000  0.00  0.00    -0.153 OA
ATOM     17  O   UNL     1       0.752   4.358  11.174  0.00  0.00    -0.153 OA
BRANCH  15  18
ATOM     18  N   UNL     1       1.700   5.771   9.381  0.00  0.00    -0.204 NA
ATOM     19  H   UNL     1       2.063   5.482   8.529  0.00  0.00    +0.144 HD
ATOM     20  H   UNL     1       2.130   6.487   9.874  0.00  0.00    +0.144 HD
ENDBRANCH  15  18
ENDBRANCH  12  15
ENDBRANCH   2   9
BRANCH   1  21
ATOM     21  C   UNL     1      -2.298  -0.142   3.824  0.00  0.00    +0.038 C 
ATOM     22  C   UNL     1      -0.951  -0.665   3.319  0.00  0.00    +0.020 C 
ATOM     23  C   UNL     1      -2.985  -1.225   4.657  0.00  0.00    +0.020 C 
ATOM     24  C   UNL     1      -3.183   0.222   2.630  0.00  0.00    +0.020 C 
ENDBRANCH   1  21
BRANCH   1  25
ATOM     25  O   UNL     1      -3.446   2.004   5.220  0.00  0.00    -0.451 OA
BRANCH  25  26
ATOM     26  C   UNL     1      -4.294   1.171   5.879  0.00  0.00    +0.128 A 
ATOM     27  C   UNL     1      -4.080   0.879   7.218  0.00  0.00    +0.046 A 
ATOM     28  C   UNL     1      -4.943   0.032   7.886  0.00  0.00    +0.005 A 
ATOM     29  C   UNL     1      -6.020  -0.524   7.222  0.00  0.00    +0.015 A 
ATOM     30  C   UNL     1      -6.237  -0.235   5.886  0.00  0.00    +0.021 A 
ATOM     31  C   UNL     1      -5.378   0.616   5.215  0.00  0.00    +0.061 A 
ATOM     32 BR   UNL     1      -7.711  -0.998   4.981  0.00  0.00    -0.050 Br
ENDBRANCH  25  26
ENDBRANCH   1  25
TORSDOF 7
