REMARK  Name = ZINC05477828
REMARK  4 active torsions:
REMARK  status: ('A' for Active; 'I' for Inactive)
REMARK    1  A    between atoms: C_3  and  C_10
REMARK    2  A    between atoms: C_5  and  N_7
REMARK    3  A    between atoms: C_11  and  C_12
REMARK    4  A    between atoms: C_17  and  O_25
REMARK                            x       y       z     vdW  Elec       q    Type
REMARK                         _______ _______ _______ _____ _____    ______ ____
ROOT
ATOM      1  C   UNL     1       4.899   4.249  -0.023  0.00  0.00    +0.239 C 
ATOM      2  O   UNL     1       5.958   3.655   0.060  0.00  0.00    -0.271 OA
ATOM      3  N   UNL     1       4.886   5.594  -0.118  0.00  0.00    -0.298 N 
ATOM      4  C   UNL     1       3.617   6.334  -0.098  0.00  0.00    +0.111 C 
ATOM      5  C   UNL     1       3.689   7.403   0.997  0.00  0.00    +0.054 C 
ATOM      6  C   UNL     1       4.921   8.282   0.768  0.00  0.00    +0.072 C 
ATOM      7  C   UNL     1       4.979   9.361   1.853  0.00  0.00    +0.035 C 
ATOM      8  C   UNL     1       5.051   8.695   3.228  0.00  0.00    +0.003 C 
ATOM      9  C   UNL     1       6.307   7.825   3.310  0.00  0.00    +0.001 C 
ATOM     10  C   UNL     1       6.256   6.750   2.221  0.00  0.00    +0.008 C 
ATOM     11  C   UNL     1       6.184   7.420   0.848  0.00  0.00    +0.038 C 
ATOM     12  C   UNL     1       6.141   6.348  -0.238  0.00  0.00    +0.114 C 
ENDROOT
BRANCH   1  14
ATOM     13  C   UNL     1       3.654   2.155  -0.027  0.00  0.00    +0.013 C 
ATOM     14  C   UNL     1       3.639   3.503  -0.020  0.00  0.00    +0.068 C 
BRANCH  13  17
ATOM     15  C   UNL     1      -0.016   1.378  -0.011  0.00  0.00    +0.003 A 
ATOM     16  C   UNL     1       1.167   2.088  -0.014  0.00  0.00    +0.008 A 
ATOM     17  C   UNL     1       2.387   1.405  -0.023  0.00  0.00    -0.023 A 
ATOM     18  C   UNL     1       2.398   0.007  -0.030  0.00  0.00    +0.040 A 
ATOM     19  C   UNL     1       1.208  -0.688  -0.028  0.00  0.00    +0.127 A 
ATOM     20  C   UNL     1       0.003  -0.005  -0.018  0.00  0.00    +0.033 A 
BRANCH  19  21
ATOM     21  N   UNL     1       1.217  -2.168  -0.035  0.00  0.00    +0.056 N 
ATOM     22  O   UNL     1       2.268  -2.766  -0.044  0.00  0.00    -0.126 OA
ATOM     23  O   UNL     1       0.174  -2.779  -0.033  0.00  0.00    -0.126 OA
ENDBRANCH  19  21
ENDBRANCH  13  17
ENDBRANCH   1  14
BRANCH   6  24
ATOM     24  O   UNL     1       4.841   8.894  -0.520  0.00  0.00    -0.388 OA
ATOM     25  H   UNL     1       4.064   9.457  -0.640  0.00  0.00    +0.210 HD
ENDBRANCH   6  24
TORSDOF 4
