REMARK  Name = ZINC41512883
REMARK  6 active torsions:
REMARK  status: ('A' for Active; 'I' for Inactive)
REMARK    1  A    between atoms: C_1  and  C_2
REMARK    2  A    between atoms: C_4  and  O_32
REMARK    3  A    between atoms: C_5  and  C_24
REMARK    4  A    between atoms: C_11  and  C_12
REMARK    5  A    between atoms: C_24  and  N_25
REMARK    6  A    between atoms: C_28  and  C_31
REMARK                            x       y       z     vdW  Elec       q    Type
REMARK                         _______ _______ _______ _____ _____    ______ ____
ROOT
ATOM      1  C   UNL     1      -0.670   1.599   0.135  0.00  0.00    +0.045 C 
ATOM      2  C   UNL     1      -0.766   0.096   0.113  0.00  0.00    -0.033 A 
ATOM      3  C   UNL     1      -1.038  -0.555  -1.057  0.00  0.00    +0.050 A 
ATOM      4  C   UNL     1      -1.127  -1.944  -1.081  0.00  0.00    +0.122 A 
ATOM      5  C   UNL     1      -0.940  -2.682   0.078  0.00  0.00    +0.020 A 
ATOM      6  C   UNL     1      -0.662  -2.036   1.276  0.00  0.00    +0.145 A 
ATOM      7  C   UNL     1      -0.571  -0.634   1.285  0.00  0.00    +0.071 A 
ATOM      8  C   UNL     1      -0.264  -0.248   2.675  0.00  0.00    +0.232 C 
ATOM      9  O   UNL     1      -0.107   0.876   3.119  0.00  0.00    -0.283 OA
ATOM     10  C   UNL     1      -0.192  -1.522   3.405  0.00  0.00    +0.176 C 
ATOM     11  C   UNL     1       0.068  -1.674   4.729  0.00  0.00    +0.061 C 
ATOM     12  O   UNL     1      -0.443  -2.515   2.519  0.00  0.00    -0.451 OA
ENDROOT
BRANCH  11  13
ATOM     13  C   UNL     1      -0.019  -3.002   5.345  0.00  0.00    +0.022 A 
ATOM     14  C   UNL     1      -0.010  -4.152   4.546  0.00  0.00    +0.027 A 
ATOM     15  C   UNL     1      -0.094  -5.396   5.133  0.00  0.00    +0.019 A 
ATOM     16  C   UNL     1      -0.189  -5.513   6.511  0.00  0.00    +0.024 A 
ATOM     17  C   UNL     1      -0.198  -4.387   7.313  0.00  0.00    +0.022 A 
ATOM     18  C   UNL     1      -0.105  -3.129   6.742  0.00  0.00    +0.136 A 
ATOM     19  O   UNL     1      -0.098  -2.016   7.519  0.00  0.00    -0.465 OA
ATOM     20  C   UNL     1      -0.545  -2.166   8.869  0.00  0.00    +0.395 C 
ATOM     21  O   UNL     1       0.096  -3.314   9.438  0.00  0.00    -0.339 OA
ATOM     22  C   UNL     1      -0.306  -4.539   8.810  0.00  0.00    +0.202 C 
ATOM     23 BR   UNL     1      -0.080  -6.949   4.054  0.00  0.00    -0.050 Br
ENDBRANCH  11  13
BRANCH   4  24
ATOM     24  O   UNL     1      -1.398  -2.582  -2.248  0.00  0.00    -0.506 OA
ATOM     25  H   UNL     1      -0.612  -2.819  -2.759  0.00  0.00    +0.292 HD
ENDBRANCH   4  24
BRANCH   5  26
ATOM     26  C   UNL     1      -1.039  -4.185   0.038  0.00  0.00    -0.036 C 
BRANCH  26  27
ATOM     27  N   UNL     1       0.284  -4.756  -0.246  0.00  0.00    +0.383 N 
ATOM     28  C   UNL     1       0.713  -4.351  -1.590  0.00  0.00    -0.078 C 
ATOM     29  C   UNL     1       2.125  -4.875  -1.859  0.00  0.00    -0.016 C 
ATOM     30  C   UNL     1       2.123  -6.403  -1.761  0.00  0.00    -0.018 C 
ATOM     31  C   UNL     1       1.605  -6.816  -0.381  0.00  0.00    -0.016 C 
ATOM     32  C   UNL     1       0.212  -6.220  -0.166  0.00  0.00    -0.078 C 
ATOM     33  C   UNL     1       3.548  -6.929  -1.951  0.00  0.00    +0.007 C 
ATOM     34  H   UNL     1       0.949  -4.416   0.433  0.00  0.00    -0.081 HD
ENDBRANCH  26  27
ENDBRANCH   5  26
TORSDOF 4
