REMARK  Name = ZINC04308683
REMARK  5 active torsions:
REMARK  status: ('A' for Active; 'I' for Inactive)
REMARK    1  A    between atoms: C_1  and  C_2
REMARK    2  A    between atoms: N_11  and  C_15
REMARK    3  A    between atoms: C_15  and  C_16
REMARK    4  A    between atoms: C_16  and  C_18
REMARK    5  A    between atoms: C_27  and  C_28
REMARK                            x       y       z     vdW  Elec       q    Type
REMARK                         _______ _______ _______ _____ _____    ______ ____
ROOT
ATOM      1  C   UNL     1       4.674   2.916   2.883  0.00  0.00    +0.183 C 
ATOM      2  O   UNL     1       5.087   2.886   1.741  0.00  0.00    -0.290 OA
ENDROOT
BRANCH   1   3
ATOM      3  C   UNL     1       5.584   2.990   3.961  0.00  0.00    +0.052 A 
ATOM      4  C   UNL     1       5.253   3.034   5.398  0.00  0.00    +0.011 A 
ATOM      5  C   UNL     1       4.056   3.018   6.111  0.00  0.00    +0.011 A 
ATOM      6  C   UNL     1       4.081   3.071   7.487  0.00  0.00    +0.001 A 
ATOM      7  C   UNL     1       5.290   3.141   8.163  0.00  0.00    +0.002 A 
ATOM      8  C   UNL     1       6.481   3.158   7.470  0.00  0.00    +0.026 A 
ATOM      9  C   UNL     1       6.478   3.104   6.080  0.00  0.00    +0.048 A 
ATOM     10  N   UNL     1       7.490   3.104   5.140  0.00  0.00    -0.354 N 
ATOM     11  H   UNL     1       8.437   3.146   5.348  0.00  0.00    +0.166 HD
ATOM     12  C   UNL     1       6.974   3.031   3.882  0.00  0.00    +0.058 A 
BRANCH  12  13
ATOM     13  C   UNL     1       7.761   3.003   2.635  0.00  0.00    -0.001 A 
ATOM     14  C   UNL     1       7.445   2.090   1.625  0.00  0.00    +0.010 A 
ATOM     15  C   UNL     1       8.181   2.074   0.459  0.00  0.00    +0.001 A 
ATOM     16  C   UNL     1       9.240   2.950   0.293  0.00  0.00    +0.000 A 
ATOM     17  C   UNL     1       9.563   3.853   1.291  0.00  0.00    +0.001 A 
ATOM     18  C   UNL     1       8.831   3.885   2.459  0.00  0.00    +0.010 A 
ENDBRANCH  12  13
ENDBRANCH   1   3
BRANCH   1  19
ATOM     19  C   UNL     1       3.192   2.873   3.149  0.00  0.00    +0.197 C 
BRANCH  19  29
ATOM     20  C   UNL     1      -0.735   2.020   1.269  0.00  0.00    +0.010 C 
ATOM     21  C   UNL     1      -0.019   1.527   0.010  0.00  0.00    +0.018 C 
ATOM     22  C   UNL     1       0.002  -0.004   0.002  0.00  0.00    +0.006 C 
ATOM     23  C   UNL     1       0.737  -0.496  -1.247  0.00  0.00    +0.000 C 
ATOM     24  C   UNL     1       2.175   0.025  -1.234  0.00  0.00    +0.003 C 
ATOM     25  C   UNL     1       2.162   1.556  -1.230  0.00  0.00    +0.035 C 
ATOM     26  C   UNL     1       1.411   2.056  -0.000  0.00  0.00    +0.115 C 
ATOM     27  C   UNL     1       2.134   1.645   1.262  0.00  0.00    +0.247 C 
ATOM     28  O   UNL     1       2.365   0.517   1.641  0.00  0.00    -0.273 OA
ATOM     29  N   UNL     1       2.469   2.798   1.877  0.00  0.00    -0.217 N 
ATOM     30  C   UNL     1       2.059   3.865   1.180  0.00  0.00    +0.310 C 
ATOM     31  O   UNL     1       2.244   5.014   1.532  0.00  0.00    -0.252 OA
ATOM     32  N   UNL     1       1.418   3.523   0.046  0.00  0.00    -0.285 N 
ATOM     33  H   UNL     1       1.037   4.127  -0.611  0.00  0.00    +0.151 HD
ENDBRANCH  19  29
ENDBRANCH   1  19
TORSDOF 4
