REMARK  Name = ZINC30823844
REMARK  3 active torsions:
REMARK  status: ('A' for Active; 'I' for Inactive)
REMARK    1  A    between atoms: C_6  and  C_7
REMARK    2  A    between atoms: C_8  and  C_9
REMARK    3  A    between atoms: C_12  and  C_14
REMARK                            x       y       z     vdW  Elec       q    Type
REMARK                         _______ _______ _______ _____ _____    ______ ____
ROOT
ATOM      1  C   UNL     1       1.252  -0.424  -0.012  0.00  0.00    +0.242 A 
ATOM      2  N   UNL     1       0.002  -0.004   0.002  0.00  0.00    -0.108 NA
ATOM      3  N   UNL     1      -0.015   1.282   0.009  0.00  0.00    -0.107 NA
ATOM      4  C   UNL     1       1.218   1.737  -0.000  0.00  0.00    +0.249 A 
ATOM      5  O   UNL     1       2.044   0.670  -0.014  0.00  0.00    -0.416 OA
ENDROOT
BRANCH   4   6
ATOM      6  C   UNL     1       1.626   3.156   0.003  0.00  0.00    +0.039 A 
ATOM      7  C   UNL     1       2.980   3.497  -0.003  0.00  0.00    +0.014 A 
ATOM      8  C   UNL     1       3.354   4.824  -0.005  0.00  0.00    +0.016 A 
ATOM      9  C   UNL     1       2.390   5.818   0.009  0.00  0.00    +0.018 A 
ATOM     10  C   UNL     1       1.046   5.487   0.020  0.00  0.00    +0.016 A 
ATOM     11  C   UNL     1       0.659   4.163   0.017  0.00  0.00    +0.014 A 
ATOM     12 BR   UNL     1       2.913   7.636   0.013  0.00  0.00    -0.050 Br
ENDBRANCH   4   6
BRANCH   1  14
ATOM     13  C   UNL     1       0.792  -2.816  -0.021  0.00  0.00    +0.013 C 
ATOM     14  C   UNL     1       1.698  -1.818  -0.024  0.00  0.00    +0.070 C 
BRANCH  13  20
ATOM     15  C   UNL     1       2.606  -4.518  -0.053  0.00  0.00    +0.009 A 
ATOM     16  C   UNL     1       3.019  -5.833  -0.059  0.00  0.00    +0.020 A 
ATOM     17  C   UNL     1       2.085  -6.856  -0.056  0.00  0.00    +0.041 A 
ATOM     18  C   UNL     1       0.731  -6.566  -0.042  0.00  0.00    +0.020 A 
ATOM     19  C   UNL     1       0.303  -5.255  -0.030  0.00  0.00    +0.009 A 
ATOM     20  C   UNL     1       1.241  -4.218  -0.033  0.00  0.00    -0.025 A 
ATOM     21 CL   UNL     1       2.615  -8.509  -0.071  0.00  0.00    -0.084 Cl
ENDBRANCH  13  20
ENDBRANCH   1  14
TORSDOF 3
