REMARK  Name = ZINC36220528
REMARK  9 active torsions:
REMARK  status: ('A' for Active; 'I' for Inactive)
REMARK    1  A    between atoms: C_1  and  C_2
REMARK    2  A    between atoms: C_7  and  C_8
REMARK    3  A    between atoms: C_8  and  N_9
REMARK    4  A    between atoms: C_10  and  C_32
REMARK    5  A    between atoms: C_12  and  C_17
REMARK    6  A    between atoms: C_20  and  N_23
REMARK    7  A    between atoms: C_24  and  C_26
REMARK    8  A    between atoms: N_34  and  C_35
REMARK    9  A    between atoms: C_35  and  C_36
REMARK                            x       y       z     vdW  Elec       q    Type
REMARK                         _______ _______ _______ _____ _____    ______ ____
ROOT
ATOM      1  N   UNL     1      -1.431  -0.026   3.188  0.00  0.00    -0.248 N 
ATOM      2  C   UNL     1      -2.155   1.213   2.843  0.00  0.00    +0.210 C 
ATOM      3  C   UNL     1      -3.632   0.793   3.034  0.00  0.00    +0.238 C 
ATOM      4  O   UNL     1      -3.514  -0.300   3.965  0.00  0.00    -0.440 OA
ATOM      5  C   UNL     1      -2.297  -0.849   3.808  0.00  0.00    +0.405 C 
ATOM      6  O   UNL     1      -2.009  -1.966   4.189  0.00  0.00    -0.226 OA
ENDROOT
BRANCH   3   7
ATOM      7  C   UNL     1      -4.439   1.920   3.626  0.00  0.00    -0.005 A 
ATOM      8  C   UNL     1      -4.383   2.170   4.985  0.00  0.00    +0.009 A 
ATOM      9  C   UNL     1      -5.121   3.202   5.530  0.00  0.00    +0.024 A 
ATOM     10  C   UNL     1      -5.921   3.989   4.711  0.00  0.00    +0.034 A 
ATOM     11  C   UNL     1      -5.975   3.736   3.347  0.00  0.00    +0.024 A 
ATOM     12  C   UNL     1      -5.230   2.705   2.807  0.00  0.00    +0.009 A 
BRANCH  10  13
ATOM     13  N   UNL     1      -6.670   5.035   5.260  0.00  0.00    -0.282 N 
ATOM     14  C   UNL     1      -7.867   5.357   4.729  0.00  0.00    +0.248 C 
ATOM     15  O   UNL     1      -8.337   4.681   3.835  0.00  0.00    -0.270 OA
ATOM     16  H   UNL     1      -6.329   5.527   6.023  0.00  0.00    +0.155 HD
BRANCH  14  17
ATOM     17  C   UNL     1      -8.607   6.532   5.235  0.00  0.00    +0.037 A 
ATOM     18  C   UNL     1      -8.067   7.314   6.258  0.00  0.00    +0.013 A 
ATOM     19  C   UNL     1      -8.763   8.410   6.725  0.00  0.00    +0.001 A 
ATOM     20  C   UNL     1      -9.993   8.735   6.182  0.00  0.00    +0.000 A 
ATOM     21  C   UNL     1     -10.534   7.964   5.168  0.00  0.00    +0.001 A 
ATOM     22  C   UNL     1      -9.846   6.869   4.688  0.00  0.00    +0.013 A 
ENDBRANCH  14  17
ENDBRANCH  10  13
ENDBRANCH   3   7
BRANCH   2  23
ATOM     23  C   UNL     1      -1.784   2.331   3.783  0.00  0.00    +0.238 C 
ATOM     24  O   UNL     1      -1.268   2.079   4.851  0.00  0.00    -0.274 OA
ATOM     25  N   UNL     1      -2.026   3.611   3.437  0.00  0.00    -0.307 N 
ATOM     26  H   UNL     1      -2.438   3.812   2.583  0.00  0.00    +0.149 HD
BRANCH  25  27
ATOM     27  C   UNL     1      -1.665   4.697   4.351  0.00  0.00    +0.178 C 
BRANCH  27  28
ATOM     28  C   UNL     1      -2.038   6.019   3.731  0.00  0.00    +0.122 A 
ATOM     29  C   UNL     1      -3.217   6.651   3.874  0.00  0.00    +0.046 A 
ATOM     30  C   UNL     1      -3.133   7.849   3.128  0.00  0.00    +0.041 A 
ATOM     31  C   UNL     1      -1.908   7.878   2.574  0.00  0.00    +0.195 A 
ATOM     32  O   UNL     1      -1.247   6.770   2.947  0.00  0.00    -0.466 OA
ENDBRANCH  27  28
ENDBRANCH  25  27
ENDBRANCH   2  23
BRANCH   1  33
ATOM     33  C   UNL     1      -0.023  -0.313   2.901  0.00  0.00    +0.147 C 
BRANCH  33  40
ATOM     34  C   UNL     1       2.551  -1.212   1.946  0.00  0.00    +0.044 C 
ATOM     35  C   UNL     1       1.320  -1.419   1.102  0.00  0.00    -0.046 A 
ATOM     36  C   UNL     1       1.422  -2.045  -0.127  0.00  0.00    +0.003 A 
ATOM     37  C   UNL     1       0.293  -2.235  -0.901  0.00  0.00    +0.000 A 
ATOM     38  C   UNL     1      -0.938  -1.800  -0.446  0.00  0.00    +0.000 A 
ATOM     39  C   UNL     1      -1.040  -1.175   0.783  0.00  0.00    +0.005 A 
ATOM     40  C   UNL     1       0.089  -0.989   1.559  0.00  0.00    -0.027 A 
ENDBRANCH  33  40
ENDBRANCH   1  33
TORSDOF 8
