REMARK  Name = ZINC08719023
REMARK  7 active torsions:
REMARK  status: ('A' for Active; 'I' for Inactive)
REMARK    1  A    between atoms: C_1  and  C_2
REMARK    2  A    between atoms: C_4  and  C_18
REMARK    3  A    between atoms: C_5  and  C_17
REMARK    4  A    between atoms: N_6  and  C_7
REMARK    5  A    between atoms: C_7  and  C_8
REMARK    6  A    between atoms: C_18  and  C_20
REMARK    7  A    between atoms: C_20  and  N_21
REMARK                            x       y       z     vdW  Elec       q    Type
REMARK                         _______ _______ _______ _____ _____    ______ ____
ROOT
ATOM      1  C   UNL     1       0.623   5.763   2.054  0.00  0.00    +0.183 C 
ATOM      2  O   UNL     1       1.403   5.205   1.310  0.00  0.00    -0.290 OA
ENDROOT
BRANCH   1   6
ATOM      3  C   UNL     1      -0.199  10.483   3.787  0.00  0.00    +0.063 C 
ATOM      4  C   UNL     1       0.362   9.284   3.067  0.00  0.00    +0.017 A 
ATOM      5  C   UNL     1      -0.112   8.030   3.156  0.00  0.00    +0.034 A 
ATOM      6  C   UNL     1       0.740   7.203   2.291  0.00  0.00    +0.040 A 
ATOM      7  C   UNL     1       1.679   8.062   1.753  0.00  0.00    +0.027 A 
ATOM      8  N   UNL     1       1.434   9.298   2.223  0.00  0.00    -0.343 N 
ATOM      9  C   UNL     1       2.784   7.681   0.801  0.00  0.00    +0.064 C 
BRANCH   8  10
ATOM     10  C   UNL     1       2.212  10.492   1.881  0.00  0.00    +0.157 C 
BRANCH  10  11
ATOM     11  C   UNL     1       3.347  10.649   2.860  0.00  0.00    -0.024 A 
ATOM     12  C   UNL     1       4.570  10.059   2.600  0.00  0.00    +0.009 A 
ATOM     13  C   UNL     1       5.613  10.201   3.496  0.00  0.00    +0.050 A 
ATOM     14  C   UNL     1       5.435  10.935   4.657  0.00  0.00    +0.166 A 
ATOM     15  C   UNL     1       4.203  11.529   4.919  0.00  0.00    +0.167 A 
ATOM     16  C   UNL     1       3.164  11.388   4.014  0.00  0.00    +0.055 A 
ATOM     17  O   UNL     1       4.282  12.189   6.112  0.00  0.00    -0.453 OA
ATOM     18  C   UNL     1       5.689  12.335   6.378  0.00  0.00    +0.466 C 
ATOM     19  O   UNL     1       6.286  11.222   5.686  0.00  0.00    -0.453 OA
ENDBRANCH  10  11
ENDBRANCH   8  10
ENDBRANCH   1   6
BRANCH   1  20
ATOM     20  C   UNL     1      -0.466   4.973   2.734  0.00  0.00    +0.197 C 
BRANCH  20  21
ATOM     21  N   UNL     1      -0.370   3.567   2.336  0.00  0.00    -0.216 N 
ATOM     22  C   UNL     1      -1.006   3.038   1.264  0.00  0.00    +0.251 C 
ATOM     23  O   UNL     1      -1.675   3.669   0.474  0.00  0.00    -0.272 OA
ATOM     24  C   UNL     1      -0.692   1.571   1.285  0.00  0.00    +0.138 C 
ATOM     25  C   UNL     1      -0.013   1.090   0.008  0.00  0.00    +0.040 C 
ATOM     26  C   UNL     1      -0.713   1.583  -1.241  0.00  0.00    +0.003 C 
ATOM     27  C   UNL     1      -2.054   0.926  -1.504  0.00  0.00    +0.005 C 
ATOM     28  C   UNL     1      -3.111   1.432  -0.525  0.00  0.00    +0.035 C 
ATOM     29  C   UNL     1      -3.001   0.659   0.772  0.00  0.00    -0.042 A 
ATOM     30  C   UNL     1      -1.910   0.730   1.589  0.00  0.00    -0.012 A 
ATOM     31  C   UNL     1      -1.890  -0.005   2.771  0.00  0.00    +0.006 A 
ATOM     32  C   UNL     1      -2.960  -0.805   3.116  0.00  0.00    +0.000 A 
ATOM     33  C   UNL     1      -4.060  -0.880   2.283  0.00  0.00    +0.000 A 
ATOM     34  C   UNL     1      -4.080  -0.150   1.112  0.00  0.00    +0.004 A 
ATOM     35  N   UNL     1       0.263   1.434   2.406  0.00  0.00    -0.281 N 
ATOM     36  C   UNL     1       0.353   2.646   2.981  0.00  0.00    +0.310 C 
ATOM     37  O   UNL     1       1.015   2.878   3.974  0.00  0.00    -0.252 OA
ATOM     38  H   UNL     1       0.728   0.624   2.660  0.00  0.00    +0.152 HD
ENDBRANCH  20  21
ENDBRANCH   1  20
TORSDOF 5
