REMARK  Name = ZINC00628054
REMARK  7 active torsions:
REMARK  status: ('A' for Active; 'I' for Inactive)
REMARK    1  A    between atoms: C_1  and  N_2
REMARK    2  A    between atoms: N_11  and  C_21
REMARK    3  A    between atoms: C_21  and  C_22
REMARK    4  A    between atoms: C_22  and  C_24
REMARK    5  A    between atoms: C_22  and  O_33
REMARK    6  A    between atoms: C_24  and  O_25
REMARK    7  A    between atoms: O_25  and  C_26
REMARK                            x       y       z     vdW  Elec       q    Type
REMARK                         _______ _______ _______ _____ _____    ______ ____
ROOT
ATOM      1  C   UNL     1       0.304   1.237  -0.498  0.00  0.00    +0.155 C 
ATOM      2  N   UNL     1       0.268  -0.216  -0.316  0.00  0.00    -0.280 N 
ATOM      3  C   UNL     1      -0.948  -0.867  -0.180  0.00  0.00    +0.170 A 
ATOM      4  C   UNL     1      -0.955  -2.247  -0.009  0.00  0.00    +0.153 A 
ATOM      5  C   UNL     1       0.268  -2.941   0.020  0.00  0.00    +0.280 A 
ATOM      6  O   UNL     1       0.286  -4.150   0.169  0.00  0.00    -0.265 OA
ATOM      7  N   UNL     1       1.420  -2.253  -0.118  0.00  0.00    -0.273 N 
ATOM      8  H   UNL     1       2.265  -2.729  -0.098  0.00  0.00    +0.173 HD
ATOM      9  C   UNL     1       1.415  -0.920  -0.287  0.00  0.00    +0.331 A 
ATOM     10  O   UNL     1       2.474  -0.334  -0.412  0.00  0.00    -0.246 OA
ATOM     11  N   UNL     1      -2.288  -2.621   0.099  0.00  0.00    -0.304 N 
ATOM     12  C   UNL     1      -3.023  -1.483  -0.008  0.00  0.00    +0.201 A 
ATOM     13  N   UNL     1      -2.217  -0.454  -0.172  0.00  0.00    -0.196 NA
ATOM     14  N   UNL     1      -4.397  -1.417   0.046  0.00  0.00    -0.301 N 
ATOM     15  C   UNL     1      -5.144  -1.498  -1.188  0.00  0.00    +0.108 C 
ATOM     16  C   UNL     1      -5.332  -0.079  -1.777  0.00  0.00    +0.019 C 
ATOM     17  C   UNL     1      -6.285   0.690  -0.963  0.00  0.00    +0.002 C 
ATOM     18  C   UNL     1      -5.832   0.934   0.473  0.00  0.00    +0.002 C 
ATOM     19  C   UNL     1      -6.207  -0.254   1.324  0.00  0.00    +0.019 C 
ATOM     20  C   UNL     1      -5.046  -1.270   1.364  0.00  0.00    +0.108 C 
ENDROOT
BRANCH  11  21
ATOM     21  C   UNL     1      -2.801  -3.980   0.290  0.00  0.00    +0.160 C 
BRANCH  21  22
ATOM     22  C   UNL     1      -3.086  -4.614  -1.073  0.00  0.00    +0.172 C 
BRANCH  22  23
ATOM     23  O   UNL     1      -1.863  -4.754  -1.798  0.00  0.00    -0.387 OA
ATOM     24  H   UNL     1      -1.181  -5.253  -1.328  0.00  0.00    +0.210 HD
ENDBRANCH  22  23
BRANCH  22  25
ATOM     25  C   UNL     1      -3.720  -5.992  -0.872  0.00  0.00    +0.262 C 
BRANCH  25  26
ATOM     26  O   UNL     1      -4.092  -6.534  -2.141  0.00  0.00    -0.489 OA
BRANCH  26  27
ATOM     27  C   UNL     1      -4.674  -7.763  -2.140  0.00  0.00    +0.121 A 
ATOM     28  C   UNL     1      -4.887  -8.429  -0.942  0.00  0.00    +0.046 A 
ATOM     29  C   UNL     1      -5.479  -9.677  -0.943  0.00  0.00    +0.018 A 
ATOM     30  C   UNL     1      -5.859 -10.263  -2.138  0.00  0.00    +0.014 A 
ATOM     31  C   UNL     1      -5.647  -9.600  -3.333  0.00  0.00    +0.018 A 
ATOM     32  C   UNL     1      -5.061  -8.349  -3.336  0.00  0.00    +0.046 A 
ATOM     33  I   UNL     1      -6.756 -12.156  -2.136  0.00  0.00    -0.044 I 
ENDBRANCH  26  27
ENDBRANCH  25  26
ENDBRANCH  22  25
ENDBRANCH  21  22
ENDBRANCH  11  21
TORSDOF 6
