REMARK  Name = ZINC39510268
REMARK  7 active torsions:
REMARK  status: ('A' for Active; 'I' for Inactive)
REMARK    1  A    between atoms: C_4  and  C_7
REMARK    2  A    between atoms: C_7  and  N_8
REMARK    3  A    between atoms: C_12  and  S_27
REMARK    4  A    between atoms: C_17  and  C_20
REMARK    5  A    between atoms: C_25  and  O_26
REMARK    6  A    between atoms: S_27  and  O_30
REMARK    7  A    between atoms: O_30  and  C_31
REMARK                            x       y       z     vdW  Elec       q    Type
REMARK                         _______ _______ _______ _____ _____    ______ ____
ROOT
ATOM      1  N   UNL     1       4.139  -1.144   1.207  0.00  0.00    +0.387 N 
ATOM      2  C   UNL     1       3.156  -2.092   1.746  0.00  0.00    -0.077 C 
ATOM      3  C   UNL     1       3.481  -2.390   3.211  0.00  0.00    -0.017 C 
ATOM      4  C   UNL     1       4.880  -3.006   3.305  0.00  0.00    +0.026 C 
ATOM      5  C   UNL     1       5.893  -2.043   2.678  0.00  0.00    +0.161 C 
ATOM      6  C   UNL     1       5.477  -1.738   1.240  0.00  0.00    -0.039 C 
ATOM      7  C   UNL     1       5.501  -3.027   0.404  0.00  0.00    -0.009 C 
ATOM      8  C   UNL     1       6.535  -2.803  -0.719  0.00  0.00    +0.007 C 
ATOM      9  C   UNL     1       6.609  -1.262  -0.865  0.00  0.00    +0.021 C 
ATOM     10  C   UNL     1       6.493  -0.773   0.600  0.00  0.00    -0.002 C 
ATOM     11  H   UNL     1       4.132  -0.303   1.765  0.00  0.00    -0.080 HD
ENDROOT
BRANCH   9  12
ATOM     12  C   UNL     1       7.925  -0.845  -1.469  0.00  0.00    -0.003 A 
ATOM     13  C   UNL     1       9.110  -1.188  -0.847  0.00  0.00    +0.007 A 
ATOM     14  C   UNL     1      10.318  -0.805  -1.400  0.00  0.00    +0.001 A 
ATOM     15  C   UNL     1      10.344  -0.080  -2.577  0.00  0.00    +0.004 A 
ATOM     16  C   UNL     1       9.162   0.265  -3.203  0.00  0.00    +0.046 A 
ATOM     17  C   UNL     1       7.948  -0.122  -2.652  0.00  0.00    +0.120 A 
BRANCH  17  18
ATOM     18  O   UNL     1       6.784   0.211  -3.269  0.00  0.00    -0.506 OA
ATOM     19  H   UNL     1       6.419   1.061  -2.988  0.00  0.00    +0.292 HD
ENDBRANCH  17  18
ENDBRANCH   9  12
BRANCH   5  20
ATOM     20  S   UNL     1       7.538  -2.806   2.685  0.00  0.00    +0.122 S 
ATOM     21  O   UNL     1       7.507  -4.043   1.988  0.00  0.00    -0.137 OA
ATOM     22  O   UNL     1       8.530  -1.832   2.389  0.00  0.00    -0.137 OA
BRANCH  20  23
ATOM     23  O   UNL     1       7.788  -3.185   4.138  0.00  0.00    -0.346 OA
BRANCH  23  24
ATOM     24  C   UNL     1       8.117  -2.134   4.934  0.00  0.00    +0.156 A 
ATOM     25  C   UNL     1       9.450  -1.819   5.153  0.00  0.00    +0.048 A 
ATOM     26  C   UNL     1       9.782  -0.750   5.963  0.00  0.00    +0.004 A 
ATOM     27  C   UNL     1       8.787   0.005   6.556  0.00  0.00    +0.000 A 
ATOM     28  C   UNL     1       7.457  -0.307   6.340  0.00  0.00    +0.004 A 
ATOM     29  C   UNL     1       7.120  -1.371   5.526  0.00  0.00    +0.048 A 
ENDBRANCH  23  24
ENDBRANCH  20  23
ENDBRANCH   5  20
BRANCH   1  30
ATOM     30  C   UNL     1       3.787  -0.812  -0.180  0.00  0.00    -0.042 C 
BRANCH  30  34
ATOM     31  C   UNL     1       0.006   1.176  -0.254  0.00  0.00    +0.000 A 
ATOM     32  C   UNL     1       1.171   1.910  -0.128  0.00  0.00    +0.000 A 
ATOM     33  C   UNL     1       2.394   1.267  -0.104  0.00  0.00    +0.002 A 
ATOM     34  C   UNL     1       2.453  -0.111  -0.205  0.00  0.00    -0.064 A 
ATOM     35  C   UNL     1       1.289  -0.845  -0.330  0.00  0.00    +0.002 A 
ATOM     36  C   UNL     1       0.065  -0.202  -0.355  0.00  0.00    +0.000 A 
ENDBRANCH  30  34
ENDBRANCH   1  30
TORSDOF 7
