REMARK  Name = ZINC09499482
REMARK  10 active torsions:
REMARK  status: ('A' for Active; 'I' for Inactive)
REMARK    1  A    between atoms: C_1  and  C_2
REMARK    2  A    between atoms: C_4  and  C_33
REMARK    3  A    between atoms: C_5  and  C_32
REMARK    4  A    between atoms: C_6  and  S_9
REMARK    5  A    between atoms: C_7  and  C_8
REMARK    6  A    between atoms: S_9  and  N_12
REMARK    7  A    between atoms: C_15  and  C_18
REMARK    8  A    between atoms: C_25  and  C_26
REMARK    9  A    between atoms: C_25  and  N_72
REMARK   10  A    between atoms: N_28  and  C_29
REMARK                            x       y       z     vdW  Elec       q    Type
REMARK                         _______ _______ _______ _____ _____    ______ ____
ROOT
ATOM      1  N   UNL     1      -0.989  -0.986   0.086  0.00  0.00    -0.177 NA
ATOM      2  C   UNL     1      -1.864  -0.946  -1.094  0.00  0.00    +0.110 C 
ATOM      3  C   UNL     1      -2.410   0.477  -1.255  0.00  0.00    +0.030 C 
ATOM      4  C   UNL     1      -1.242   1.464  -1.305  0.00  0.00    +0.078 C 
ATOM      5  C   UNL     1      -0.456   1.394   0.006  0.00  0.00    +0.030 C 
ATOM      6  C   UNL     1       0.112  -0.018   0.181  0.00  0.00    +0.110 C 
ENDROOT
BRANCH   4   7
ATOM      7  C   UNL     1      -1.773   2.861  -1.498  0.00  0.00    +0.219 C 
ATOM      8  O   UNL     1      -2.961   3.079  -1.383  0.00  0.00    -0.275 OA
ATOM      9  N   UNL     1      -0.929   3.868  -1.798  0.00  0.00    -0.305 N 
ATOM     10  C   UNL     1       0.505   3.615  -2.002  0.00  0.00    +0.089 C 
ATOM     11  C   UNL     1       0.921   4.249  -3.339  0.00  0.00    -0.059 C 
ATOM     12  C   UNL     1      -0.924   5.820  -3.258  0.00  0.00    -0.059 C 
ATOM     13  C   UNL     1      -1.417   5.250  -1.923  0.00  0.00    +0.089 C 
ATOM     14  N   UNL     1       0.547   5.680  -3.320  0.00  0.00    +0.387 N 
ATOM     15  H   UNL     1       0.959   6.121  -2.490  0.00  0.00    -0.081 HD
BRANCH  14  16
ATOM     16  C   UNL     1       1.066   6.353  -4.529  0.00  0.00    +0.019 C 
BRANCH  16  17
ATOM     17  C   UNL     1       2.571   6.385  -4.456  0.00  0.00    +0.197 C 
ATOM     18  O   UNL     1       3.144   5.885  -3.511  0.00  0.00    -0.278 OA
ATOM     19  N   UNL     1       3.281   6.969  -5.442  0.00  0.00    -0.314 N 
ATOM     20  H   UNL     1       2.823   7.369  -6.198  0.00  0.00    +0.149 HD
BRANCH  19  21
ATOM     21  C   UNL     1       4.744   7.000  -5.372  0.00  0.00    +0.073 C 
ATOM     22  C   UNL     1       5.441   8.312  -5.736  0.00  0.00    +0.024 C 
ATOM     23  C   UNL     1       5.512   7.117  -6.690  0.00  0.00    +0.024 C 
ENDBRANCH  19  21
ENDBRANCH  16  17
ENDBRANCH  14  16
ENDBRANCH   4   7
BRANCH   1  24
ATOM     24  S   UNL     1      -1.240  -2.100   1.285  0.00  0.00    +0.061 S 
ATOM     25  O   UNL     1      -0.661  -1.563   2.466  0.00  0.00    -0.153 OA
ATOM     26  O   UNL     1      -2.608  -2.477   1.210  0.00  0.00    -0.153 OA
BRANCH  24  32
ATOM     27  C   UNL     1       3.032  -5.077   1.742  0.00  0.00    +0.044 C 
ATOM     28  C   UNL     1       1.679  -4.857   1.117  0.00  0.00    -0.045 A 
ATOM     29  C   UNL     1       1.174  -5.778   0.218  0.00  0.00    +0.007 A 
ATOM     30  C   UNL     1      -0.068  -5.576  -0.355  0.00  0.00    -0.045 A 
ATOM     31  C   UNL     1      -0.805  -4.453  -0.029  0.00  0.00    -0.021 A 
ATOM     32  C   UNL     1      -0.300  -3.532   0.870  0.00  0.00    +0.112 A 
ATOM     33  C   UNL     1       0.943  -3.731   1.439  0.00  0.00    -0.021 A 
ATOM     34  C   UNL     1       1.496  -2.724   2.414  0.00  0.00    +0.046 C 
ATOM     35  C   UNL     1      -2.158  -4.233  -0.654  0.00  0.00    +0.046 C 
ATOM     36  C   UNL     1      -0.618  -6.581  -1.334  0.00  0.00    +0.044 C 
ENDBRANCH  24  32
ENDBRANCH   1  24
TORSDOF 6
