REMARK  Name = ZINC06321230
REMARK  7 active torsions:
REMARK  status: ('A' for Active; 'I' for Inactive)
REMARK    1  A    between atoms: C_1  and  C_2
REMARK    2  A    between atoms: C_6  and  C_15
REMARK    3  A    between atoms: C_13  and  C_14
REMARK    4  A    between atoms: C_15  and  C_17
REMARK    5  A    between atoms: C_15  and  N_68
REMARK    6  A    between atoms: N_21  and  C_22
REMARK    7  A    between atoms: C_29  and  C_32
REMARK                            x       y       z     vdW  Elec       q    Type
REMARK                         _______ _______ _______ _____ _____    ______ ____
ROOT
ATOM      1  C   UNL     1      -4.986   3.842   0.069  0.00  0.00    +0.039 C 
ENDROOT
BRANCH   1   7
ATOM      2  C   UNL     1       2.463   3.739   0.407  0.00  0.00    +0.044 C 
ATOM      3  C   UNL     1       1.138   3.022   0.409  0.00  0.00    -0.047 A 
ATOM      4  C   UNL     1      -0.020   3.739   0.297  0.00  0.00    +0.013 A 
ATOM      5  C   UNL     1      -1.250   3.075   0.299  0.00  0.00    -0.001 A 
ATOM      6  C   UNL     1      -2.510   3.812   0.181  0.00  0.00    +0.017 A 
ATOM      7  C   UNL     1      -3.672   3.114   0.188  0.00  0.00    +0.011 A 
ATOM      8  C   UNL     1      -3.656   1.708   0.307  0.00  0.00    +0.251 A 
ATOM      9  O   UNL     1      -4.713   1.100   0.312  0.00  0.00    -0.268 OA
ATOM     10  N   UNL     1      -2.505   1.022   0.416  0.00  0.00    -0.322 N 
ATOM     11  H   UNL     1      -2.530   0.056   0.496  0.00  0.00    +0.169 HD
ATOM     12  C   UNL     1      -1.289   1.672   0.409  0.00  0.00    +0.049 A 
ATOM     13  C   UNL     1      -0.098   0.963   0.527  0.00  0.00    +0.030 A 
ATOM     14  C   UNL     1       1.103   1.639   0.523  0.00  0.00    -0.046 A 
ATOM     15  C   UNL     1       2.393   0.869   0.644  0.00  0.00    +0.044 C 
ENDBRANCH   1   7
BRANCH   1  21
ATOM     16  C   UNL     1      -5.043   3.420  -2.317  0.00  0.00    -0.072 C 
ATOM     17  C   UNL     1      -5.732   2.544  -3.367  0.00  0.00    +0.017 C 
ATOM     18  C   UNL     1      -7.213   2.798  -3.347  0.00  0.00    -0.048 C 
ATOM     19  C   UNL     1      -7.817   3.400  -2.345  0.00  0.00    -0.041 C 
ATOM     20  C   UNL     1      -7.088   3.898  -1.130  0.00  0.00    -0.049 C 
ATOM     21  N   UNL     1      -5.767   3.250  -1.041  0.00  0.00    +0.392 N 
ATOM     22  H   UNL     1      -5.896   2.247  -0.860  0.00  0.00    -0.080 HD
BRANCH  18  23
ATOM     23  C   UNL     1      -8.025   2.354  -4.499  0.00  0.00    -0.022 A 
ATOM     24  C   UNL     1      -8.145   0.994  -4.789  0.00  0.00    +0.011 A 
ATOM     25  C   UNL     1      -8.908   0.585  -5.862  0.00  0.00    +0.039 A 
ATOM     26  C   UNL     1      -9.546   1.522  -6.660  0.00  0.00    +0.123 A 
ATOM     27  C   UNL     1      -9.425   2.874  -6.380  0.00  0.00    +0.039 A 
ATOM     28  C   UNL     1      -8.669   3.294  -5.306  0.00  0.00    +0.011 A 
ATOM     29  F   UNL     1     -10.288   1.116  -7.713  0.00  0.00    -0.205 F 
ENDBRANCH  18  23
ENDBRANCH   1  21
BRANCH   1  30
ATOM     30  C   UNL     1      -5.761   3.693   1.352  0.00  0.00    +0.143 A 
ATOM     31  N   UNL     1      -6.443   2.642   1.737  0.00  0.00    -0.115 NA
ATOM     32  N   UNL     1      -6.960   2.903   2.888  0.00  0.00    -0.023 NA
ATOM     33  N   UNL     1      -6.632   4.095   3.244  0.00  0.00    -0.044 NA
ATOM     34  N   UNL     1      -5.893   4.616   2.324  0.00  0.00    -0.227 N 
BRANCH  34  35
ATOM     35  C   UNL     1      -5.307   5.959   2.333  0.00  0.00    +0.111 C 
ATOM     36  C   UNL     1      -4.414   6.137   3.578  0.00  0.00    +0.027 C 
ATOM     37  C   UNL     1      -4.651   7.606   4.008  0.00  0.00    +0.002 C 
ATOM     38  C   UNL     1      -6.163   7.803   3.737  0.00  0.00    +0.002 C 
ATOM     39  C   UNL     1      -6.419   7.018   2.433  0.00  0.00    +0.027 C 
ENDBRANCH  34  35
ENDBRANCH   1  30
TORSDOF 5
