REMARK  Name = ZINC20881576
REMARK  10 active torsions:
REMARK  status: ('A' for Active; 'I' for Inactive)
REMARK    1  A    between atoms: C_1  and  C_2
REMARK    2  A    between atoms: C_2  and  C_3
REMARK    3  A    between atoms: C_2  and  O_4
REMARK    4  A    between atoms: O_4  and  C_5
REMARK    5  A    between atoms: C_8  and  C_11
REMARK    6  A    between atoms: C_16  and  C_26
REMARK    7  A    between atoms: C_30  and  O_34
REMARK    8  A    between atoms: C_31  and  O_32
REMARK    9  A    between atoms: O_32  and  C_33
REMARK   10  A    between atoms: O_34  and  C_35
REMARK                            x       y       z     vdW  Elec       q    Type
REMARK                         _______ _______ _______ _____ _____    ______ ____
ROOT
ATOM      1  C   UNL     1      -4.665  -0.318   2.746  0.00  0.00    +0.032 C 
ATOM      2  C   UNL     1      -5.178   1.069   2.363  0.00  0.00    +0.059 C 
ATOM      3  C   UNL     1      -4.242   1.704   1.348  0.00  0.00    +0.017 C 
ATOM      4  C   UNL     1      -2.925   1.455   1.389  0.00  0.00    +0.037 C 
ATOM      5  C   UNL     1      -1.878   2.042   0.472  0.00  0.00    +0.140 C 
ATOM      6  N   UNL     1      -2.416   2.735  -0.679  0.00  0.00    -0.331 N 
ATOM      7  C   UNL     1      -3.180   3.891  -0.532  0.00  0.00    +0.049 A 
ATOM      8  C   UNL     1      -2.739   5.117  -1.005  0.00  0.00    +0.025 A 
ATOM      9  C   UNL     1      -3.512   6.245  -0.795  0.00  0.00    +0.002 A 
ATOM     10  C   UNL     1      -4.714   6.154  -0.118  0.00  0.00    +0.002 A 
ATOM     11  C   UNL     1      -5.166   4.928   0.341  0.00  0.00    +0.025 A 
ATOM     12  C   UNL     1      -4.404   3.796   0.113  0.00  0.00    +0.052 A 
ATOM     13  N   UNL     1      -4.849   2.523   0.451  0.00  0.00    -0.316 N 
ATOM     14  C   UNL     1      -2.398   0.561   2.355  0.00  0.00    +0.163 C 
ATOM     15  O   UNL     1      -1.199   0.362   2.377  0.00  0.00    -0.292 OA
ATOM     16  C   UNL     1      -3.267  -0.147   3.351  0.00  0.00    +0.088 C 
ATOM     17  H   UNL     1      -2.223   2.351  -1.692  0.00  0.00    +0.147 HD
ATOM     18  H   UNL     1      -5.761   2.191  -0.067  0.00  0.00    +0.152 HD
ENDROOT
BRANCH   1  22
ATOM     19  C   UNL     1      -7.284  -2.086   5.623  0.00  0.00    +0.121 A 
ATOM     20  C   UNL     1      -7.072  -2.709   4.402  0.00  0.00    +0.046 A 
ATOM     21  C   UNL     1      -6.225  -2.135   3.473  0.00  0.00    +0.007 A 
ATOM     22  C   UNL     1      -5.589  -0.942   3.761  0.00  0.00    -0.043 A 
ATOM     23  C   UNL     1      -5.794  -0.322   4.980  0.00  0.00    +0.007 A 
ATOM     24  C   UNL     1      -6.645  -0.889   5.909  0.00  0.00    +0.046 A 
BRANCH  19  25
ATOM     25  O   UNL     1      -8.117  -2.648   6.538  0.00  0.00    -0.489 OA
BRANCH  25  27
ATOM     26  C   UNL     1      -7.943  -5.051   6.347  0.00  0.00    +0.051 C 
ATOM     27  C   UNL     1      -8.827  -3.821   6.135  0.00  0.00    +0.167 C 
ATOM     28  C   UNL     1     -10.101  -3.959   6.971  0.00  0.00    +0.051 C 
ENDBRANCH  25  27
ENDBRANCH  19  25
ENDBRANCH   1  22
BRANCH   5  29
ATOM     29  C   UNL     1      -1.038   3.011   1.264  0.00  0.00    +0.023 A 
ATOM     30  C   UNL     1      -1.544   3.583   2.416  0.00  0.00    +0.009 A 
ATOM     31  C   UNL     1      -0.776   4.472   3.145  0.00  0.00    +0.004 A 
ATOM     32  C   UNL     1       0.502   4.792   2.724  0.00  0.00    +0.049 A 
ATOM     33  C   UNL     1       1.017   4.217   1.574  0.00  0.00    +0.162 A 
ATOM     34  C   UNL     1       0.242   3.327   0.837  0.00  0.00    +0.167 A 
BRANCH  34  35
ATOM     35  O   UNL     1       0.741   2.765  -0.296  0.00  0.00    -0.491 OA
ATOM     36  C   UNL     1       0.511   3.463  -1.522  0.00  0.00    +0.277 C 
ENDBRANCH  34  35
BRANCH  33  37
ATOM     37  O   UNL     1       2.276   4.527   1.162  0.00  0.00    -0.491 OA
ATOM     38  C   UNL     1       3.014   5.448   1.968  0.00  0.00    +0.277 C 
ENDBRANCH  33  37
ENDBRANCH   5  29
TORSDOF 6
