REMARK  Name = ZINC47147708
REMARK  8 active torsions:
REMARK  status: ('A' for Active; 'I' for Inactive)
REMARK    1  A    between atoms: C_1  and  C_2
REMARK    2  A    between atoms: C_2  and  O_3
REMARK    3  A    between atoms: O_3  and  C_4
REMARK    4  A    between atoms: C_4  and  C_6
REMARK    5  A    between atoms: C_6  and  O_7
REMARK    6  A    between atoms: O_7  and  C_8
REMARK    7  A    between atoms: C_12  and  C_14
REMARK    8  A    between atoms: N_30  and  C_33
REMARK                            x       y       z     vdW  Elec       q    Type
REMARK                         _______ _______ _______ _____ _____    ______ ____
ROOT
ATOM      1  C   UNL     1      -5.107  -8.146   0.019  0.00  0.00    +0.072 C 
ATOM      2  C   UNL     1      -5.623  -8.620   1.329  0.00  0.00    +0.033 A 
ATOM      3  C   UNL     1      -6.537  -9.575   1.579  0.00  0.00    +0.088 A 
ATOM      4  N   UNL     1      -6.781  -9.808   2.914  0.00  0.00    -0.311 N 
ATOM      5  H   UNL     1      -7.413 -10.495   3.178  0.00  0.00    +0.170 HD
ATOM      6  C   UNL     1      -6.144  -9.084   3.852  0.00  0.00    +0.289 A 
ATOM      7  O   UNL     1      -6.248  -9.158   5.064  0.00  0.00    -0.260 OA
ATOM      8  S   UNL     1      -5.169  -8.054   2.949  0.00  0.00    -0.030 S 
ATOM      9  S   UNL     1      -7.362 -10.428   0.261  0.00  0.00    -0.093 S 
ATOM     10  C   UNL     1      -6.330 -10.076  -1.198  0.00  0.00    +0.152 C 
ATOM     11  C   UNL     1      -5.856  -8.618  -1.169  0.00  0.00    +0.110 C 
ATOM     12  C   UNL     1      -7.056  -7.851  -1.630  0.00  0.00    +0.232 C 
ATOM     13  O   UNL     1      -7.336  -6.702  -1.361  0.00  0.00    -0.274 OA
ATOM     14  N   UNL     1      -7.763  -8.701  -2.411  0.00  0.00    -0.209 N 
ATOM     15  C   UNL     1      -7.313  -9.974  -2.378  0.00  0.00    +0.240 C 
ATOM     16  O   UNL     1      -7.630 -10.870  -3.130  0.00  0.00    -0.274 OA
ENDROOT
BRANCH   1  21
ATOM     17  C   UNL     1      -6.128  -4.575   0.713  0.00  0.00    +0.122 A 
ATOM     18  C   UNL     1      -5.153  -3.872   0.020  0.00  0.00    +0.045 A 
ATOM     19  C   UNL     1      -4.170  -4.553  -0.670  0.00  0.00    +0.004 A 
ATOM     20  C   UNL     1      -4.155  -5.936  -0.669  0.00  0.00    +0.004 A 
ATOM     21  C   UNL     1      -5.125  -6.640   0.021  0.00  0.00    -0.035 A 
ATOM     22  C   UNL     1      -6.108  -5.962   0.717  0.00  0.00    +0.050 A 
BRANCH  17  23
ATOM     23  O   UNL     1      -7.096  -3.906   1.393  0.00  0.00    -0.481 OA
BRANCH  23  24
ATOM     24  C   UNL     1      -7.054  -2.479   1.345  0.00  0.00    +0.349 C 
BRANCH  24  25
ATOM     25  C   UNL     1      -8.197  -1.916   2.150  0.00  0.00    +0.345 C 
ATOM     26  O   UNL     1      -8.969  -2.660   2.707  0.00  0.00    -0.247 OA
BRANCH  25  27
ATOM     27  O   UNL     1      -8.358  -0.587   2.248  0.00  0.00    -0.463 OA
BRANCH  27  29
ATOM     28  C   UNL     1      -9.483   1.407   3.022  0.00  0.00    +0.048 C 
ATOM     29  C   UNL     1      -9.463  -0.123   3.027  0.00  0.00    +0.229 C 
ENDBRANCH  27  29
ENDBRANCH  25  27
ENDBRANCH  24  25
ENDBRANCH  23  24
ENDBRANCH  17  23
ENDBRANCH   1  21
BRANCH  14  30
ATOM     30  C   UNL     1      -8.856  -8.295  -3.189  0.00  0.00    +0.044 A 
ATOM     31  C   UNL     1      -9.255  -6.965  -3.188  0.00  0.00    +0.024 A 
ATOM     32  C   UNL     1     -10.333  -6.569  -3.956  0.00  0.00    +0.002 A 
ATOM     33  C   UNL     1     -11.013  -7.494  -4.726  0.00  0.00    +0.000 A 
ATOM     34  C   UNL     1     -10.618  -8.819  -4.729  0.00  0.00    +0.002 A 
ATOM     35  C   UNL     1      -9.538  -9.221  -3.968  0.00  0.00    +0.024 A 
ENDBRANCH  14  30
TORSDOF 7
