REMARK  Name = ZINC01884737
REMARK  11 active torsions:
REMARK  status: ('A' for Active; 'I' for Inactive)
REMARK    1  A    between atoms: C_1  and  C_2
REMARK    2  A    between atoms: C_2  and  O_3
REMARK    3  A    between atoms: O_3  and  C_4
REMARK    4  A    between atoms: C_4  and  C_6
REMARK    5  A    between atoms: C_7  and  C_31
REMARK    6  A    between atoms: C_10  and  N_11
REMARK    7  A    between atoms: C_12  and  C_14
REMARK    8  A    between atoms: C_14  and  C_29
REMARK    9  A    between atoms: C_15  and  C_16
REMARK   10  A    between atoms: C_19  and  C_21
REMARK   11  A    between atoms: C_34  and  C_37
REMARK                            x       y       z     vdW  Elec       q    Type
REMARK                         _______ _______ _______ _____ _____    ______ ____
ROOT
ATOM      1  N   UNL     1      -3.042  -2.527   2.494  0.00  0.00    -0.275 N 
ATOM      2  C   UNL     1      -3.820  -2.871   3.539  0.00  0.00    +0.259 C 
ATOM      3  O   UNL     1      -4.925  -3.344   3.345  0.00  0.00    -0.269 OA
ATOM      4  H   UNL     1      -2.161  -2.150   2.648  0.00  0.00    +0.156 HD
ENDROOT
BRANCH   1   9
ATOM      5  C   UNL     1      -2.841  -2.416   0.016  0.00  0.00    +0.095 A 
ATOM      6  C   UNL     1      -3.552  -2.716  -1.214  0.00  0.00    +0.005 A 
ATOM      7  C   UNL     1      -4.791  -3.249  -1.056  0.00  0.00    +0.056 A 
ATOM      8  S   UNL     1      -4.977  -3.336   0.712  0.00  0.00    -0.080 S 
ATOM      9  C   UNL     1      -3.499  -2.710   1.200  0.00  0.00    +0.087 A 
BRANCH   6  10
ATOM     10  C   UNL     1      -2.966  -2.457  -2.551  0.00  0.00    -0.017 A 
ATOM     11  C   UNL     1      -2.407  -1.214  -2.841  0.00  0.00    +0.009 A 
ATOM     12  C   UNL     1      -1.863  -0.979  -4.087  0.00  0.00    +0.004 A 
ATOM     13  C   UNL     1      -1.872  -1.975  -5.048  0.00  0.00    -0.050 A 
ATOM     14  C   UNL     1      -2.426  -3.211  -4.766  0.00  0.00    +0.004 A 
ATOM     15  C   UNL     1      -2.968  -3.459  -3.521  0.00  0.00    +0.009 A 
ATOM     16  C   UNL     1      -1.278  -1.712  -6.407  0.00  0.00    +0.044 C 
ENDBRANCH   6  10
BRANCH   5  17
ATOM     17  C   UNL     1      -1.497  -1.838   0.006  0.00  0.00    +0.342 C 
ATOM     18  O   UNL     1      -0.522  -2.566  -0.007  0.00  0.00    -0.245 OA
BRANCH  17  19
ATOM     19  O   UNL     1      -1.339  -0.499   0.012  0.00  0.00    -0.461 OA
BRANCH  19  21
ATOM     20  C   UNL     1      -0.019   1.526   0.010  0.00  0.00    +0.048 C 
ATOM     21  C   UNL     1       0.002  -0.004   0.002  0.00  0.00    +0.229 C 
ENDBRANCH  19  21
ENDBRANCH  17  19
ENDBRANCH   5  17
ENDBRANCH   1   9
BRANCH   2  22
ATOM     22  C   UNL     1      -3.335  -2.677   4.910  0.00  0.00    +0.117 C 
ATOM     23  C   UNL     1      -4.137  -3.032   5.987  0.00  0.00    +0.070 C 
BRANCH  23  24
ATOM     24  C   UNL     1      -3.673  -2.846   7.298  0.00  0.00    +0.130 A 
ATOM     25  C   UNL     1      -4.365  -3.161   8.459  0.00  0.00    +0.050 A 
ATOM     26  C   UNL     1      -3.539  -2.815   9.527  0.00  0.00    +0.050 A 
ATOM     27  C   UNL     1      -2.377  -2.303   8.989  0.00  0.00    +0.137 A 
ATOM     28  O   UNL     1      -2.473  -2.335   7.649  0.00  0.00    -0.455 OA
BRANCH  27  29
ATOM     29  C   UNL     1      -1.218  -1.809   9.757  0.00  0.00    +0.036 A 
ATOM     30  C   UNL     1      -1.405  -0.896  10.800  0.00  0.00    +0.014 A 
ATOM     31  C   UNL     1      -0.319  -0.439  11.514  0.00  0.00    +0.021 A 
ATOM     32  C   UNL     1       0.957  -0.880  11.201  0.00  0.00    +0.042 A 
ATOM     33  C   UNL     1       1.150  -1.784  10.169  0.00  0.00    +0.040 A 
ATOM     34  C   UNL     1       0.071  -2.255   9.449  0.00  0.00    +0.053 A 
ATOM     35 CL   UNL     1       0.314  -3.392   8.161  0.00  0.00    -0.083 Cl
ATOM     36 CL   UNL     1       2.319  -0.297  12.105  0.00  0.00    -0.083 Cl
ENDBRANCH  27  29
ENDBRANCH  23  24
BRANCH  22  37
ATOM     37  C   UNL     1      -2.035  -2.121   5.137  0.00  0.00    +0.104 C 
ATOM     38  N   UNL     1      -1.004  -1.680   5.318  0.00  0.00    -0.191 NA
ENDBRANCH  22  37
ENDBRANCH   2  22
TORSDOF 9
