REMARK  Name = ZINC28526997
REMARK  7 active torsions:
REMARK  status: ('A' for Active; 'I' for Inactive)
REMARK    1  A    between atoms: C_4  and  N_29
REMARK    2  A    between atoms: C_5  and  C_7
REMARK    3  A    between atoms: C_7  and  C_8
REMARK    4  A    between atoms: C_16  and  N_17
REMARK    5  A    between atoms: N_17  and  C_18
REMARK    6  A    between atoms: C_18  and  C_19
REMARK    7  A    between atoms: C_19  and  C_20
REMARK                            x       y       z     vdW  Elec       q    Type
REMARK                         _______ _______ _______ _____ _____    ______ ____
ROOT
ATOM      1  C   UNL     1     -10.429   0.115   2.395  0.00  0.00    +0.201 A 
ATOM      2  N   UNL     1      -9.256   0.235   1.850  0.00  0.00    -0.210 NA
ATOM      3  C   UNL     1      -8.469   0.984   2.665  0.00  0.00    +0.149 A 
ATOM      4  C   UNL     1      -9.255   1.321   3.778  0.00  0.00    +0.160 A 
ATOM      5  O   UNL     1     -10.461   0.758   3.575  0.00  0.00    -0.439 OA
ATOM      6  C   UNL     1      -8.689   2.103   4.780  0.00  0.00    +0.068 A 
ATOM      7  C   UNL     1      -7.381   2.513   4.649  0.00  0.00    +0.116 A 
ATOM      8  N   UNL     1      -6.657   2.179   3.593  0.00  0.00    -0.238 NA
ATOM      9  C   UNL     1      -7.144   1.438   2.611  0.00  0.00    +0.148 A 
ENDROOT
BRANCH   9  10
ATOM     10  N   UNL     1      -6.344   1.115   1.523  0.00  0.00    -0.322 N 
ATOM     11  H   UNL     1      -6.748   0.499   0.707  0.00  0.00    +0.148 HD
BRANCH  10  12
ATOM     12  C   UNL     1      -4.961   1.594   1.464  0.00  0.00    +0.176 C 
BRANCH  12  13
ATOM     13  C   UNL     1      -4.306   1.101   0.172  0.00  0.00    +0.252 C 
ATOM     14  F   UNL     1      -5.017   1.591  -0.928  0.00  0.00    -0.206 F 
ATOM     15  F   UNL     1      -4.316  -0.298   0.149  0.00  0.00    -0.206 F 
BRANCH  13  16
ATOM     16  C   UNL     1      -2.861   1.601   0.109  0.00  0.00    +0.000 C 
ATOM     17  C   UNL     1      -2.206   1.108  -1.183  0.00  0.00    -0.010 C 
ATOM     18  C   UNL     1      -0.755   1.594  -1.231  0.00  0.00    -0.003 C 
ATOM     19  C   UNL     1      -0.013   1.086   0.008  0.00  0.00    -0.019 C 
ATOM     20  C   UNL     1      -0.731   1.580   1.266  0.00  0.00    -0.082 C 
ATOM     21  N   UNL     1      -2.115   1.088   1.265  0.00  0.00    +0.385 N 
ATOM     22  H   UNL     1      -2.605   1.417   2.194  0.00  0.00    -0.085 HD
ATOM     23  H   UNL     1      -2.096  -0.011   1.231  0.00  0.00    -0.085 HD
ENDBRANCH  13  16
ENDBRANCH  12  13
ENDBRANCH  10  12
ENDBRANCH   9  10
BRANCH   1  24
ATOM     24  C   UNL     1     -11.584  -0.646   1.797  0.00  0.00    +0.133 C 
BRANCH  24  29
ATOM     25  C   UNL     1     -10.885  -4.355   1.913  0.00  0.00    +0.000 A 
ATOM     26  C   UNL     1     -11.453  -4.709   3.123  0.00  0.00    +0.002 A 
ATOM     27  C   UNL     1     -12.065  -3.751   3.908  0.00  0.00    +0.028 A 
ATOM     28  C   UNL     1     -12.104  -2.430   3.482  0.00  0.00    +0.072 A 
ATOM     29  C   UNL     1     -11.538  -2.078   2.265  0.00  0.00    -0.013 A 
ATOM     30  C   UNL     1     -10.928  -3.041   1.484  0.00  0.00    +0.006 A 
BRANCH  28  31
ATOM     31  N   UNL     1     -12.719  -1.453   4.279  0.00  0.00    -0.200 N 
ATOM     32  C   UNL     1     -13.316  -1.629   5.478  0.00  0.00    +0.250 A 
ATOM     33  N   UNL     1     -13.752  -0.461   5.870  0.00  0.00    -0.116 NA
ATOM     34  N   UNL     1     -13.480   0.441   4.997  0.00  0.00    -0.023 NA
ATOM     35  N   UNL     1     -12.852  -0.082   3.999  0.00  0.00    -0.039 NA
ENDBRANCH  28  31
ENDBRANCH  24  29
ENDBRANCH   1  24
TORSDOF 7
