REMARK  Name = ZINC21425874
REMARK  7 active torsions:
REMARK  status: ('A' for Active; 'I' for Inactive)
REMARK    1  A    between atoms: C_1  and  C_2
REMARK    2  A    between atoms: C_10  and  C_12
REMARK    3  A    between atoms: C_12  and  S_13
REMARK    4  A    between atoms: S_13  and  C_14
REMARK    5  A    between atoms: C_15  and  C_23
REMARK    6  A    between atoms: C_17  and  C_21
REMARK    7  A    between atoms: C_18  and  N_20
REMARK                            x       y       z     vdW  Elec       q    Type
REMARK                         _______ _______ _______ _____ _____    ______ ____
ROOT
ATOM      1  S   UNL     1      -1.549  -3.999   4.828  0.00  0.00    -0.098 S 
ENDROOT
BRANCH   1   2
ATOM      2  C   UNL     1      -1.359  -5.028   6.246  0.00  0.00    +0.117 A 
ATOM      3  C   UNL     1      -2.456  -5.777   6.716  0.00  0.00    +0.085 A 
ATOM      4  C   UNL     1      -2.294  -6.589   7.840  0.00  0.00    +0.043 A 
ATOM      5  C   UNL     1      -1.040  -6.624   8.457  0.00  0.00    +0.092 A 
ATOM      6  C   UNL     1       0.007  -5.845   7.926  0.00  0.00    +0.135 A 
ATOM      7  N   UNL     1      -0.184  -5.092   6.855  0.00  0.00    -0.224 NA
BRANCH   6   8
ATOM      8  N   UNL     1       1.249  -5.872   8.528  0.00  0.00    -0.342 N 
ATOM      9  H   UNL     1       1.396  -6.425   9.311  0.00  0.00    +0.144 HD
ATOM     10  H   UNL     1       1.974  -5.338   8.168  0.00  0.00    +0.144 HD
ENDBRANCH   6   8
BRANCH   5  11
ATOM     11  C   UNL     1      -0.824  -7.440   9.613  0.00  0.00    +0.103 C 
ATOM     12  N   UNL     1      -0.651  -8.088  10.530  0.00  0.00    -0.191 NA
ENDBRANCH   5  11
BRANCH   3  13
ATOM     13  C   UNL     1      -3.721  -5.706   6.048  0.00  0.00    +0.102 C 
ATOM     14  N   UNL     1      -4.725  -5.650   5.519  0.00  0.00    -0.191 NA
ENDBRANCH   3  13
ENDBRANCH   1   2
BRANCH   1  15
ATOM     15  C   UNL     1       0.091  -3.257   4.601  0.00  0.00    +0.131 C 
BRANCH  15  25
ATOM     16  C   UNL     1      -0.018   1.503   0.010  0.00  0.00    +0.064 C 
ATOM     17  C   UNL     1       0.002  -0.004   0.002  0.00  0.00    +0.033 A 
ATOM     18  C   UNL     1       0.005  -0.653  -1.162  0.00  0.00    +0.070 A 
ATOM     19  S   UNL     1       0.032  -2.358  -0.630  0.00  0.00    -0.057 S 
ATOM     20  C   UNL     1       0.036  -2.054   1.123  0.00  0.00    +0.180 A 
ATOM     21  N   UNL     1       0.023  -0.686   1.195  0.00  0.00    -0.259 N 
ATOM     22  C   UNL     1       0.027  -0.142   2.448  0.00  0.00    +0.259 A 
ATOM     23  O   UNL     1       0.011   1.071   2.587  0.00  0.00    -0.267 OA
ATOM     24  C   UNL     1       0.049  -0.973   3.568  0.00  0.00    +0.095 A 
ATOM     25  C   UNL     1       0.066  -2.342   3.404  0.00  0.00    +0.059 A 
ATOM     26  N   UNL     1       0.052  -2.840   2.171  0.00  0.00    -0.227 NA
ENDBRANCH  15  25
ENDBRANCH   1  15
TORSDOF 6
