REMARK  Name = ZINC04200572
REMARK  5 active torsions:
REMARK  status: ('A' for Active; 'I' for Inactive)
REMARK    1  A    between atoms: C_3  and  C_6
REMARK    2  A    between atoms: C_6  and  N_7
REMARK    3  A    between atoms: C_16  and  C_25
REMARK    4  A    between atoms: C_16  and  C_29
REMARK    5  A    between atoms: C_17  and  C_19
REMARK                            x       y       z     vdW  Elec       q    Type
REMARK                         _______ _______ _______ _____ _____    ______ ____
ROOT
ATOM      1  N   UNL     1      -0.428   1.170   0.359  0.00  0.00    -0.274 N 
ATOM      2  C   UNL     1      -0.246  -0.179   0.186  0.00  0.00    +0.119 A 
ATOM      3  C   UNL     1       1.016  -0.693   0.162  0.00  0.00    +0.098 A 
ATOM      4  C   UNL     1       2.109   0.174   0.326  0.00  0.00    +0.262 A 
ATOM      5  O   UNL     1       3.248  -0.262   0.314  0.00  0.00    -0.267 OA
ATOM      6  N   UNL     1       1.888   1.493   0.496  0.00  0.00    -0.275 N 
ATOM      7  H   UNL     1       2.663   2.114   0.613  0.00  0.00    +0.173 HD
ATOM      8  C   UNL     1       0.635   1.982   0.511  0.00  0.00    +0.331 A 
ATOM      9  O   UNL     1       0.460   3.176   0.664  0.00  0.00    -0.246 OA
ATOM     10  C   UNL     1       1.236  -2.166  -0.041  0.00  0.00    +0.264 C 
ATOM     11  C   UNL     1      -1.154  -2.372   0.209  0.00  0.00    +0.077 C 
ATOM     12  N   UNL     1      -1.324  -1.020   0.040  0.00  0.00    -0.290 N 
ATOM     13  H   UNL     1      -2.198  -0.662  -0.181  0.00  0.00    +0.155 HD
ATOM     14  N   UNL     1       0.010  -3.009   0.192  0.00  0.00    -0.352 N 
ATOM     15  H   UNL     1       0.072  -4.024   0.331  0.00  0.00    +0.162 HD
ENDROOT
BRANCH  11  16
ATOM     16  C   UNL     1      -2.365  -3.240   0.435  0.00  0.00    +0.050 C 
ATOM     17  C   UNL     1      -2.723  -3.240   1.923  0.00  0.00    +0.011 C 
ATOM     18  C   UNL     1      -3.952  -4.121   2.153  0.00  0.00    +0.001 C 
ATOM     19  C   UNL     1      -3.646  -5.551   1.702  0.00  0.00    +0.000 C 
ATOM     20  C   UNL     1      -3.289  -5.551   0.215  0.00  0.00    +0.001 C 
ATOM     21  C   UNL     1      -2.059  -4.670  -0.015  0.00  0.00    +0.011 C 
ENDBRANCH  11  16
BRANCH  10  22
ATOM     22  C   UNL     1       1.723  -2.407  -1.471  0.00  0.00    +0.426 C 
ATOM     23  F   UNL     1       2.924  -1.720  -1.677  0.00  0.00    -0.167 F 
ATOM     24  F   UNL     1       1.931  -3.777  -1.667  0.00  0.00    -0.167 F 
ATOM     25  F   UNL     1       0.760  -1.947  -2.375  0.00  0.00    -0.167 F 
ENDBRANCH  10  22
BRANCH  10  26
ATOM     26  C   UNL     1       2.305  -2.653   0.941  0.00  0.00    +0.426 C 
ATOM     27  F   UNL     1       2.053  -2.116   2.208  0.00  0.00    -0.167 F 
ATOM     28  F   UNL     1       2.271  -4.050   1.010  0.00  0.00    -0.167 F 
ATOM     29  F   UNL     1       3.566  -2.238   0.501  0.00  0.00    -0.167 F 
ENDBRANCH  10  26
BRANCH   1  30
ATOM     30  C   UNL     1      -1.782   1.729   0.374  0.00  0.00    +0.202 C 
BRANCH  30  33
ATOM     31  C   UNL     1      -2.814   2.311   3.864  0.00  0.00    +0.041 A 
ATOM     32  C   UNL     1      -2.168   2.727   2.677  0.00  0.00    +0.046 A 
ATOM     33  C   UNL     1      -2.310   1.730   1.786  0.00  0.00    +0.125 A 
ATOM     34  O   UNL     1      -2.998   0.735   2.368  0.00  0.00    -0.466 OA
ATOM     35  C   UNL     1      -3.306   1.081   3.629  0.00  0.00    +0.195 A 
ENDBRANCH  30  33
ENDBRANCH   1  30
TORSDOF 5
