REMARK  Name = ZINC04701860
REMARK  3 active torsions:
REMARK  status: ('A' for Active; 'I' for Inactive)
REMARK    1  A    between atoms: C_4  and  N_25
REMARK    2  A    between atoms: C_5  and  C_7
REMARK    3  A    between atoms: N_8  and  N_9
REMARK                            x       y       z     vdW  Elec       q    Type
REMARK                         _______ _______ _______ _____ _____    ______ ____
ROOT
ATOM      1  N   UNL     1       2.612  -4.393  -0.005  0.00  0.00    -0.127 N 
ATOM      2  C   UNL     1       1.518  -5.153  -0.127  0.00  0.00    +0.246 C 
ATOM      3  O   UNL     1       0.379  -4.739  -0.160  0.00  0.00    -0.273 OA
ATOM      4  C   UNL     1       1.922  -6.607  -0.217  0.00  0.00    +0.097 C 
ATOM      5  C   UNL     1       1.641  -7.104  -1.670  0.00  0.00    +0.025 C 
ATOM      6  C   UNL     1       2.831  -8.114  -1.861  0.00  0.00    +0.016 C 
ATOM      7  C   UNL     1       3.925  -7.024  -1.564  0.00  0.00    +0.025 C 
ATOM      8  C   UNL     1       3.475  -6.553  -0.122  0.00  0.00    +0.097 C 
ATOM      9  C   UNL     1       3.764  -5.074   0.004  0.00  0.00    +0.246 C 
ATOM     10  O   UNL     1       4.867  -4.582   0.099  0.00  0.00    -0.273 OA
ATOM     11  C   UNL     1       3.444  -5.908  -2.499  0.00  0.00    -0.027 C 
ATOM     12  C   UNL     1       2.107  -5.945  -2.559  0.00  0.00    -0.027 C 
ENDROOT
BRANCH   1  14
ATOM     13  C   UNL     1       1.422  -2.381  -0.028  0.00  0.00    +0.141 C 
ATOM     14  N   UNL     1       2.557  -2.997   0.099  0.00  0.00    -0.178 NA
BRANCH  13  19
ATOM     15  C   UNL     1       2.519   1.208  -0.021  0.00  0.00    +0.001 A 
ATOM     16  C   UNL     1       1.300   1.861  -0.039  0.00  0.00    +0.002 A 
ATOM     17  C   UNL     1       0.120   1.139  -0.054  0.00  0.00    +0.033 A 
ATOM     18  C   UNL     1       0.152  -0.241  -0.051  0.00  0.00    +0.135 A 
ATOM     19  C   UNL     1       1.380  -0.907  -0.032  0.00  0.00    +0.025 A 
ATOM     20  C   UNL     1       2.567  -0.171  -0.017  0.00  0.00    +0.012 A 
BRANCH  18  21
ATOM     21  N   UNL     1      -1.111  -1.012  -0.066  0.00  0.00    +0.057 N 
ATOM     22  O   UNL     1      -2.171  -0.439   0.026  0.00  0.00    -0.126 OA
ATOM     23  O   UNL     1      -1.082  -2.216  -0.171  0.00  0.00    -0.126 OA
ENDBRANCH  18  21
ENDBRANCH  13  19
ENDBRANCH   1  14
TORSDOF 3
