REMARK  Name = ZINC64015192
REMARK  10 active torsions:
REMARK  status: ('A' for Active; 'I' for Inactive)
REMARK    1  A    between atoms: C_1  and  C_2
REMARK    2  A    between atoms: C_5  and  O_33
REMARK    3  A    between atoms: C_10  and  C_12
REMARK    4  A    between atoms: C_18  and  C_21
REMARK    5  A    between atoms: C_21  and  C_23
REMARK    6  A    between atoms: C_27  and  O_29
REMARK    7  A    between atoms: O_29  and  C_30
REMARK    8  A    between atoms: C_30  and  C_31
REMARK    9  A    between atoms: C_30  and  C_32
REMARK   10  A    between atoms: O_33  and  C_34
REMARK                            x       y       z     vdW  Elec       q    Type
REMARK                         _______ _______ _______ _____ _____    ______ ____
ROOT
ATOM      1  C   UNL     1      -0.995   0.045   2.037  0.00  0.00    +0.242 C 
ATOM      2  O   UNL     1      -1.999  -0.596   1.809  0.00  0.00    -0.273 OA
ATOM      3  N   UNL     1      -0.991   0.961   3.026  0.00  0.00    -0.299 N 
ATOM      4  C   UNL     1       0.216   1.749   3.311  0.00  0.00    +0.108 C 
ATOM      5  C   UNL     1       0.561   1.603   4.797  0.00  0.00    +0.020 C 
ATOM      6  C   UNL     1      -0.656   1.990   5.640  0.00  0.00    +0.014 C 
ATOM      7  C   UNL     1      -1.820   1.050   5.319  0.00  0.00    +0.078 C 
ATOM      8  C   UNL     1      -2.194   1.193   3.836  0.00  0.00    +0.119 C 
ENDROOT
BRANCH   1  18
ATOM      9  C   UNL     1       0.509   2.375   0.384  0.00  0.00    +0.042 C 
ATOM     10  C   UNL     1       0.376   0.891   0.157  0.00  0.00    -0.033 C 
ATOM     11  C   UNL     1       0.354   0.249  -1.032  0.00  0.00    +0.003 A 
ATOM     12  C   UNL     1       0.442   0.720  -2.419  0.00  0.00    +0.055 A 
ATOM     13  C   UNL     1       0.390  -0.178  -3.433  0.00  0.00    +0.121 A 
ATOM     14  C   UNL     1       0.252  -1.558  -3.206  0.00  0.00    +0.047 A 
ATOM     15  C   UNL     1       0.163  -2.087  -1.967  0.00  0.00    +0.029 A 
ATOM     16  C   UNL     1       0.209  -1.206  -0.795  0.00  0.00    +0.044 A 
ATOM     17  N   UNL     1       0.144  -1.453   0.489  0.00  0.00    -0.370 N 
ATOM     18  C   UNL     1       0.247  -0.182   1.215  0.00  0.00    +0.193 C 
ATOM     19  H   UNL     1       0.049  -2.330   0.893  0.00  0.00    +0.161 HD
BRANCH  13  20
ATOM     20  O   UNL     1       0.472   0.272  -4.713  0.00  0.00    -0.495 OA
ATOM     21  C   UNL     1       0.412  -0.708  -5.750  0.00  0.00    +0.277 C 
ENDBRANCH  13  20
ENDBRANCH   1  18
BRANCH   7  22
ATOM     22  C   UNL     1      -3.008   1.411   6.174  0.00  0.00    +0.168 C 
ATOM     23  O   UNL     1      -3.865   2.150   5.739  0.00  0.00    -0.292 OA
BRANCH  22  24
ATOM     24  C   UNL     1      -3.128   0.866   7.536  0.00  0.00    +0.021 A 
ATOM     25  C   UNL     1      -2.138   0.017   8.042  0.00  0.00    +0.011 A 
ATOM     26  C   UNL     1      -2.254  -0.490   9.319  0.00  0.00    +0.004 A 
ATOM     27  C   UNL     1      -3.347  -0.164  10.102  0.00  0.00    +0.046 A 
ATOM     28  C   UNL     1      -4.335   0.677   9.609  0.00  0.00    +0.122 A 
ATOM     29  C   UNL     1      -4.228   1.198   8.331  0.00  0.00    +0.057 A 
BRANCH  28  30
ATOM     30  O   UNL     1      -5.406   0.993  10.383  0.00  0.00    -0.489 OA
BRANCH  30  31
ATOM     31  C   UNL     1      -5.393   0.523  11.733  0.00  0.00    +0.167 C 
ATOM     32  C   UNL     1      -6.274   1.427  12.597  0.00  0.00    +0.051 C 
ATOM     33  C   UNL     1      -5.930  -0.908  11.780  0.00  0.00    +0.051 C 
ENDBRANCH  30  31
ENDBRANCH  28  30
ENDBRANCH  22  24
ENDBRANCH   7  22
TORSDOF 6
