REMARK  Name = ZINC10992979
REMARK  11 active torsions:
REMARK  status: ('A' for Active; 'I' for Inactive)
REMARK    1  A    between atoms: C_1  and  C_2
REMARK    2  A    between atoms: C_5  and  S_9
REMARK    3  A    between atoms: C_7  and  C_8
REMARK    4  A    between atoms: S_9  and  N_12
REMARK    5  A    between atoms: N_12  and  C_13
REMARK    6  A    between atoms: C_16  and  C_19
REMARK    7  A    between atoms: N_21  and  C_22
REMARK    8  A    between atoms: C_22  and  C_24
REMARK    9  A    between atoms: C_22  and  C_25
REMARK   10  A    between atoms: C_28  and  S_31
REMARK   11  A    between atoms: S_31  and  C_34
REMARK                            x       y       z     vdW  Elec       q    Type
REMARK                         _______ _______ _______ _____ _____    ______ ____
ROOT
ATOM      1  C   UNL     1       1.125   2.395  -0.183  0.00  0.00    +0.048 A 
ATOM      2  C   UNL     1       2.310   2.002   0.431  0.00  0.00    +0.025 A 
ATOM      3  C   UNL     1       3.461   2.733   0.241  0.00  0.00    +0.015 A 
ATOM      4  C   UNL     1       3.436   3.878  -0.560  0.00  0.00    +0.037 A 
ATOM      5  C   UNL     1       2.242   4.274  -1.171  0.00  0.00    +0.015 A 
ATOM      6  C   UNL     1       1.096   3.535  -0.982  0.00  0.00    +0.025 A 
ENDROOT
BRANCH   4   7
ATOM      7  C   UNL     1       4.666   4.667  -0.760  0.00  0.00    +0.245 C 
ATOM      8  O   UNL     1       4.642   5.663  -1.457  0.00  0.00    -0.270 OA
ATOM      9  N   UNL     1       5.816   4.284  -0.170  0.00  0.00    -0.305 N 
ATOM     10  H   UNL     1       5.834   3.490   0.386  0.00  0.00    +0.150 HD
BRANCH   9  11
ATOM     11  C   UNL     1       7.037   5.068  -0.369  0.00  0.00    +0.100 C 
ATOM     12  C   UNL     1       7.074   6.218   0.639  0.00  0.00    +0.033 C 
BRANCH  11  13
ATOM     13  C   UNL     1       8.240   4.183  -0.167  0.00  0.00    -0.027 A 
ATOM     14  C   UNL     1       8.248   3.251   0.853  0.00  0.00    +0.007 A 
ATOM     15  C   UNL     1       9.350   2.436   1.036  0.00  0.00    +0.027 A 
ATOM     16  C   UNL     1      10.448   2.561   0.205  0.00  0.00    +0.088 A 
ATOM     17  C   UNL     1      10.441   3.497  -0.812  0.00  0.00    +0.027 A 
ATOM     18  C   UNL     1       9.338   4.309  -0.998  0.00  0.00    +0.007 A 
BRANCH  16  19
ATOM     19  S   UNL     1      11.855   1.527   0.443  0.00  0.00    -0.006 S 
ATOM     20  O   UNL     1      11.344   0.358   1.069  0.00  0.00    -0.170 OA
ATOM     21  O   UNL     1      12.470   1.454  -0.836  0.00  0.00    -0.170 OA
ATOM     22  C   UNL     1      12.916   2.442   1.595  0.00  0.00    +0.200 C 
ENDBRANCH  16  19
ENDBRANCH  11  13
ENDBRANCH   9  11
ENDBRANCH   4   7
BRANCH   1  23
ATOM     23  N   UNL     1      -0.035   1.651   0.005  0.00  0.00    -0.216 N 
ATOM     24  H   UNL     1      -0.873   2.100   0.198  0.00  0.00    +0.174 HD
BRANCH  23  25
ATOM     25  S   UNL     1       0.014  -0.000  -0.105  0.00  0.00    +0.072 S 
ATOM     26  O   UNL     1       1.068  -0.433   0.745  0.00  0.00    -0.150 OA
ATOM     27  O   UNL     1      -1.323  -0.457   0.046  0.00  0.00    -0.150 OA
BRANCH  25  32
ATOM     28  C   UNL     1       1.676  -1.363  -5.743  0.00  0.00    +0.044 C 
ATOM     29  C   UNL     1       1.261  -1.023  -4.335  0.00  0.00    -0.047 A 
ATOM     30  C   UNL     1      -0.067  -0.766  -4.049  0.00  0.00    +0.005 A 
ATOM     31  C   UNL     1      -0.448  -0.459  -2.756  0.00  0.00    +0.029 A 
ATOM     32  C   UNL     1       0.500  -0.398  -1.752  0.00  0.00    +0.109 A 
ATOM     33  C   UNL     1       1.827  -0.656  -2.037  0.00  0.00    +0.032 A 
ATOM     34  C   UNL     1       2.208  -0.968  -3.329  0.00  0.00    -0.046 A 
ATOM     35  C   UNL     1       3.655  -1.249  -3.641  0.00  0.00    +0.044 C 
ENDBRANCH  25  32
ENDBRANCH  23  25
ENDBRANCH   1  23
TORSDOF 7
