REMARK  Name = ZINC39939390
REMARK  6 active torsions:
REMARK  status: ('A' for Active; 'I' for Inactive)
REMARK    1  A    between atoms: C_7  and  C_10
REMARK    2  A    between atoms: C_13  and  S_16
REMARK    3  A    between atoms: S_16  and  C_17
REMARK    4  A    between atoms: C_17  and  C_18
REMARK    5  A    between atoms: N_20  and  C_21
REMARK    6  A    between atoms: N_20  and  C_29
REMARK                            x       y       z     vdW  Elec       q    Type
REMARK                         _______ _______ _______ _____ _____    ______ ____
ROOT
ATOM      1  S   UNL     1      -0.169  -6.279   1.465  0.00  0.00    -0.087 S 
ENDROOT
BRANCH   1   5
ATOM      2  C   UNL     1       0.664  -3.126  -0.021  0.00  0.00    +0.238 C 
ATOM      3  N   UNL     1      -0.637  -3.009  -0.012  0.00  0.00    -0.145 NA
ATOM      4  N   UNL     1      -1.236  -4.277  -0.011  0.00  0.00    -0.219 N 
ATOM      5  C   UNL     1      -0.122  -5.240  -0.021  0.00  0.00    +0.339 C 
ATOM      6  O   UNL     1       1.057  -4.423  -0.032  0.00  0.00    -0.443 OA
ATOM      7  H   UNL     1      -2.185  -4.478  -0.005  0.00  0.00    +0.173 HD
BRANCH   2  14
ATOM      8  C   UNL     1      -0.038   1.355   0.012  0.00  0.00    +0.001 A 
ATOM      9  C   UNL     1       1.140   2.105   0.004  0.00  0.00    +0.002 A 
ATOM     10  C   UNL     1       2.361   1.518  -0.013  0.00  0.00    +0.026 A 
ATOM     11  C   UNL     1       2.464   0.103  -0.023  0.00  0.00    +0.043 A 
ATOM     12  N   UNL     1       3.513  -0.696  -0.039  0.00  0.00    -0.380 N 
ATOM     13  C   UNL     1       3.061  -2.090  -0.042  0.00  0.00    +0.154 C 
ATOM     14  C   UNL     1       1.549  -2.039  -0.024  0.00  0.00    +0.043 C 
ATOM     15  C   UNL     1       1.219  -0.683  -0.013  0.00  0.00    +0.008 A 
ATOM     16  C   UNL     1      -0.017  -0.003   0.004  0.00  0.00    +0.010 A 
ATOM     17  H   UNL     1       4.439  -0.406  -0.048  0.00  0.00    +0.160 HD
ENDBRANCH   2  14
ENDBRANCH   1   5
BRANCH   1  18
ATOM     18  C   UNL     1      -0.022  -5.096   2.832  0.00  0.00    +0.170 C 
BRANCH  18  19
ATOM     19  C   UNL     1      -0.049  -5.838   4.144  0.00  0.00    +0.226 C 
ATOM     20  O   UNL     1      -0.247  -7.035   4.159  0.00  0.00    -0.275 OA
ATOM     21  N   UNL     1       0.148  -5.173   5.299  0.00  0.00    -0.293 N 
BRANCH  21  22
ATOM     22  C   UNL     1       0.229  -5.908   6.563  0.00  0.00    +0.099 C 
ATOM     23  C   UNL     1      -1.079  -6.684   6.787  0.00  0.00    +0.046 C 
ATOM     24  C   UNL     1      -0.854  -7.688   7.953  0.00  0.00    +0.168 C 
ATOM     25  S   UNL     1       0.843  -8.288   7.558  0.00  0.00    -0.029 S 
ATOM     26  O   UNL     1       1.612  -8.320   8.752  0.00  0.00    -0.174 OA
ATOM     27  O   UNL     1       0.745  -9.458   6.758  0.00  0.00    -0.174 OA
ATOM     28  C   UNL     1       1.422  -6.893   6.510  0.00  0.00    +0.188 C 
ENDBRANCH  21  22
BRANCH  21  29
ATOM     29  C   UNL     1       0.282  -3.714   5.290  0.00  0.00    +0.076 C 
ATOM     30  C   UNL     1       1.676  -3.308   5.811  0.00  0.00    +0.022 C 
ATOM     31  C   UNL     1       1.415  -2.018   6.628  0.00  0.00    +0.002 C 
ATOM     32  C   UNL     1       0.060  -2.318   7.317  0.00  0.00    +0.002 C 
ATOM     33  C   UNL     1      -0.746  -3.085   6.248  0.00  0.00    +0.022 C 
ENDBRANCH  21  29
ENDBRANCH  18  19
ENDBRANCH   1  18
TORSDOF 6
