REMARK  Name = ZINC40158666
REMARK  6 active torsions:
REMARK  status: ('A' for Active; 'I' for Inactive)
REMARK    1  A    between atoms: C_1  and  C_2
REMARK    2  A    between atoms: C_5  and  C_9
REMARK    3  A    between atoms: C_7  and  C_8
REMARK    4  A    between atoms: C_9  and  O_29
REMARK    5  A    between atoms: N_18  and  C_19
REMARK    6  A    between atoms: C_19  and  C_20
REMARK                            x       y       z     vdW  Elec       q    Type
REMARK                         _______ _______ _______ _____ _____    ______ ____
ROOT
ATOM      1  C   UNL     1       0.059  -4.275  -0.021  0.00  0.00    +0.189 C 
ATOM      2  C   UNL     1       1.482  -4.776   0.013  0.00  0.00    +0.019 A 
ATOM      3  C   UNL     1       2.510  -4.632   0.916  0.00  0.00    +0.009 A 
ATOM      4  C   UNL     1       3.737  -5.223   0.667  0.00  0.00    +0.000 A 
ATOM      5  C   UNL     1       3.933  -5.959  -0.489  0.00  0.00    +0.001 A 
ATOM      6  C   UNL     1       2.909  -6.109  -1.401  0.00  0.00    +0.013 A 
ATOM      7  C   UNL     1       1.669  -5.516  -1.156  0.00  0.00    +0.045 A 
ATOM      8  C   UNL     1       0.408  -5.496  -1.923  0.00  0.00    +0.250 C 
ATOM      9  O   UNL     1       0.236  -6.049  -2.992  0.00  0.00    -0.270 OA
ATOM     10  N   UNL     1      -0.523  -4.780  -1.270  0.00  0.00    -0.256 N 
ENDROOT
BRANCH   1  15
ATOM     11  C   UNL     1      -0.018   1.503   0.010  0.00  0.00    +0.044 C 
ATOM     12  C   UNL     1       0.002  -0.004   0.002  0.00  0.00    -0.048 A 
ATOM     13  C   UNL     1       0.006  -0.689  -1.199  0.00  0.00    +0.004 A 
ATOM     14  C   UNL     1       0.025  -2.071  -1.207  0.00  0.00    +0.009 A 
ATOM     15  C   UNL     1       0.040  -2.768  -0.013  0.00  0.00    +0.007 A 
ATOM     16  C   UNL     1       0.037  -2.084   1.188  0.00  0.00    +0.012 A 
ATOM     17  C   UNL     1       0.023  -0.702   1.195  0.00  0.00    -0.047 A 
ATOM     18  C   UNL     1       0.025   0.045   2.504  0.00  0.00    +0.044 C 
ENDBRANCH   1  15
BRANCH   1  19
ATOM     19  O   UNL     1      -0.668  -4.782   1.100  0.00  0.00    -0.364 OA
ATOM     20  H   UNL     1      -0.322  -4.493   1.956  0.00  0.00    +0.213 HD
ENDBRANCH   1  19
BRANCH  10  21
ATOM     21  C   UNL     1      -1.894  -4.543  -1.729  0.00  0.00    +0.168 C 
BRANCH  21  22
ATOM     22  C   UNL     1      -1.935  -3.288  -2.562  0.00  0.00    +0.077 A 
ATOM     23  C   UNL     1      -1.857  -3.233  -3.909  0.00  0.00    +0.117 A 
ATOM     24  N   UNL     1      -1.932  -1.914  -4.265  0.00  0.00    -0.306 N 
ATOM     25  C   UNL     1      -1.906  -1.280  -5.474  0.00  0.00    +0.092 A 
ATOM     26  C   UNL     1      -2.000   0.064  -5.548  0.00  0.00    +0.018 A 
ATOM     27  C   UNL     1      -2.128   0.831  -4.378  0.00  0.00    +0.005 A 
ATOM     28  C   UNL     1      -2.156   0.212  -3.167  0.00  0.00    +0.047 A 
ATOM     29  C   UNL     1      -2.056  -1.192  -3.106  0.00  0.00    +0.138 A 
ATOM     30  N   UNL     1      -2.060  -2.045  -2.091  0.00  0.00    -0.231 NA
ENDBRANCH  21  22
ENDBRANCH  10  21
TORSDOF 4
