REMARK  Name = ZINC08130617
REMARK  6 active torsions:
REMARK  status: ('A' for Active; 'I' for Inactive)
REMARK    1  A    between atoms: C_1  and  C_2
REMARK    2  A    between atoms: C_2  and  C_4
REMARK    3  A    between atoms: C_2  and  S_17
REMARK    4  A    between atoms: N_6  and  N_7
REMARK    5  A    between atoms: C_8  and  C_10
REMARK    6  A    between atoms: S_17  and  C_18
REMARK                            x       y       z     vdW  Elec       q    Type
REMARK                         _______ _______ _______ _____ _____    ______ ____
ROOT
ATOM      1  C   UNL     1       0.000   1.080   2.488  0.00  0.00    +0.242 C 
ATOM      2  O   UNL     1       0.757   1.815   3.085  0.00  0.00    -0.273 OA
ATOM      3  N   UNL     1      -0.190  -0.184   2.916  0.00  0.00    -0.233 N 
ATOM      4  H   UNL     1      -0.795  -0.772   2.438  0.00  0.00    +0.173 HD
ENDROOT
BRANCH   3   5
ATOM      5  N   UNL     1       0.488  -0.648   4.051  0.00  0.00    -0.230 N 
ATOM      6  C   UNL     1       0.298  -1.912   4.479  0.00  0.00    +0.260 C 
ATOM      7  O   UNL     1      -0.461  -2.649   3.881  0.00  0.00    -0.269 OA
ATOM      8  H   UNL     1       1.094  -0.060   4.529  0.00  0.00    +0.173 HD
BRANCH   6   9
ATOM      9  C   UNL     1       1.014  -2.401   5.677  0.00  0.00    +0.040 A 
ATOM     10  C   UNL     1       1.890  -1.559   6.363  0.00  0.00    +0.013 A 
ATOM     11  C   UNL     1       2.551  -2.020   7.483  0.00  0.00    +0.002 A 
ATOM     12  C   UNL     1       2.354  -3.318   7.921  0.00  0.00    +0.020 A 
ATOM     13  C   UNL     1       1.490  -4.160   7.242  0.00  0.00    +0.042 A 
ATOM     14  C   UNL     1       0.819  -3.709   6.123  0.00  0.00    +0.033 A 
ATOM     15 CL   UNL     1       1.251  -5.787   7.800  0.00  0.00    -0.084 Cl
ENDBRANCH   6   9
ENDBRANCH   3   5
BRANCH   1  17
ATOM     16  C   UNL     1      -0.013   1.086   0.008  0.00  0.00    +0.029 C 
ATOM     17  C   UNL     1      -0.729   1.579   1.267  0.00  0.00    +0.137 C 
BRANCH  17  18
ATOM     18  S   UNL     1      -0.753   3.393   1.277  0.00  0.00    -0.084 S 
BRANCH  18  19
ATOM     19  C   UNL     1      -1.753   3.813  -0.112  0.00  0.00    +0.161 A 
ATOM     20  N   UNL     1      -2.353   3.022  -0.981  0.00  0.00    -0.133 NA
ATOM     21  N   UNL     1      -3.098   3.566  -2.001  0.00  0.00    -0.125 NA
ATOM     22  C   UNL     1      -3.201   4.876  -2.112  0.00  0.00    +0.180 A 
ATOM     23  S   UNL     1      -2.219   5.425  -0.725  0.00  0.00    -0.025 S 
ATOM     24  N   UNL     1      -3.889   5.628  -3.057  0.00  0.00    -0.336 N 
ATOM     25  H   UNL     1      -3.873   6.597  -3.011  0.00  0.00    +0.144 HD
ATOM     26  H   UNL     1      -4.385   5.184  -3.763  0.00  0.00    +0.144 HD
ENDBRANCH  18  19
ENDBRANCH  17  18
ENDBRANCH   1  17
TORSDOF 5
