REMARK  Name = ZINC34905818
REMARK  13 active torsions:
REMARK  status: ('A' for Active; 'I' for Inactive)
REMARK    1  A    between atoms: C_1  and  C_2
REMARK    2  A    between atoms: C_2  and  C_3
REMARK    3  A    between atoms: C_2  and  C_4
REMARK    4  A    between atoms: C_2  and  C_5
REMARK    5  A    between atoms: C_8  and  C_11
REMARK    6  A    between atoms: N_13  and  C_14
REMARK    7  A    between atoms: C_20  and  N_22
REMARK    8  A    between atoms: C_23  and  C_25
REMARK    9  A    between atoms: C_28  and  C_30
REMARK   10  A    between atoms: C_30  and  O_31
REMARK   11  A    between atoms: O_31  and  C_32
REMARK   12  A    between atoms: C_37  and  O_38
REMARK   13  A    between atoms: O_38  and  C_39
REMARK                            x       y       z     vdW  Elec       q    Type
REMARK                         _______ _______ _______ _____ _____    ______ ____
ROOT
ATOM      1  C   UNL     1       4.667  -1.994  -6.158  0.00  0.00    +0.093 C 
ATOM      2  C   UNL     1       4.369  -1.044  -7.321  0.00  0.00    +0.024 C 
ATOM      3  C   UNL     1       5.086  -1.538  -8.579  0.00  0.00    +0.002 C 
ATOM      4  C   UNL     1       6.594  -1.576  -8.325  0.00  0.00    +0.002 C 
ATOM      5  C   UNL     1       6.892  -2.526  -7.163  0.00  0.00    +0.024 C 
ATOM      6  C   UNL     1       6.175  -2.032  -5.905  0.00  0.00    +0.093 C 
ENDROOT
BRANCH   1   9
ATOM      7  C   UNL     1       2.696  -1.860  -4.732  0.00  0.00    +0.244 C 
ATOM      8  O   UNL     1       2.106  -2.559  -5.533  0.00  0.00    -0.270 OA
ATOM      9  N   UNL     1       3.981  -1.521  -4.953  0.00  0.00    -0.307 N 
ATOM     10  H   UNL     1       4.452  -0.963  -4.314  0.00  0.00    +0.149 HD
BRANCH   7  14
ATOM     11  C   UNL     1       0.707  -0.490  -1.238  0.00  0.00    -0.042 A 
ATOM     12  C   UNL     1       0.033  -1.285  -2.147  0.00  0.00    +0.005 A 
ATOM     13  C   UNL     1       0.672  -1.733  -3.284  0.00  0.00    +0.013 A 
ATOM     14  C   UNL     1       2.004  -1.383  -3.516  0.00  0.00    +0.037 A 
ATOM     15  C   UNL     1       2.679  -0.581  -2.595  0.00  0.00    +0.013 A 
ATOM     16  C   UNL     1       2.025  -0.135  -1.464  0.00  0.00    +0.005 A 
BRANCH  11  18
ATOM     17  C   UNL     1      -0.019   1.526   0.010  0.00  0.00    +0.015 C 
ATOM     18  C   UNL     1       0.002  -0.004   0.002  0.00  0.00    -0.013 C 
ATOM     19  C   UNL     1       0.742  -0.511   1.242  0.00  0.00    +0.015 C 
ATOM     20  C   UNL     1      -1.433  -0.534   0.013  0.00  0.00    +0.015 C 
ENDBRANCH  11  18
ENDBRANCH   7  14
ENDBRANCH   1   9
BRANCH   6  21
ATOM     21  N   UNL     1       6.460  -2.942  -4.792  0.00  0.00    -0.305 N 
ATOM     22  C   UNL     1       7.581  -2.781  -4.061  0.00  0.00    +0.263 C 
ATOM     23  O   UNL     1       8.356  -1.881  -4.325  0.00  0.00    -0.269 OA
ATOM     24  H   UNL     1       5.842  -3.659  -4.582  0.00  0.00    +0.149 HD
BRANCH  22  25
ATOM     25  C   UNL     1       7.867  -3.695  -2.942  0.00  0.00    +0.133 A 
ATOM     26  C   UNL     1       8.991  -3.566  -2.170  0.00  0.00    +0.080 A 
ATOM     27  S   UNL     1       8.824  -4.829  -1.075  0.00  0.00    -0.076 S 
ATOM     28  C   UNL     1       7.369  -5.468  -1.617  0.00  0.00    +0.116 A 
ATOM     29  N   UNL     1       7.043  -4.697  -2.618  0.00  0.00    -0.236 NA
BRANCH  28  30
ATOM     30  C   UNL     1       6.612  -6.651  -1.070  0.00  0.00    +0.292 C 
BRANCH  30  31
ATOM     31  O   UNL     1       7.043  -7.840  -1.735  0.00  0.00    -0.482 OA
BRANCH  31  32
ATOM     32  C   UNL     1       6.455  -9.007  -1.357  0.00  0.00    +0.162 A 
ATOM     33  C   UNL     1       5.481  -9.005  -0.372  0.00  0.00    +0.049 A 
ATOM     34  C   UNL     1       4.883 -10.192   0.011  0.00  0.00    +0.004 A 
ATOM     35  C   UNL     1       5.256 -11.382  -0.587  0.00  0.00    +0.004 A 
ATOM     36  C   UNL     1       6.228 -11.390  -1.569  0.00  0.00    +0.049 A 
ATOM     37  C   UNL     1       6.827 -10.203  -1.962  0.00  0.00    +0.162 A 
BRANCH  37  38
ATOM     38  O   UNL     1       7.779 -10.209  -2.933  0.00  0.00    -0.491 OA
ATOM     39  C   UNL     1       8.110 -11.474  -3.510  0.00  0.00    +0.277 C 
ENDBRANCH  37  38
ENDBRANCH  31  32
ENDBRANCH  30  31
ENDBRANCH  28  30
ENDBRANCH  22  25
ENDBRANCH   6  21
TORSDOF 9
