REMARK  Name = ZINC39631866
REMARK  16 active torsions:
REMARK  status: ('A' for Active; 'I' for Inactive)
REMARK    1  A    between atoms: C_1  and  C_2
REMARK    2  A    between atoms: C_4  and  C_11
REMARK    3  A    between atoms: N_5  and  C_7
REMARK    4  A    between atoms: C_7  and  C_8
REMARK    5  A    between atoms: C_7  and  C_9
REMARK    6  A    between atoms: C_7  and  C_10
REMARK    7  A    between atoms: C_15  and  C_24
REMARK    8  A    between atoms: N_26  and  C_27
REMARK    9  A    between atoms: C_27  and  C_29
REMARK   10  A    between atoms: C_27  and  C_30
REMARK   11  A    between atoms: C_30  and  C_31
REMARK   12  A    between atoms: C_31  and  C_32
REMARK   13  A    between atoms: C_32  and  C_33
REMARK   14  A    between atoms: C_33  and  C_34
REMARK   15  A    between atoms: C_33  and  C_35
REMARK   16  A    between atoms: C_33  and  O_36
REMARK                            x       y       z     vdW  Elec       q    Type
REMARK                         _______ _______ _______ _____ _____    ______ ____
ROOT
ATOM      1  C   UNL     1      -0.633  -4.141  -1.083  0.00  0.00    +0.265 C 
ATOM      2  O   UNL     1      -0.908  -4.048  -2.265  0.00  0.00    -0.268 OA
ATOM      3  N   UNL     1      -0.762  -5.325  -0.453  0.00  0.00    -0.295 N 
ATOM      4  C   UNL     1      -0.606  -5.605   0.994  0.00  0.00    +0.121 C 
ATOM      5  C   UNL     1      -1.722  -6.624   1.317  0.00  0.00    +0.100 C 
ATOM      6  C   UNL     1      -2.034  -7.303  -0.028  0.00  0.00    -0.004 C 
ATOM      7  C   UNL     1      -1.097  -6.641  -1.048  0.00  0.00    +0.115 C 
ATOM      8  C   UNL     1      -1.750  -8.800   0.058  0.00  0.00    -0.010 C 
ATOM      9  C   UNL     1      -2.123  -9.461  -1.272  0.00  0.00    -0.082 C 
ATOM     10  N   UNL     1      -3.544  -9.227  -1.556  0.00  0.00    +0.379 N 
ATOM     11  C   UNL     1      -3.790  -7.790  -1.728  0.00  0.00    -0.082 C 
ATOM     12  C   UNL     1      -3.488  -7.058  -0.418  0.00  0.00    -0.010 C 
ATOM     13  H   UNL     1      -3.802  -9.715  -2.401  0.00  0.00    -0.086 HD
ATOM     14  H   UNL     1      -4.101  -9.573  -0.789  0.00  0.00    -0.086 HD
ENDROOT
BRANCH   1  18
ATOM     15  C   UNL     1       1.222  -1.040   2.476  0.00  0.00    +0.067 C 
ATOM     16  C   UNL     1       0.647  -1.595   1.198  0.00  0.00    +0.061 A 
ATOM     17  C   UNL     1       0.334  -2.933   0.949  0.00  0.00    +0.057 A 
ATOM     18  C   UNL     1      -0.160  -2.960  -0.343  0.00  0.00    +0.124 A 
ATOM     19  N   UNL     1      -0.121  -1.671  -0.794  0.00  0.00    -0.254 N 
ATOM     20  N   UNL     1       0.347  -0.907   0.126  0.00  0.00    -0.175 NA
BRANCH  19  21
ATOM     21  C   UNL     1      -0.553  -1.228  -2.122  0.00  0.00    +0.056 C 
ATOM     22  C   UNL     1      -1.998  -1.671  -2.363  0.00  0.00    +0.036 C 
ATOM     23  C   UNL     1      -0.467   0.297  -2.203  0.00  0.00    +0.036 C 
ATOM     24  C   UNL     1       0.355  -1.848  -3.187  0.00  0.00    +0.036 C 
ENDBRANCH  19  21
ENDBRANCH   1  18
BRANCH   5  25
ATOM     25  C   UNL     1      -1.232  -7.639   2.318  0.00  0.00    +0.218 C 
ATOM     26  O   UNL     1      -0.049  -7.897   2.390  0.00  0.00    -0.275 OA
ATOM     27  N   UNL     1      -2.108  -8.258   3.133  0.00  0.00    -0.312 N 
ATOM     28  H   UNL     1      -3.060  -8.108   3.026  0.00  0.00    +0.149 HD
BRANCH  27  29
ATOM     29  C   UNL     1      -1.622  -9.158   4.182  0.00  0.00    +0.070 C 
ATOM     30  C   UNL     1      -1.264  -8.345   5.427  0.00  0.00    +0.028 C 
BRANCH  29  31
ATOM     31  C   UNL     1      -2.715 -10.171   4.532  0.00  0.00    +0.022 C 
BRANCH  31  32
ATOM     32  C   UNL     1      -2.985 -11.068   3.322  0.00  0.00    +0.005 C 
BRANCH  32  33
ATOM     33  C   UNL     1      -4.077 -12.080   3.671  0.00  0.00    +0.034 C 
BRANCH  33  34
ATOM     34  C   UNL     1      -4.348 -12.977   2.461  0.00  0.00    +0.061 C 
ATOM     35  C   UNL     1      -5.524 -13.906   2.768  0.00  0.00    +0.041 C 
ATOM     36  C   UNL     1      -4.686 -12.108   1.248  0.00  0.00    +0.041 C 
BRANCH  34  37
ATOM     37  O   UNL     1      -3.185 -13.758   2.178  0.00  0.00    -0.389 OA
ATOM     38  H   UNL     1      -3.284 -14.351   1.421  0.00  0.00    +0.210 HD
ENDBRANCH  34  37
ENDBRANCH  33  34
ENDBRANCH  32  33
ENDBRANCH  31  32
ENDBRANCH  29  31
ENDBRANCH  27  29
ENDBRANCH   5  25
TORSDOF 9
