REMARK  Name = ZINC42206220
REMARK  5 active torsions:
REMARK  status: ('A' for Active; 'I' for Inactive)
REMARK    1  A    between atoms: C_1  and  N_2
REMARK    2  A    between atoms: N_2  and  C_3
REMARK    3  A    between atoms: N_2  and  O_13
REMARK    4  A    between atoms: C_8  and  N_9
REMARK    5  A    between atoms: O_13  and  C_14
REMARK                            x       y       z     vdW  Elec       q    Type
REMARK                         _______ _______ _______ _____ _____    ______ ____
ROOT
ATOM      1  C   UNL     1       0.176  -0.789   1.077  0.00  0.00    +0.094 A 
ATOM      2  C   UNL     1      -0.888  -1.024   1.938  0.00  0.00    +0.031 A 
ATOM      3  C   UNL     1      -0.704  -1.804   3.063  0.00  0.00    +0.017 A 
ATOM      4  C   UNL     1       0.538  -2.351   3.332  0.00  0.00    +0.020 A 
ATOM      5  C   UNL     1       1.600  -2.118   2.476  0.00  0.00    +0.050 A 
ATOM      6  C   UNL     1       1.420  -1.344   1.347  0.00  0.00    +0.152 A 
ATOM      7 BR   UNL     1       0.785  -3.418   4.873  0.00  0.00    -0.050 Br
ENDROOT
BRANCH   6   8
ATOM      8  N   UNL     1       2.555  -1.100   0.428  0.00  0.00    +0.059 N 
ATOM      9  O   UNL     1       3.612  -1.656   0.612  0.00  0.00    -0.126 OA
ATOM     10  O   UNL     1       2.424  -0.345  -0.507  0.00  0.00    -0.126 OA
ENDBRANCH   6   8
BRANCH   1  12
ATOM     11  C   UNL     1      -0.515  -0.602  -1.296  0.00  0.00    +0.178 C 
ATOM     12  N   UNL     1      -0.007   0.000  -0.062  0.00  0.00    -0.254 N 
BRANCH  12  13
ATOM     13  O   UNL     1       0.299   1.382  -0.022  0.00  0.00    -0.275 OA
ATOM     14  C   UNL     1      -0.825   2.219   0.258  0.00  0.00    +0.229 C 
ENDBRANCH  12  13
ENDBRANCH   1  12
TORSDOF 3
