REMARK  Name = ZINC09246792
REMARK  12 active torsions:
REMARK  status: ('A' for Active; 'I' for Inactive)
REMARK    1  A    between atoms: C_1  and  C_2
REMARK    2  A    between atoms: C_5  and  C_35
REMARK    3  A    between atoms: C_6  and  O_8
REMARK    4  A    between atoms: O_8  and  C_9
REMARK    5  A    between atoms: C_9  and  C_10
REMARK    6  A    between atoms: C_10  and  N_11
REMARK    7  A    between atoms: C_13  and  C_20
REMARK    8  A    between atoms: C_30  and  C_32
REMARK    9  A    between atoms: C_32  and  C_33
REMARK   10  A    between atoms: C_32  and  C_34
REMARK   11  A    between atoms: C_35  and  C_36
REMARK   12  A    between atoms: C_35  and  C_37
REMARK                            x       y       z     vdW  Elec       q    Type
REMARK                         _______ _______ _______ _____ _____    ______ ____
ROOT
ATOM      1  N   UNL     1       0.079  -2.299   6.104  0.00  0.00    -0.343 N 
ATOM      2  C   UNL     1       1.175  -1.933   6.798  0.00  0.00    +0.095 A 
ATOM      3  C   UNL     1       0.809  -1.088   7.827  0.00  0.00    +0.001 A 
ATOM      4  C   UNL     1      -0.657  -0.937   7.734  0.00  0.00    +0.007 A 
ATOM      5  C   UNL     1      -1.053  -1.714   6.634  0.00  0.00    +0.050 A 
ATOM      6  C   UNL     1      -2.400  -1.767   6.287  0.00  0.00    +0.026 A 
ATOM      7  C   UNL     1      -3.327  -1.058   7.020  0.00  0.00    +0.002 A 
ATOM      8  C   UNL     1      -2.933  -0.289   8.104  0.00  0.00    +0.001 A 
ATOM      9  C   UNL     1      -1.604  -0.230   8.468  0.00  0.00    +0.010 A 
ENDROOT
BRANCH   3  10
ATOM     10  C   UNL     1       1.665  -0.488   8.779  0.00  0.00    +0.026 C 
ATOM     11  C   UNL     1       2.980  -0.214   8.450  0.00  0.00    +0.081 C 
ATOM     12  C   UNL     1       3.490  -0.374   7.061  0.00  0.00    +0.152 C 
ATOM     13  N   UNL     1       2.758  -0.160   5.998  0.00  0.00    -0.283 NA
ATOM     14  N   UNL     1       4.840  -0.778   7.002  0.00  0.00    -0.152 N 
ATOM     15  C   UNL     1       5.634  -0.504   8.096  0.00  0.00    +0.181 C 
ATOM     16  N   UNL     1       5.264   0.010   9.241  0.00  0.00    -0.152 NA
ATOM     17  C   UNL     1       3.954   0.259   9.460  0.00  0.00    +0.273 C 
ATOM     18  O   UNL     1       3.584   0.852  10.461  0.00  0.00    -0.268 OA
ATOM     19  S   UNL     1       7.229  -1.046   7.542  0.00  0.00    -0.038 S 
ATOM     20  C   UNL     1       6.720  -1.686   5.952  0.00  0.00    +0.102 C 
ATOM     21  N   UNL     1       5.446  -1.416   5.941  0.00  0.00    -0.169 NA
ATOM     22  H   UNL     1       3.119  -0.340   5.116  0.00  0.00    +0.188 HD
BRANCH  20  23
ATOM     23  C   UNL     1       7.553  -2.364   4.895  0.00  0.00    +0.040 C 
ATOM     24  C   UNL     1       7.660  -3.857   5.211  0.00  0.00    +0.014 C 
ATOM     25  C   UNL     1       6.891  -2.178   3.528  0.00  0.00    +0.014 C 
ENDBRANCH  20  23
ENDBRANCH   3  10
BRANCH   1  26
ATOM     26  C   UNL     1       0.089  -3.192   4.942  0.00  0.00    +0.163 C 
BRANCH  26  27
ATOM     27  C   UNL     1       0.146  -2.358   3.659  0.00  0.00    +0.250 C 
BRANCH  27  28
ATOM     28  O   UNL     1       0.156  -3.229   2.526  0.00  0.00    -0.490 OA
BRANCH  28  34
ATOM     29  C   UNL     1       0.336   0.831  -0.177  0.00  0.00    +0.044 C 
ATOM     30  C   UNL     1       0.295  -0.670  -0.057  0.00  0.00    -0.047 A 
ATOM     31  C   UNL     1       0.307  -1.455  -1.196  0.00  0.00    +0.004 A 
ATOM     32  C   UNL     1       0.269  -2.833  -1.089  0.00  0.00    +0.008 A 
ATOM     33  C   UNL     1       0.218  -3.429   0.157  0.00  0.00    -0.003 A 
ATOM     34  C   UNL     1       0.206  -2.644   1.300  0.00  0.00    +0.124 A 
ATOM     35  C   UNL     1       0.250  -1.262   1.190  0.00  0.00    +0.049 A 
BRANCH  33  36
ATOM     36  C   UNL     1       0.175  -4.931   0.272  0.00  0.00    +0.016 C 
ATOM     37  C   UNL     1      -1.069  -5.463  -0.443  0.00  0.00    +0.012 C 
ATOM     38  C   UNL     1       1.428  -5.528  -0.372  0.00  0.00    +0.012 C 
ENDBRANCH  33  36
ENDBRANCH  28  34
ENDBRANCH  27  28
ENDBRANCH  26  27
ENDBRANCH   1  26
TORSDOF 7
