REMARK  Name = ZINC06173378
REMARK  9 active torsions:
REMARK  status: ('A' for Active; 'I' for Inactive)
REMARK    1  A    between atoms: C_1  and  C_2
REMARK    2  A    between atoms: C_2  and  N_3
REMARK    3  A    between atoms: N_3  and  C_4
REMARK    4  A    between atoms: N_3  and  C_6
REMARK    5  A    between atoms: C_4  and  C_5
REMARK    6  A    between atoms: C_9  and  C_13
REMARK    7  A    between atoms: C_10  and  O_12
REMARK    8  A    between atoms: N_14  and  N_15
REMARK    9  A    between atoms: C_16  and  C_18
REMARK                            x       y       z     vdW  Elec       q    Type
REMARK                         _______ _______ _______ _____ _____    ______ ____
ROOT
ATOM      1  N   UNL     1      -5.079   1.055   0.056  0.00  0.00    -0.203 N 
ATOM      2  C   UNL     1      -4.968  -0.288   0.047  0.00  0.00    +0.268 C 
ATOM      3  O   UNL     1      -5.969  -0.981   0.052  0.00  0.00    -0.268 OA
ATOM      4  H   UNL     1      -4.281   1.607   0.052  0.00  0.00    +0.178 HD
ENDROOT
BRANCH   2   5
ATOM      5  C   UNL     1      -3.639  -0.916   0.031  0.00  0.00    +0.100 A 
ATOM      6  C   UNL     1      -2.490  -0.142   0.024  0.00  0.00    +0.030 A 
ATOM      7  C   UNL     1      -1.236  -0.787   0.009  0.00  0.00    +0.026 A 
ATOM      8  C   UNL     1       0.002  -0.004   0.002  0.00  0.00    -0.007 A 
ATOM      9  C   UNL     1      -0.017   1.393   0.010  0.00  0.00    +0.009 A 
ATOM     10  C   UNL     1       1.160   2.084   0.002  0.00  0.00    +0.001 A 
ATOM     11  C   UNL     1       2.380   1.415  -0.012  0.00  0.00    +0.001 A 
ATOM     12  C   UNL     1       2.433   0.054  -0.020  0.00  0.00    +0.008 A 
ATOM     13  C   UNL     1       1.241  -0.688  -0.013  0.00  0.00    -0.017 A 
ATOM     14  C   UNL     1       1.254  -2.096  -0.021  0.00  0.00    +0.012 A 
ATOM     15  C   UNL     1       0.100  -2.808  -0.015  0.00  0.00    +0.047 A 
ATOM     16  C   UNL     1      -1.153  -2.185   0.000  0.00  0.00    +0.138 A 
ATOM     17  O   UNL     1      -2.273  -2.941   0.006  0.00  0.00    -0.437 OA
ATOM     18  C   UNL     1      -3.500  -2.382   0.021  0.00  0.00    +0.226 A 
ATOM     19  N   UNL     1      -4.564  -3.141   0.026  0.00  0.00    -0.266 NA
ATOM     20  H   UNL     1      -4.472  -4.106   0.020  0.00  0.00    +0.190 HD
ENDBRANCH   2   5
BRANCH   1  22
ATOM     21  C   UNL     1      -6.451   2.948   0.081  0.00  0.00    +0.142 C 
ATOM     22  N   UNL     1      -6.345   1.653   0.072  0.00  0.00    -0.187 NA
BRANCH  21  26
ATOM     23  C   UNL     1     -10.291   4.764   0.127  0.00  0.00    +0.033 A 
ATOM     24  C   UNL     1      -9.146   5.555   0.121  0.00  0.00    +0.024 A 
ATOM     25  C   UNL     1      -7.900   4.970   0.106  0.00  0.00    +0.015 A 
ATOM     26  C   UNL     1      -7.783   3.577   0.097  0.00  0.00    +0.036 A 
ATOM     27  C   UNL     1      -8.938   2.781   0.097  0.00  0.00    +0.127 A 
ATOM     28  C   UNL     1     -10.185   3.379   0.117  0.00  0.00    +0.069 A 
BRANCH  27  29
ATOM     29  O   UNL     1      -8.831   1.427   0.083  0.00  0.00    -0.506 OA
ATOM     30  H   UNL     1      -8.794   1.026   0.962  0.00  0.00    +0.292 HD
ENDBRANCH  27  29
BRANCH  23  31
ATOM     31  N   UNL     1     -11.550   5.364   0.142  0.00  0.00    -0.330 N 
BRANCH  31  33
ATOM     32  C   UNL     1     -11.719   7.341  -1.287  0.00  0.00    +0.024 C 
ATOM     33  C   UNL     1     -11.666   6.824   0.152  0.00  0.00    +0.102 C 
ENDBRANCH  31  33
BRANCH  31  34
ATOM     34  C   UNL     1     -12.757   4.533   0.148  0.00  0.00    +0.102 C 
ATOM     35  C   UNL     1     -13.164   4.236   1.592  0.00  0.00    +0.024 C 
ENDBRANCH  31  34
ENDBRANCH  23  31
ENDBRANCH  21  26
ENDBRANCH   1  22
TORSDOF 7
