REMARK  Name = ZINC14529401
REMARK  11 active torsions:
REMARK  status: ('A' for Active; 'I' for Inactive)
REMARK    1  A    between atoms: C_1  and  C_2
REMARK    2  A    between atoms: C_3  and  C_14
REMARK    3  A    between atoms: C_4  and  C_13
REMARK    4  A    between atoms: C_9  and  S_11
REMARK    5  A    between atoms: S_11  and  C_12
REMARK    6  A    between atoms: C_14  and  C_15
REMARK    7  A    between atoms: C_15  and  C_16
REMARK    8  A    between atoms: C_21  and  C_24
REMARK    9  A    between atoms: C_24  and  N_63
REMARK   10  A    between atoms: C_26  and  C_33
REMARK   11  A    between atoms: C_29  and  C_32
REMARK                            x       y       z     vdW  Elec       q    Type
REMARK                         _______ _______ _______ _____ _____    ______ ____
ROOT
ATOM      1  C   UNL     1       1.260  -4.210  -1.474  0.00  0.00    +0.219 C 
ATOM      2  O   UNL     1       1.279  -4.821  -0.427  0.00  0.00    -0.275 OA
ATOM      3  N   UNL     1       1.258  -4.878  -2.645  0.00  0.00    -0.265 N 
ATOM      4  C   UNL     1       1.280  -6.267  -2.652  0.00  0.00    +0.164 A 
ATOM      5  N   UNL     1       1.282  -7.091  -3.682  0.00  0.00    -0.231 NA
ATOM      6  C   UNL     1       1.304  -8.398  -3.512  0.00  0.00    +0.034 A 
ATOM      7  C   UNL     1       1.324  -8.885  -2.247  0.00  0.00    +0.070 A 
ATOM      8  S   UNL     1       1.317  -7.365  -1.307  0.00  0.00    -0.060 S 
ATOM      9  H   UNL     1       1.243  -4.388  -3.482  0.00  0.00    +0.157 HD
ENDROOT
BRANCH   1  10
ATOM     10  C   UNL     1       1.237  -2.703  -1.466  0.00  0.00    +0.101 C 
BRANCH  10  11
ATOM     11  C   UNL     1       1.243  -2.200  -0.021  0.00  0.00    +0.048 C 
BRANCH  11  14
ATOM     12  C   UNL     1      -1.295  -0.772   0.011  0.00  0.00    +0.066 C 
ATOM     13  C   UNL     1       0.002  -0.004   0.002  0.00  0.00    +0.047 A 
ATOM     14  C   UNL     1       1.220  -0.693  -0.013  0.00  0.00    -0.005 A 
ATOM     15  C   UNL     1       2.381   0.012  -0.021  0.00  0.00    +0.048 A 
ATOM     16  N   UNL     1       2.329   1.369  -0.013  0.00  0.00    -0.200 N 
ATOM     17  C   UNL     1       1.123   2.012   0.002  0.00  0.00    +0.254 A 
ATOM     18  N   UNL     1      -0.016   1.310   0.009  0.00  0.00    -0.216 NA
ATOM     19  N   UNL     1       1.370   3.318   0.007  0.00  0.00    -0.183 NA
ATOM     20  C   UNL     1       2.685   3.526  -0.004  0.00  0.00    +0.211 A 
ATOM     21  N   UNL     1       3.312   2.367  -0.017  0.00  0.00    -0.137 NA
ATOM     22  C   UNL     1       3.709  -0.702  -0.038  0.00  0.00    +0.066 C 
BRANCH  20  23
ATOM     23  S   UNL     1       3.465   5.106  -0.002  0.00  0.00    -0.088 S 
ATOM     24  C   UNL     1       2.081   6.279   0.017  0.00  0.00    +0.093 C 
ENDBRANCH  20  23
ENDBRANCH  11  14
ENDBRANCH  10  11
ENDBRANCH   1  10
BRANCH   6  25
ATOM     25  C   UNL     1       1.306  -9.330  -4.696  0.00  0.00    -0.022 C 
BRANCH  25  33
ATOM     26  C   UNL     1      -0.820  -8.295  -5.214  0.00  0.00    -0.075 C 
ATOM     27  C   UNL     1      -2.287  -8.585  -5.539  0.00  0.00    -0.031 C 
ATOM     28  C   UNL     1      -2.372  -9.326  -6.876  0.00  0.00    +0.003 C 
ATOM     29  C   UNL     1      -1.547 -10.613  -6.791  0.00  0.00    -0.031 C 
ATOM     30  C   UNL     1      -0.102 -10.265  -6.429  0.00  0.00    -0.075 C 
ATOM     31  C   UNL     1      -1.577 -11.330  -8.142  0.00  0.00    +0.005 C 
ATOM     32  C   UNL     1      -3.060  -7.268  -5.635  0.00  0.00    +0.005 C 
ATOM     33  N   UNL     1      -0.087  -9.576  -5.121  0.00  0.00    +0.384 N 
ATOM     34  H   UNL     1      -0.547 -10.174  -4.425  0.00  0.00    -0.081 HD
ENDBRANCH  25  33
ENDBRANCH   6  25
TORSDOF 6
