REMARK  Name = ZINC17112507
REMARK  4 active torsions:
REMARK  status: ('A' for Active; 'I' for Inactive)
REMARK    1  A    between atoms: C_8  and  C_26
REMARK    2  A    between atoms: C_10  and  C_17
REMARK    3  A    between atoms: C_21  and  N_23
REMARK    4  A    between atoms: C_26  and  C_28
REMARK                            x       y       z     vdW  Elec       q    Type
REMARK                         _______ _______ _______ _____ _____    ______ ____
ROOT
ATOM      1  C   UNL     1      -5.291  -2.962   1.284  0.00  0.00    +0.000 A 
ATOM      2  C   UNL     1      -5.950  -2.872   0.072  0.00  0.00    +0.002 A 
ATOM      3  C   UNL     1      -5.498  -3.581  -1.022  0.00  0.00    +0.023 A 
ATOM      4  C   UNL     1      -4.372  -4.394  -0.912  0.00  0.00    +0.036 A 
ATOM      5  C   UNL     1      -3.718  -4.477   0.313  0.00  0.00    -0.027 A 
ATOM      6  C   UNL     1      -4.172  -3.767   1.401  0.00  0.00    +0.004 A 
ATOM      7  C   UNL     1      -2.564  -5.421   0.104  0.00  0.00    +0.051 C 
ATOM      8  C   UNL     1      -1.227  -4.730   0.389  0.00  0.00    +0.069 C 
ATOM      9  C   UNL     1      -0.773  -5.266   1.760  0.00  0.00    +0.016 C 
ATOM     10  C   UNL     1      -1.871  -6.245   2.213  0.00  0.00    -0.059 C 
ATOM     11  C   UNL     1      -1.986  -7.762   0.400  0.00  0.00    -0.076 C 
ATOM     12  C   UNL     1      -1.613  -8.616   1.638  0.00  0.00    -0.020 C 
ATOM     13  C   UNL     1      -1.205  -7.553   2.683  0.00  0.00    -0.016 C 
ATOM     14  C   UNL     1      -2.661  -5.833  -1.342  0.00  0.00    +0.212 C 
ATOM     15  O   UNL     1      -1.919  -6.591  -1.930  0.00  0.00    -0.277 OA
ATOM     16  N   UNL     1      -3.730  -5.197  -1.857  0.00  0.00    -0.286 N 
ATOM     17  H   UNL     1      -4.021  -5.286  -2.778  0.00  0.00    +0.155 HD
ATOM     18  N   UNL     1      -2.620  -6.576   1.017  0.00  0.00    +0.395 N 
ATOM     19  H   UNL     1      -3.597  -6.786   1.253  0.00  0.00    -0.079 HD
ENDROOT
BRANCH   9  20
ATOM     20  C   UNL     1      -0.647  -4.133   2.745  0.00  0.00    -0.043 A 
ATOM     21  C   UNL     1      -1.612  -3.144   2.788  0.00  0.00    +0.004 A 
ATOM     22  C   UNL     1      -1.499  -2.107   3.695  0.00  0.00    +0.002 A 
ATOM     23  C   UNL     1      -0.416  -2.054   4.553  0.00  0.00    +0.033 A 
ATOM     24  C   UNL     1       0.551  -3.041   4.507  0.00  0.00    +0.126 A 
ATOM     25  C   UNL     1       0.435  -4.081   3.603  0.00  0.00    +0.036 A 
BRANCH  24  26
ATOM     26  N   UNL     1       1.710  -2.984   5.426  0.00  0.00    +0.056 N 
ATOM     27  O   UNL     1       2.562  -3.854   5.385  0.00  0.00    -0.126 OA
ATOM     28  O   UNL     1       1.812  -2.068   6.222  0.00  0.00    -0.126 OA
ENDBRANCH  24  26
ENDBRANCH   9  20
BRANCH   8  29
ATOM     29  C   UNL     1      -1.414  -3.236   0.449  0.00  0.00    +0.166 C 
ATOM     30  O   UNL     1      -2.513  -2.754   0.266  0.00  0.00    -0.292 OA
BRANCH  29  31
ATOM     31  C   UNL     1      -0.267  -2.363   0.729  0.00  0.00    +0.021 A 
ATOM     32  C   UNL     1       1.002  -2.916   0.940  0.00  0.00    +0.015 A 
ATOM     33  C   UNL     1       2.075  -2.095   1.202  0.00  0.00    +0.050 A 
ATOM     34  C   UNL     1       1.905  -0.717   1.258  0.00  0.00    +0.166 A 
ATOM     35  C   UNL     1       0.643  -0.158   1.048  0.00  0.00    +0.167 A 
ATOM     36  C   UNL     1      -0.438  -0.974   0.785  0.00  0.00    +0.061 A 
ATOM     37  O   UNL     1       0.745   1.199   1.155  0.00  0.00    -0.453 OA
ATOM     38  C   UNL     1       1.992   1.437   1.835  0.00  0.00    +0.466 C 
ATOM     39  O   UNL     1       2.793   0.290   1.495  0.00  0.00    -0.453 OA
ENDBRANCH  29  31
ENDBRANCH   8  29
TORSDOF 4
