REMARK  Name = ZINC20205878
REMARK  9 active torsions:
REMARK  status: ('A' for Active; 'I' for Inactive)
REMARK    1  A    between atoms: C_1  and  C_2
REMARK    2  A    between atoms: C_4  and  C_36
REMARK    3  A    between atoms: C_6  and  O_8
REMARK    4  A    between atoms: O_8  and  C_9
REMARK    5  A    between atoms: C_9  and  C_10
REMARK    6  A    between atoms: C_10  and  N_11
REMARK    7  A    between atoms: C_13  and  C_20
REMARK    8  A    between atoms: C_31  and  S_32
REMARK    9  A    between atoms: S_32  and  C_35
REMARK                            x       y       z     vdW  Elec       q    Type
REMARK                         _______ _______ _______ _____ _____    ______ ____
ROOT
ATOM      1  N   UNL     1       0.109  -2.101   6.171  0.00  0.00    -0.343 N 
ATOM      2  C   UNL     1       1.162  -1.701   6.911  0.00  0.00    +0.095 A 
ATOM      3  C   UNL     1       0.731  -1.345   8.175  0.00  0.00    +0.001 A 
ATOM      4  C   UNL     1      -0.731  -1.557   8.184  0.00  0.00    +0.007 A 
ATOM      5  C   UNL     1      -1.060  -2.024   6.902  0.00  0.00    +0.050 A 
ATOM      6  C   UNL     1      -2.387  -2.311   6.602  0.00  0.00    +0.026 A 
ATOM      7  C   UNL     1      -3.363  -2.132   7.559  0.00  0.00    +0.002 A 
ATOM      8  C   UNL     1      -3.036  -1.667   8.823  0.00  0.00    +0.001 A 
ATOM      9  C   UNL     1      -1.725  -1.386   9.143  0.00  0.00    +0.010 A 
ENDROOT
BRANCH   3  10
ATOM     10  C   UNL     1       1.528  -0.875   9.242  0.00  0.00    +0.026 C 
ATOM     11  C   UNL     1       2.755  -1.458   9.498  0.00  0.00    +0.079 C 
ATOM     12  C   UNL     1       3.703  -0.890  10.498  0.00  0.00    +0.138 C 
ATOM     13  N   UNL     1       3.318  -0.271  11.582  0.00  0.00    -0.284 NA
ATOM     14  N   UNL     1       5.055  -1.089  10.155  0.00  0.00    -0.201 N 
ATOM     15  C   UNL     1       5.371  -2.126   9.303  0.00  0.00    +0.183 C 
ATOM     16  N   UNL     1       4.523  -2.913   8.680  0.00  0.00    -0.152 NA
ATOM     17  C   UNL     1       3.198  -2.686   8.798  0.00  0.00    +0.273 C 
ATOM     18  O   UNL     1       2.384  -3.471   8.338  0.00  0.00    -0.268 OA
ATOM     19  S   UNL     1       7.037  -2.097   9.268  0.00  0.00    +0.049 S 
ATOM     20  N   UNL     1       7.306  -0.742  10.218  0.00  0.00    -0.174 NA
ATOM     21  C   UNL     1       6.118  -0.367  10.582  0.00  0.00    +0.257 C 
ATOM     22  H   UNL     1       2.373  -0.162  11.769  0.00  0.00    +0.188 HD
BRANCH  21  23
ATOM     23  S   UNL     1       5.895   1.048  11.607  0.00  0.00    +0.026 S 
ATOM     24  O   UNL     1       7.107   1.780  11.484  0.00  0.00    -0.167 OA
ATOM     25  O   UNL     1       4.662   1.613  11.181  0.00  0.00    -0.167 OA
ATOM     26  C   UNL     1       5.732   0.386  13.287  0.00  0.00    +0.203 C 
ENDBRANCH  21  23
ENDBRANCH   3  10
BRANCH   1  27
ATOM     27  C   UNL     1       0.192  -2.550   4.779  0.00  0.00    +0.163 C 
BRANCH  27  28
ATOM     28  C   UNL     1      -0.095  -1.373   3.845  0.00  0.00    +0.250 C 
BRANCH  28  29
ATOM     29  O   UNL     1      -0.014  -1.811   2.487  0.00  0.00    -0.490 OA
BRANCH  29  35
ATOM     30  C   UNL     1      -1.098   2.792   1.281  0.00  0.00    +0.044 C 
ATOM     31  C   UNL     1      -0.775   1.371   0.897  0.00  0.00    -0.047 A 
ATOM     32  C   UNL     1      -0.712   1.014  -0.437  0.00  0.00    +0.007 A 
ATOM     33  C   UNL     1      -0.415  -0.289  -0.793  0.00  0.00    -0.047 A 
ATOM     34  C   UNL     1      -0.181  -1.237   0.185  0.00  0.00    +0.049 A 
ATOM     35  C   UNL     1      -0.244  -0.880   1.524  0.00  0.00    +0.121 A 
ATOM     36  C   UNL     1      -0.536   0.429   1.878  0.00  0.00    +0.049 A 
ATOM     37  C   UNL     1      -0.348  -0.675  -2.248  0.00  0.00    +0.044 C 
ENDBRANCH  29  35
ENDBRANCH  28  29
ENDBRANCH  27  28
ENDBRANCH   1  27
TORSDOF 6
