REMARK  Name = ZINC35642079
REMARK  17 active torsions:
REMARK  status: ('A' for Active; 'I' for Inactive)
REMARK    1  A    between atoms: C_1  and  C_2
REMARK    2  A    between atoms: C_2  and  N_3
REMARK    3  A    between atoms: C_4  and  C_26
REMARK    4  A    between atoms: C_5  and  C_21
REMARK    5  A    between atoms: C_6  and  C_11
REMARK    6  A    between atoms: C_13  and  O_19
REMARK    7  A    between atoms: C_15  and  O_17
REMARK    8  A    between atoms: O_17  and  C_18
REMARK    9  A    between atoms: O_19  and  C_20
REMARK   10  A    between atoms: C_21  and  O_23
REMARK   11  A    between atoms: O_23  and  C_24
REMARK   12  A    between atoms: C_24  and  C_25
REMARK   13  A    between atoms: C_26  and  N_27
REMARK   14  A    between atoms: C_31  and  C_34
REMARK   15  A    between atoms: C_35  and  C_37
REMARK   16  A    between atoms: C_37  and  C_38
REMARK   17  A    between atoms: C_37  and  C_39
REMARK                            x       y       z     vdW  Elec       q    Type
REMARK                         _______ _______ _______ _____ _____    ______ ____
ROOT
ATOM      1  N   UNL     1       0.270   0.944  -2.309  0.00  0.00    -0.258 N 
ATOM      2  C   UNL     1      -0.497   0.815  -3.432  0.00  0.00    +0.041 C 
ATOM      3  C   UNL     1       0.062   0.539  -4.629  0.00  0.00    +0.080 C 
ATOM      4  C   UNL     1       1.568   0.377  -4.684  0.00  0.00    +0.144 C 
ATOM      5  N   UNL     1       2.303   0.535  -3.418  0.00  0.00    -0.288 N 
ATOM      6  C   UNL     1       1.602   0.816  -2.301  0.00  0.00    +0.307 C 
ATOM      7  O   UNL     1       2.200   0.952  -1.251  0.00  0.00    -0.252 OA
ATOM      8  H   UNL     1       3.268   0.443  -3.389  0.00  0.00    +0.151 HD
ENDROOT
BRANCH   4   9
ATOM      9  C   UNL     1       2.109   1.387  -5.663  0.00  0.00    -0.016 A 
ATOM     10  C   UNL     1       2.284   2.701  -5.273  0.00  0.00    +0.051 A 
ATOM     11  C   UNL     1       2.782   3.632  -6.173  0.00  0.00    +0.124 A 
ATOM     12  C   UNL     1       3.103   3.244  -7.464  0.00  0.00    +0.091 A 
ATOM     13  C   UNL     1       2.926   1.926  -7.854  0.00  0.00    +0.124 A 
ATOM     14  C   UNL     1       2.433   0.997  -6.948  0.00  0.00    +0.051 A 
BRANCH  13  15
ATOM     15  O   UNL     1       3.239   1.542  -9.119  0.00  0.00    -0.495 OA
ATOM     16  C   UNL     1       3.746   2.551  -9.996  0.00  0.00    +0.277 C 
ENDBRANCH  13  15
BRANCH  11  17
ATOM     17  O   UNL     1       2.955   4.925  -5.788  0.00  0.00    -0.495 OA
ATOM     18  C   UNL     1       3.471   5.829  -6.766  0.00  0.00    +0.277 C 
ENDBRANCH  11  17
ENDBRANCH   4   9
BRANCH   1  20
ATOM     19  C   UNL     1      -0.501   2.760  -0.864  0.00  0.00    +0.025 C 
ATOM     20  C   UNL     1      -0.404   1.244  -1.043  0.00  0.00    +0.111 C 
ENDBRANCH   1  20
BRANCH   3  21
ATOM     21  C   UNL     1      -0.730   0.405  -5.793  0.00  0.00    +0.339 C 
ATOM     22  O   UNL     1      -0.992  -0.701  -6.227  0.00  0.00    -0.245 OA
BRANCH  21  23
ATOM     23  O   UNL     1      -1.197   1.504  -6.422  0.00  0.00    -0.462 OA
BRANCH  23  24
ATOM     24  C   UNL     1      -1.991   1.294  -7.591  0.00  0.00    +0.229 C 
ATOM     25  C   UNL     1      -2.426   2.646  -8.162  0.00  0.00    +0.048 C 
ENDBRANCH  23  24
ENDBRANCH  21  23
ENDBRANCH   3  21
BRANCH   2  26
ATOM     26  C   UNL     1      -1.991   0.984  -3.332  0.00  0.00    +0.136 C 
BRANCH  26  27
ATOM     27  N   UNL     1      -2.554  -0.104  -2.522  0.00  0.00    -0.294 NA
ATOM     28  C   UNL     1      -2.386  -1.401  -3.192  0.00  0.00    +0.104 C 
ATOM     29  C   UNL     1      -2.818  -2.522  -2.242  0.00  0.00    +0.123 C 
ATOM     30  N   UNL     1      -4.183  -2.237  -1.774  0.00  0.00    -0.296 N 
ATOM     31  C   UNL     1      -4.463  -0.906  -1.214  0.00  0.00    +0.087 C 
ATOM     32  C   UNL     1      -3.966   0.152  -2.205  0.00  0.00    +0.107 C 
ATOM     33  C   UNL     1      -5.969  -0.746  -0.998  0.00  0.00    +0.029 C 
ATOM     34  C   UNL     1      -5.151  -3.171  -1.854  0.00  0.00    +0.218 C 
ATOM     35  O   UNL     1      -6.290  -2.894  -1.540  0.00  0.00    -0.275 OA
BRANCH  34  36
ATOM     36  C   UNL     1      -4.820  -4.561  -2.334  0.00  0.00    +0.069 C 
ATOM     37  C   UNL     1      -4.240  -5.376  -1.175  0.00  0.00    +0.017 C 
ATOM     38  C   UNL     1      -6.091  -5.240  -2.848  0.00  0.00    +0.017 C 
ENDBRANCH  34  36
ENDBRANCH  26  27
ENDBRANCH   2  26
TORSDOF 10
