REMARK  Name = ZINC63503296
REMARK  3 active torsions:
REMARK  status: ('A' for Active; 'I' for Inactive)
REMARK    1  A    between atoms: C_8  and  C_28
REMARK    2  A    between atoms: C_16  and  C_18
REMARK    3  A    between atoms: C_31  and  N_34
REMARK                            x       y       z     vdW  Elec       q    Type
REMARK                         _______ _______ _______ _____ _____    ______ ____
ROOT
ATOM      1  C   UNL     1      -0.361   1.041   1.857  0.00  0.00    +0.001 A 
ATOM      2  C   UNL     1       0.758   1.883   1.813  0.00  0.00    +0.002 A 
ATOM      3  C   UNL     1       1.985   1.446   1.457  0.00  0.00    +0.026 A 
ATOM      4  C   UNL     1       2.191   0.084   1.107  0.00  0.00    +0.043 A 
ATOM      5  N   UNL     1       3.272  -0.573   0.753  0.00  0.00    -0.375 N 
ATOM      6  C   UNL     1       2.896  -1.947   0.430  0.00  0.00    +0.131 C 
ATOM      7  C   UNL     1       3.669  -2.965   1.276  0.00  0.00    +0.133 C 
ATOM      8  N   UNL     1       2.963  -4.253   1.190  0.00  0.00    -0.285 N 
ATOM      9  C   UNL     1       1.571  -4.372   1.635  0.00  0.00    +0.113 C 
ATOM     10  C   UNL     1       0.696  -3.382   0.844  0.00  0.00    +0.052 C 
ATOM     11  C   UNL     1       1.427  -2.061   0.801  0.00  0.00    -0.035 C 
ATOM     12  C   UNL     1       1.024  -0.831   1.152  0.00  0.00    -0.001 A 
ATOM     13  C   UNL     1      -0.276  -0.272   1.547  0.00  0.00    +0.010 A 
ATOM     14  C   UNL     1       3.601  -5.332   0.696  0.00  0.00    +0.283 C 
ATOM     15  O   UNL     1       4.787  -5.270   0.432  0.00  0.00    -0.267 OA
ATOM     16  H   UNL     1       4.169  -0.206   0.713  0.00  0.00    +0.160 HD
ENDROOT
BRANCH  14  17
ATOM     17  C   UNL     1       2.864  -6.585   0.476  0.00  0.00    +0.191 A 
ATOM     18  C   UNL     1       3.432  -7.811   0.336  0.00  0.00    +0.063 A 
ATOM     19  C   UNL     1       2.326  -8.748   0.139  0.00  0.00    +0.022 A 
ATOM     20  C   UNL     1       2.244 -10.128  -0.061  0.00  0.00    +0.027 A 
ATOM     21  C   UNL     1       1.022 -10.719  -0.216  0.00  0.00    +0.019 A 
ATOM     22  C   UNL     1      -0.139  -9.956  -0.175  0.00  0.00    +0.019 A 
ATOM     23  C   UNL     1      -0.078  -8.593   0.021  0.00  0.00    +0.048 A 
ATOM     24  C   UNL     1       1.154  -7.971   0.181  0.00  0.00    +0.136 A 
ATOM     25  O   UNL     1       1.522  -6.691   0.389  0.00  0.00    -0.450 OA
ATOM     26 BR   UNL     1       0.908 -12.587  -0.488  0.00  0.00    -0.050 Br
ENDBRANCH  14  17
BRANCH   7  27
ATOM     27  C   UNL     1       5.070  -3.113   0.742  0.00  0.00    -0.025 A 
ATOM     28  C   UNL     1       5.291  -3.137  -0.622  0.00  0.00    +0.008 A 
ATOM     29  C   UNL     1       6.576  -3.273  -1.112  0.00  0.00    +0.033 A 
ATOM     30  C   UNL     1       7.641  -3.385  -0.238  0.00  0.00    +0.126 A 
ATOM     31  C   UNL     1       7.420  -3.361   1.127  0.00  0.00    +0.033 A 
ATOM     32  C   UNL     1       6.136  -3.220   1.617  0.00  0.00    +0.008 A 
BRANCH  30  33
ATOM     33  N   UNL     1       9.017  -3.532  -0.762  0.00  0.00    +0.056 N 
ATOM     34  O   UNL     1       9.210  -3.554  -1.956  0.00  0.00    -0.126 OA
ATOM     35  O   UNL     1       9.949  -3.630   0.002  0.00  0.00    -0.126 OA
ENDBRANCH  30  33
ENDBRANCH   7  27
TORSDOF 3
