REMARK  Name = ZINC38702116
REMARK  12 active torsions:
REMARK  status: ('A' for Active; 'I' for Inactive)
REMARK    1  A    between atoms: C_1  and  C_2
REMARK    2  A    between atoms: C_4  and  C_40
REMARK    3  A    between atoms: C_5  and  O_39
REMARK    4  A    between atoms: C_6  and  C_8
REMARK    5  A    between atoms: N_16  and  C_31
REMARK    6  A    between atoms: C_17  and  C_19
REMARK    7  A    between atoms: C_21  and  O_29
REMARK    8  A    between atoms: C_22  and  O_27
REMARK    9  A    between atoms: C_23  and  O_25
REMARK   10  A    between atoms: O_25  and  C_26
REMARK   11  A    between atoms: O_27  and  C_28
REMARK   12  A    between atoms: O_29  and  C_30
REMARK                            x       y       z     vdW  Elec       q    Type
REMARK                         _______ _______ _______ _____ _____    ______ ____
ROOT
ATOM      1  C   UNL     1       0.024  -2.539   2.137  0.00  0.00    +0.102 A 
ATOM      2  C   UNL     1       0.156  -2.183   3.483  0.00  0.00    +0.035 A 
ATOM      3  C   UNL     1       0.326  -3.368   4.172  0.00  0.00    +0.126 A 
ATOM      4  N   UNL     1       0.291  -4.361   3.234  0.00  0.00    -0.272 N 
ATOM      5  H   UNL     1       0.384  -5.308   3.422  0.00  0.00    +0.189 HD
ATOM      6  N   UNL     1       0.110  -3.853   2.067  0.00  0.00    -0.173 NA
ATOM      7  C   UNL     1       0.471  -3.062   5.600  0.00  0.00    +0.266 C 
ATOM      8  O   UNL     1       0.637  -3.890   6.474  0.00  0.00    -0.268 OA
ATOM      9  N   UNL     1       0.395  -1.734   5.804  0.00  0.00    -0.280 N 
ATOM     10  C   UNL     1       0.193  -1.079   4.505  0.00  0.00    +0.142 C 
ENDROOT
BRANCH   1  16
ATOM     11  C   UNL     1      -0.794   2.077   0.422  0.00  0.00    +0.044 C 
ATOM     12  C   UNL     1      -0.574   0.608   0.169  0.00  0.00    -0.049 A 
ATOM     13  C   UNL     1      -0.564   0.126  -1.129  0.00  0.00    +0.010 A 
ATOM     14  C   UNL     1      -0.363  -1.220  -1.371  0.00  0.00    -0.008 A 
ATOM     15  C   UNL     1      -0.171  -2.094  -0.313  0.00  0.00    +0.129 A 
ATOM     16  C   UNL     1      -0.180  -1.610   0.998  0.00  0.00    +0.044 A 
ATOM     17  C   UNL     1      -0.378  -0.251   1.231  0.00  0.00    +0.017 A 
ATOM     18  C   UNL     1      -0.354  -1.737  -2.786  0.00  0.00    +0.047 C 
BRANCH  15  19
ATOM     19  O   UNL     1       0.026  -3.418  -0.549  0.00  0.00    -0.506 OA
ATOM     20  H   UNL     1       0.954  -3.663  -0.663  0.00  0.00    +0.292 HD
ENDBRANCH  15  19
ENDBRANCH   1  16
BRANCH   9  21
ATOM     21  C   UNL     1       0.497  -1.058   7.100  0.00  0.00    +0.100 C 
ATOM     22  C   UNL     1       1.848  -1.392   7.755  0.00  0.00    +0.047 C 
ATOM     23  C   UNL     1       1.836  -0.955   9.240  0.00  0.00    +0.168 C 
ATOM     24  S   UNL     1       0.055  -1.074   9.682  0.00  0.00    -0.029 S 
ATOM     25  O   UNL     1      -0.424   0.219  10.022  0.00  0.00    -0.174 OA
ATOM     26  O   UNL     1      -0.124  -2.149  10.594  0.00  0.00    -0.174 OA
ATOM     27  C   UNL     1      -0.634  -1.557   8.043  0.00  0.00    +0.188 C 
ENDBRANCH   9  21
BRANCH  10  28
ATOM     28  C   UNL     1       1.335  -0.141   4.215  0.00  0.00    -0.015 A 
ATOM     29  C   UNL     1       1.078   1.175   3.880  0.00  0.00    +0.055 A 
ATOM     30  C   UNL     1       2.127   2.042   3.611  0.00  0.00    +0.165 A 
ATOM     31  C   UNL     1       3.438   1.586   3.679  0.00  0.00    +0.204 A 
ATOM     32  C   UNL     1       3.692   0.262   4.016  0.00  0.00    +0.165 A 
ATOM     33  C   UNL     1       2.638  -0.597   4.288  0.00  0.00    +0.055 A 
BRANCH  32  34
ATOM     34  O   UNL     1       4.973  -0.190   4.084  0.00  0.00    -0.491 OA
ATOM     35  C   UNL     1       5.168  -1.519   4.570  0.00  0.00    +0.277 C 
ENDBRANCH  32  34
BRANCH  31  36
ATOM     36  O   UNL     1       4.470   2.433   3.415  0.00  0.00    -0.488 OA
ATOM     37  C   UNL     1       5.010   3.160   4.520  0.00  0.00    +0.277 C 
ENDBRANCH  31  36
BRANCH  30  38
ATOM     38  O   UNL     1       1.873   3.337   3.281  0.00  0.00    -0.491 OA
ATOM     39  C   UNL     1       0.501   3.736   3.230  0.00  0.00    +0.277 C 
ENDBRANCH  30  38
ENDBRANCH  10  28
TORSDOF 7
