REMARK  Name = ZINC13489378
REMARK  10 active torsions:
REMARK  status: ('A' for Active; 'I' for Inactive)
REMARK    1  A    between atoms: C_1  and  C_2
REMARK    2  A    between atoms: C_3  and  C_9
REMARK    3  A    between atoms: C_6  and  N_8
REMARK    4  A    between atoms: C_9  and  N_10
REMARK    5  A    between atoms: C_11  and  C_13
REMARK    6  A    between atoms: N_22  and  C_25
REMARK    7  A    between atoms: C_25  and  C_27
REMARK    8  A    between atoms: C_25  and  C_35
REMARK    9  A    between atoms: C_27  and  N_28
REMARK   10  A    between atoms: N_28  and  C_29
REMARK                            x       y       z     vdW  Elec       q    Type
REMARK                         _______ _______ _______ _____ _____    ______ ____
ROOT
ATOM      1  C   UNL     1       2.959   1.754  -4.246  0.00  0.00    +0.219 C 
ATOM      2  C   UNL     1       3.894   0.575  -4.394  0.00  0.00    +0.006 C 
ATOM      3  C   UNL     1       4.045  -0.060  -5.525  0.00  0.00    -0.005 C 
ATOM      4  C   UNL     1       3.296   0.333  -6.778  0.00  0.00    +0.174 C 
ATOM      5  N   UNL     1       3.120   1.788  -6.749  0.00  0.00    -0.226 N 
ATOM      6  N   UNL     1       2.956   2.478  -5.521  0.00  0.00    -0.215 N 
ATOM      7  C   UNL     1       2.820   3.772  -5.808  0.00  0.00    +0.350 A 
ATOM      8  O   UNL     1       2.660   4.668  -5.003  0.00  0.00    -0.245 OA
ATOM      9  N   UNL     1       2.891   3.914  -7.150  0.00  0.00    -0.232 N 
ATOM     10  C   UNL     1       3.075   2.698  -7.720  0.00  0.00    +0.349 A 
ATOM     11  O   UNL     1       3.180   2.476  -8.911  0.00  0.00    -0.245 OA
ENDROOT
BRANCH   1  13
ATOM     12  N   UNL     1       1.341   0.557  -2.809  0.00  0.00    -0.309 N 
ATOM     13  C   UNL     1       1.568   1.267  -3.931  0.00  0.00    +0.242 C 
ATOM     14  O   UNL     1       0.653   1.516  -4.687  0.00  0.00    -0.273 OA
ATOM     15  H   UNL     1       2.073   0.358  -2.204  0.00  0.00    +0.149 HD
BRANCH  12  16
ATOM     16  C   UNL     1      -0.011   0.084  -2.502  0.00  0.00    +0.141 C 
BRANCH  16  19
ATOM     17  C   UNL     1      -0.018   1.503   0.010  0.00  0.00    +0.063 C 
ATOM     18  C   UNL     1       0.002  -0.004   0.002  0.00  0.00    +0.019 A 
ATOM     19  C   UNL     1       0.005  -0.679  -1.202  0.00  0.00    -0.011 A 
ATOM     20  C   UNL     1       0.024  -2.067  -1.204  0.00  0.00    +0.010 A 
ATOM     21  C   UNL     1       0.039  -2.729   0.011  0.00  0.00    +0.041 A 
ATOM     22  C   UNL     1       0.035  -1.985   1.186  0.00  0.00    +0.094 A 
ATOM     23  N   UNL     1       0.022  -0.661   1.146  0.00  0.00    -0.347 N 
ATOM     24  H   UNL     1       0.023  -0.163   1.978  0.00  0.00    +0.167 HD
BRANCH  22  25
ATOM     25  N   UNL     1       0.049  -2.637   2.414  0.00  0.00    -0.345 N 
ATOM     26  H   UNL     1       0.062  -3.606   2.448  0.00  0.00    +0.144 HD
ATOM     27  H   UNL     1       0.046  -2.122   3.236  0.00  0.00    +0.144 HD
ENDBRANCH  22  25
ENDBRANCH  16  19
ENDBRANCH  12  16
ENDBRANCH   1  13
BRANCH   9  28
ATOM     28  C   UNL     1       2.786   5.184  -7.874  0.00  0.00    +0.192 C 
BRANCH  28  29
ATOM     29  C   UNL     1       4.051   5.420  -8.658  0.00  0.00    +0.377 C 
ATOM     30  O   UNL     1       4.695   4.474  -9.078  0.00  0.00    -0.244 OA
ATOM     31  O   UNL     1       4.431   6.559  -8.873  0.00  0.00    -0.244 OA
ENDBRANCH  28  29
BRANCH  28  32
ATOM     32  C   UNL     1       1.595   5.128  -8.832  0.00  0.00    -0.045 C 
BRANCH  32  33
ATOM     33  N   UNL     1       0.380   4.778  -8.084  0.00  0.00    +0.383 N 
ATOM     34  H   UNL     1       0.502   3.878  -7.646  0.00  0.00    -0.085 HD
ATOM     35  H   UNL     1       0.210   5.476  -7.375  0.00  0.00    -0.085 HD
BRANCH  33  36
ATOM     36  C   UNL     1      -0.763   4.724  -9.004  0.00  0.00    -0.072 C 
ATOM     37  C   UNL     1      -1.026   6.120  -9.573  0.00  0.00    -0.016 C 
ATOM     38  C   UNL     1      -2.217   6.064 -10.532  0.00  0.00    -0.002 C 
ATOM     39  C   UNL     1      -3.457   5.580  -9.777  0.00  0.00    -0.000 C 
ATOM     40  C   UNL     1      -3.194   4.184  -9.207  0.00  0.00    -0.002 C 
ATOM     41  C   UNL     1      -2.003   4.240  -8.249  0.00  0.00    -0.016 C 
ENDBRANCH  33  36
ENDBRANCH  32  33
ENDBRANCH  28  32
ENDBRANCH   9  28
TORSDOF 9
