REMARK  Name = ZINC28060346
REMARK  7 active torsions:
REMARK  status: ('A' for Active; 'I' for Inactive)
REMARK    1  A    between atoms: C_1  and  C_2
REMARK    2  A    between atoms: C_2  and  O_3
REMARK    3  A    between atoms: O_3  and  C_4
REMARK    4  A    between atoms: C_7  and  C_12
REMARK    5  A    between atoms: C_9  and  O_10
REMARK    6  A    between atoms: O_10  and  C_11
REMARK    7  A    between atoms: C_30  and  C_32
REMARK                            x       y       z     vdW  Elec       q    Type
REMARK                         _______ _______ _______ _____ _____    ______ ____
ROOT
ATOM      1  C   UNL     1      -1.676   4.777  -0.624  0.00  0.00    +0.234 C 
ATOM      2  C   UNL     1      -0.490   3.893  -0.309  0.00  0.00    +0.025 C 
ATOM      3  C   UNL     1       0.733   4.427  -0.291  0.00  0.00    +0.050 C 
ATOM      4  C   UNL     1       0.872   5.880  -0.549  0.00  0.00    +0.039 A 
ATOM      5  C   UNL     1       2.099   6.445  -0.875  0.00  0.00    +0.033 A 
ATOM      6  C   UNL     1       2.182   7.806  -1.107  0.00  0.00    +0.042 A 
ATOM      7  C   UNL     1       1.051   8.600  -1.018  0.00  0.00    +0.023 A 
ATOM      8  C   UNL     1      -0.174   8.044  -0.694  0.00  0.00    +0.048 A 
ATOM      9  C   UNL     1      -0.271   6.685  -0.459  0.00  0.00    +0.131 A 
ATOM     10  O   UNL     1      -1.455   6.102  -0.142  0.00  0.00    -0.479 OA
ATOM     11 CL   UNL     1       3.710   8.521  -1.514  0.00  0.00    -0.084 Cl
ATOM     12  N   UNL     1       1.877   3.665  -0.026  0.00  0.00    -0.282 N 
ATOM     13  C   UNL     1       1.741   2.286  -0.049  0.00  0.00    +0.240 A 
ATOM     14  N   UNL     1       2.631   1.336  -0.074  0.00  0.00    -0.092 NA
ATOM     15  N   UNL     1       2.052   0.184  -0.102  0.00  0.00    -0.021 NA
ATOM     16  N   UNL     1       0.766   0.325  -0.095  0.00  0.00    -0.042 NA
ATOM     17  N   UNL     1       0.517   1.696  -0.056  0.00  0.00    -0.201 N 
ATOM     18  C   UNL     1      -0.738   2.432  -0.021  0.00  0.00    +0.175 C 
ATOM     19  H   UNL     1       2.833   4.164   0.188  0.00  0.00    +0.155 HD
ENDROOT
BRANCH   1  23
ATOM     20  C   UNL     1      -2.257   4.899  -4.859  0.00  0.00    +0.162 A 
ATOM     21  C   UNL     1      -1.235   5.632  -4.276  0.00  0.00    +0.050 A 
ATOM     22  C   UNL     1      -1.050   5.590  -2.906  0.00  0.00    +0.011 A 
ATOM     23  C   UNL     1      -1.883   4.819  -2.116  0.00  0.00    +0.001 A 
ATOM     24  C   UNL     1      -2.900   4.082  -2.692  0.00  0.00    +0.057 A 
ATOM     25  C   UNL     1      -3.094   4.123  -4.064  0.00  0.00    +0.162 A 
BRANCH  25  26
ATOM     26  O   UNL     1      -4.098   3.403  -4.632  0.00  0.00    -0.491 OA
ATOM     27  C   UNL     1      -4.919   2.629  -3.754  0.00  0.00    +0.277 C 
ENDBRANCH  25  26
BRANCH  20  28
ATOM     28  O   UNL     1      -2.440   4.938  -6.206  0.00  0.00    -0.489 OA
BRANCH  28  30
ATOM     29  C   UNL     1      -1.901   5.673  -8.444  0.00  0.00    +0.048 C 
ATOM     30  C   UNL     1      -1.542   5.756  -6.959  0.00  0.00    +0.226 C 
ENDBRANCH  28  30
ENDBRANCH  20  28
ENDBRANCH   1  23
BRANCH  18  31
ATOM     31  C   UNL     1      -1.364   2.290   1.343  0.00  0.00    -0.001 A 
ATOM     32  C   UNL     1      -2.619   1.718   1.483  0.00  0.00    +0.009 A 
ATOM     33  C   UNL     1      -3.155   1.607   2.756  0.00  0.00    +0.020 A 
ATOM     34  C   UNL     1      -2.426   2.067   3.837  0.00  0.00    +0.111 A 
ATOM     35  N   UNL     1      -1.234   2.606   3.666  0.00  0.00    -0.263 NA
ATOM     36  C   UNL     1      -0.691   2.722   2.470  0.00  0.00    +0.116 A 
ENDBRANCH  18  31
TORSDOF 5
