REMARK  Name = ZINC57991454
REMARK  9 active torsions:
REMARK  status: ('A' for Active; 'I' for Inactive)
REMARK    1  A    between atoms: C_1  and  O_2
REMARK    2  A    between atoms: O_2  and  C_3
REMARK    3  A    between atoms: C_3  and  C_5
REMARK    4  A    between atoms: C_9  and  N_10
REMARK    5  A    between atoms: C_11  and  C_13
REMARK    6  A    between atoms: C_13  and  N_14
REMARK    7  A    between atoms: C_18  and  C_20
REMARK    8  A    between atoms: N_22  and  C_23
REMARK    9  A    between atoms: C_23  and  C_24
REMARK                            x       y       z     vdW  Elec       q    Type
REMARK                         _______ _______ _______ _____ _____    ______ ____
ROOT
ATOM      1  N   UNL     1      -0.954  -2.318  -2.500  0.00  0.00    -0.281 N 
ATOM      2  C   UNL     1      -1.054  -3.166  -3.543  0.00  0.00    +0.201 C 
ATOM      3  O   UNL     1      -0.975  -4.362  -3.361  0.00  0.00    -0.278 OA
ATOM      4  H   UNL     1      -1.017  -1.361  -2.645  0.00  0.00    +0.155 HD
ENDROOT
BRANCH   1   9
ATOM      5  C   UNL     1      -0.637  -2.097  -0.038  0.00  0.00    +0.091 A 
ATOM      6  C   UNL     1      -0.447  -2.861   1.183  0.00  0.00    -0.021 A 
ATOM      7  C   UNL     1      -0.410  -4.198   0.999  0.00  0.00    -0.004 A 
ATOM      8  S   UNL     1      -0.623  -4.417  -0.743  0.00  0.00    -0.077 S 
ATOM      9  C   UNL     1      -0.761  -2.813  -1.220  0.00  0.00    +0.086 A 
ATOM     10  C   UNL     1      -0.227  -5.246   2.052  0.00  0.00    +0.043 C 
ATOM     11  C   UNL     1       0.291  -4.564   3.327  0.00  0.00    +0.005 C 
ATOM     12  C   UNL     1      -0.572  -3.332   3.615  0.00  0.00    +0.005 C 
ATOM     13  C   UNL     1      -0.299  -2.249   2.568  0.00  0.00    +0.037 C 
BRANCH   5  14
ATOM     14  C   UNL     1      -0.700  -0.634  -0.022  0.00  0.00    +0.342 C 
ATOM     15  O   UNL     1      -1.770  -0.073   0.123  0.00  0.00    -0.245 OA
BRANCH  14  17
ATOM     16  C   UNL     1       0.291   1.514  -0.141  0.00  0.00    +0.280 C 
ATOM     17  O   UNL     1       0.427   0.091  -0.167  0.00  0.00    -0.464 OA
ENDBRANCH  14  17
ENDBRANCH   5  14
ENDBRANCH   1   9
BRANCH   2  18
ATOM     18  C   UNL     1      -1.263  -2.627  -4.934  0.00  0.00    +0.020 C 
BRANCH  18  19
ATOM     19  N   UNL     1      -1.339  -3.744  -5.885  0.00  0.00    +0.393 N 
ATOM     20  C   UNL     1      -2.578  -4.516  -5.649  0.00  0.00    -0.077 C 
ATOM     21  C   UNL     1      -3.044  -4.958  -7.059  0.00  0.00    -0.020 C 
ATOM     22  C   UNL     1      -2.677  -3.717  -7.913  0.00  0.00    -0.008 C 
ATOM     23  C   UNL     1      -1.367  -3.222  -7.264  0.00  0.00    +0.020 C 
ATOM     24  H   UNL     1      -0.538  -4.347  -5.767  0.00  0.00    -0.080 HD
BRANCH  23  25
ATOM     25  C   UNL     1      -1.344  -1.715  -7.241  0.00  0.00    +0.200 C 
ATOM     26  O   UNL     1      -2.194  -1.104  -6.628  0.00  0.00    -0.278 OA
ATOM     27  N   UNL     1      -0.379  -1.046  -7.902  0.00  0.00    -0.308 N 
ATOM     28  H   UNL     1       0.301  -1.534  -8.393  0.00  0.00    +0.149 HD
BRANCH  27  29
ATOM     29  C   UNL     1      -0.356   0.418  -7.880  0.00  0.00    +0.217 C 
BRANCH  29  30
ATOM     30  C   UNL     1       0.832   0.922  -8.703  0.00  0.00    +0.405 C 
ATOM     31  F   UNL     1       0.708   0.478 -10.023  0.00  0.00    -0.169 F 
ATOM     32  F   UNL     1       0.854   2.321  -8.681  0.00  0.00    -0.169 F 
ATOM     33  F   UNL     1       2.021   0.429  -8.154  0.00  0.00    -0.169 F 
ENDBRANCH  29  30
ENDBRANCH  27  29
ENDBRANCH  23  25
ENDBRANCH  18  19
ENDBRANCH   2  18
TORSDOF 8
