REMARK  Name = ZINC02866168
REMARK  8 active torsions:
REMARK  status: ('A' for Active; 'I' for Inactive)
REMARK    1  A    between atoms: C_3  and  C_6
REMARK    2  A    between atoms: C_8  and  C_29
REMARK    3  A    between atoms: C_10  and  S_12
REMARK    4  A    between atoms: S_12  and  C_13
REMARK    5  A    between atoms: C_13  and  C_14
REMARK    6  A    between atoms: C_14  and  C_15
REMARK    7  A    between atoms: N_17  and  C_18
REMARK    8  A    between atoms: C_19  and  C_26
REMARK                            x       y       z     vdW  Elec       q    Type
REMARK                         _______ _______ _______ _____ _____    ______ ____
ROOT
ATOM      1  C   UNL     1       1.121   3.579   0.011  0.00  0.00    +0.107 C 
ENDROOT
BRANCH   1   2
ATOM      2  C   UNL     1       1.141   2.072   0.002  0.00  0.00    +0.218 C 
ATOM      3  O   UNL     1       2.200   1.480  -0.011  0.00  0.00    -0.275 OA
ATOM      4  N   UNL     1      -0.017   1.382   0.010  0.00  0.00    -0.279 N 
ATOM      5  H   UNL     1      -0.863   1.856   0.016  0.00  0.00    +0.155 HD
BRANCH   4   6
ATOM      6  C   UNL     1       0.002  -0.004   0.002  0.00  0.00    +0.084 A 
ATOM      7  C   UNL     1      -1.071  -0.879   0.013  0.00  0.00    +0.068 A 
ATOM      8  C   UNL     1      -0.776  -2.312  -0.003  0.00  0.00    -0.023 A 
ATOM      9  C   UNL     1       0.532  -2.626  -0.017  0.00  0.00    -0.004 A 
ATOM     10  S   UNL     1       1.372  -1.061  -0.016  0.00  0.00    -0.077 S 
ATOM     11  C   UNL     1       0.754  -4.114  -0.030  0.00  0.00    +0.043 C 
ATOM     12  C   UNL     1      -0.606  -4.707  -0.459  0.00  0.00    +0.010 C 
ATOM     13  C   UNL     1      -1.586  -3.609  -0.000  0.00  0.00    +0.037 C 
BRANCH   7  14
ATOM     14  C   UNL     1      -2.452  -0.388   0.036  0.00  0.00    +0.244 C 
ATOM     15  O   UNL     1      -3.041  -0.178  -1.008  0.00  0.00    -0.270 OA
ATOM     16  N   UNL     1      -3.069  -0.167   1.214  0.00  0.00    -0.325 N 
ATOM     17  H   UNL     1      -2.600  -0.334   2.046  0.00  0.00    +0.145 HD
ATOM     18  H   UNL     1      -3.983   0.158   1.229  0.00  0.00    +0.145 HD
ENDBRANCH   7  14
ENDBRANCH   4   6
ENDBRANCH   1   2
BRANCH   1  19
ATOM     19  C   UNL     1       2.556   4.109  -0.000  0.00  0.00    +0.086 C 
BRANCH  19  20
ATOM     20  S   UNL     1       2.532   5.918   0.010  0.00  0.00    -0.086 S 
BRANCH  20  25
ATOM     21  C   UNL     1       5.983   7.786  -0.013  0.00  0.00    +0.111 A 
ATOM     22  C   UNL     1       6.904   6.731  -0.028  0.00  0.00    +0.064 A 
ATOM     23  C   UNL     1       6.422   5.436  -0.030  0.00  0.00    +0.149 A 
ATOM     24  N   UNL     1       5.113   5.231  -0.019  0.00  0.00    -0.218 NA
ATOM     25  C   UNL     1       4.262   6.248  -0.005  0.00  0.00    +0.189 A 
ATOM     26  N   UNL     1       4.680   7.505  -0.008  0.00  0.00    -0.219 NA
BRANCH  21  29
ATOM     27  C   UNL     1       6.511  11.407   0.000  0.00  0.00    +0.042 A 
ATOM     28  C   UNL     1       5.653  10.292  -0.002  0.00  0.00    +0.051 A 
ATOM     29  C   UNL     1       6.447   9.187  -0.010  0.00  0.00    +0.153 A 
ATOM     30  O   UNL     1       7.732   9.594  -0.021  0.00  0.00    -0.461 OA
ATOM     31  C   UNL     1       7.774  10.935  -0.015  0.00  0.00    +0.196 A 
ENDBRANCH  21  29
BRANCH  23  32
ATOM     32  C   UNL     1       7.375   4.268  -0.045  0.00  0.00    +0.434 C 
ATOM     33  F   UNL     1       6.651   3.077  -0.159  0.00  0.00    -0.164 F 
ATOM     34  F   UNL     1       8.245   4.391  -1.133  0.00  0.00    -0.164 F 
ATOM     35  F   UNL     1       8.113   4.254   1.143  0.00  0.00    -0.164 F 
ENDBRANCH  23  32
ENDBRANCH  20  25
ENDBRANCH  19  20
ENDBRANCH   1  19
TORSDOF 8
