REMARK  Name = ZINC35780754
REMARK  12 active torsions:
REMARK  status: ('A' for Active; 'I' for Inactive)
REMARK    1  A    between atoms: C_4  and  C_7
REMARK    2  A    between atoms: C_8  and  C_18
REMARK    3  A    between atoms: C_9  and  N_12
REMARK    4  A    between atoms: C_18  and  N_19
REMARK    5  A    between atoms: N_19  and  C_20
REMARK    6  A    between atoms: N_19  and  C_28
REMARK    7  A    between atoms: C_20  and  C_21
REMARK    8  A    between atoms: C_21  and  N_22
REMARK    9  A    between atoms: C_28  and  C_29
REMARK   10  A    between atoms: C_29  and  C_31
REMARK   11  A    between atoms: C_29  and  O_38
REMARK   12  A    between atoms: C_31  and  N_32
REMARK                            x       y       z     vdW  Elec       q    Type
REMARK                         _______ _______ _______ _____ _____    ______ ____
ROOT
ATOM      1  N   UNL     1       2.048  -3.970   0.563  0.00  0.00    +0.385 N 
ATOM      2  H   UNL     1       2.599  -4.658   0.071  0.00  0.00    -0.081 HD
ENDROOT
BRANCH   1   3
ATOM      3  C   UNL     1       2.937  -2.956   1.145  0.00  0.00    -0.035 C 
BRANCH   3   5
ATOM      4  C   UNL     1       3.927  -3.802   3.396  0.00  0.00    +0.117 A 
ATOM      5  C   UNL     1       3.980  -3.633   1.996  0.00  0.00    +0.025 A 
ATOM      6  C   UNL     1       5.137  -4.186   1.552  0.00  0.00    +0.222 A 
ATOM      7  O   UNL     1       5.793  -4.686   2.612  0.00  0.00    -0.339 OA
ATOM      8  N   UNL     1       5.018  -4.431   3.769  0.00  0.00    -0.076 NA
BRANCH   4  12
ATOM      9  C   UNL     1       0.795  -2.492   5.958  0.00  0.00    +0.000 A 
ATOM     10  C   UNL     1       1.342  -3.751   6.126  0.00  0.00    +0.001 A 
ATOM     11  C   UNL     1       2.359  -4.181   5.298  0.00  0.00    +0.010 A 
ATOM     12  C   UNL     1       2.834  -3.345   4.290  0.00  0.00    +0.004 A 
ATOM     13  C   UNL     1       2.279  -2.078   4.124  0.00  0.00    +0.010 A 
ATOM     14  C   UNL     1       1.263  -1.657   4.959  0.00  0.00    +0.001 A 
ENDBRANCH   4  12
BRANCH   6  15
ATOM     15  N   UNL     1       5.564  -4.229   0.237  0.00  0.00    -0.299 N 
ATOM     16  C   UNL     1       6.469  -3.197  -0.289  0.00  0.00    +0.108 C 
ATOM     17  C   UNL     1       7.688  -3.883  -0.914  0.00  0.00    +0.019 C 
ATOM     18  C   UNL     1       7.218  -4.899  -1.958  0.00  0.00    +0.003 C 
ATOM     19  C   UNL     1       6.357  -5.968  -1.280  0.00  0.00    +0.019 C 
ATOM     20  C   UNL     1       5.128  -5.309  -0.658  0.00  0.00    +0.108 C 
ENDBRANCH   6  15
ENDBRANCH   3   5
ENDBRANCH   1   3
BRANCH   1  21
ATOM     21  C   UNL     1       1.119  -3.326  -0.376  0.00  0.00    -0.063 C 
BRANCH  21  22
ATOM     22  C   UNL     1       1.903  -2.759  -1.561  0.00  0.00    +0.066 C 
BRANCH  22  23
ATOM     23  N   UNL     1       0.985  -2.040  -2.455  0.00  0.00    -0.300 NA
ATOM     24  C   UNL     1       0.032  -2.965  -3.086  0.00  0.00    +0.112 C 
ATOM     25  C   UNL     1      -0.940  -2.169  -3.961  0.00  0.00    +0.175 C 
ATOM     26  O   UNL     1      -0.199  -1.416  -4.924  0.00  0.00    -0.377 OA
ATOM     27  C   UNL     1       0.739  -0.505  -4.345  0.00  0.00    +0.175 C 
ATOM     28  C   UNL     1       1.728  -1.284  -3.474  0.00  0.00    +0.112 C 
ENDBRANCH  22  23
ENDBRANCH  21  22
ENDBRANCH   1  21
BRANCH   1  29
ATOM     29  C   UNL     1       1.286  -4.627   1.633  0.00  0.00    -0.045 C 
BRANCH  29  30
ATOM     30  C   UNL     1       0.453  -5.766   1.041  0.00  0.00    +0.112 C 
BRANCH  30  31
ATOM     31  O   UNL     1       1.324  -6.774   0.524  0.00  0.00    -0.392 OA
ATOM     32  H   UNL     1       1.911  -7.164   1.187  0.00  0.00    +0.210 HD
ENDBRANCH  30  31
BRANCH  30  33
ATOM     33  C   UNL     1      -0.434  -6.369   2.132  0.00  0.00    +0.114 C 
BRANCH  33  34
ATOM     34  N   UNL     1      -1.234  -7.463   1.564  0.00  0.00    -0.296 NA
ATOM     35  C   UNL     1      -2.199  -6.953   0.580  0.00  0.00    +0.112 C 
ATOM     36  C   UNL     1      -2.967  -8.129  -0.029  0.00  0.00    +0.175 C 
ATOM     37  O   UNL     1      -3.601  -8.871   1.016  0.00  0.00    -0.377 OA
ATOM     38  C   UNL     1      -2.690  -9.382   1.993  0.00  0.00    +0.175 C 
ATOM     39  C   UNL     1      -1.919  -8.219   2.622  0.00  0.00    +0.112 C 
ENDBRANCH  33  34
ENDBRANCH  30  33
ENDBRANCH  29  30
ENDBRANCH   1  29
TORSDOF 12
