REMARK  Name = ZINC39741293
REMARK  10 active torsions:
REMARK  status: ('A' for Active; 'I' for Inactive)
REMARK    1  A    between atoms: C_1  and  C_2
REMARK    2  A    between atoms: C_6  and  N_8
REMARK    3  A    between atoms: C_9  and  S_23
REMARK    4  A    between atoms: C_13  and  C_14
REMARK    5  A    between atoms: S_23  and  C_24
REMARK    6  A    between atoms: C_24  and  C_25
REMARK    7  A    between atoms: N_27  and  C_28
REMARK    8  A    between atoms: C_28  and  C_29
REMARK    9  A    between atoms: C_29  and  O_31
REMARK   10  A    between atoms: O_31  and  C_32
REMARK                            x       y       z     vdW  Elec       q    Type
REMARK                         _______ _______ _______ _____ _____    ______ ____
ROOT
ATOM      1  N   UNL     1       0.047  -2.797   2.391  0.00  0.00    -0.254 N 
ATOM      2  C   UNL     1      -0.028  -4.258   2.554  0.00  0.00    +0.241 C 
ATOM      3  N   UNL     1       0.034  -4.463   4.010  0.00  0.00    -0.237 N 
ATOM      4  N   UNL     1       0.135  -3.192   4.588  0.00  0.00    -0.169 NA
ATOM      5  C   UNL     1       0.148  -2.256   3.675  0.00  0.00    +0.151 C 
ATOM      6  H   UNL     1       0.010  -5.313   4.478  0.00  0.00    +0.171 HD
ENDROOT
BRANCH   5   7
ATOM      7  C   UNL     1       0.248  -0.884   3.951  0.00  0.00    +0.022 C 
ATOM      8  C   UNL     1       0.449  -0.286   5.196  0.00  0.00    +0.006 A 
ATOM      9  C   UNL     1       0.608  -0.817   6.494  0.00  0.00    +0.010 A 
ATOM     10  C   UNL     1       0.794   0.021   7.546  0.00  0.00    +0.001 A 
ATOM     11  C   UNL     1       0.832   1.407   7.379  0.00  0.00    +0.002 A 
ATOM     12  C   UNL     1       0.685   1.986   6.162  0.00  0.00    +0.026 A 
ATOM     13  C   UNL     1       0.488   1.174   5.014  0.00  0.00    +0.043 A 
ATOM     14  N   UNL     1       0.324   1.486   3.744  0.00  0.00    -0.380 N 
ATOM     15  C   UNL     1       0.166   0.256   2.961  0.00  0.00    +0.152 C 
ATOM     16  H   UNL     1       0.313   2.386   3.383  0.00  0.00    +0.160 HD
ENDBRANCH   5   7
BRANCH   1  22
ATOM     17  C   UNL     1       2.466  -0.901  -1.444  0.00  0.00    +0.044 C 
ATOM     18  C   UNL     1       1.184  -1.155  -0.694  0.00  0.00    -0.049 A 
ATOM     19  C   UNL     1      -0.015  -0.686  -1.199  0.00  0.00    +0.003 A 
ATOM     20  C   UNL     1      -1.194  -0.917  -0.514  0.00  0.00    +0.002 A 
ATOM     21  C   UNL     1      -1.177  -1.617   0.677  0.00  0.00    +0.023 A 
ATOM     22  C   UNL     1       0.026  -2.089   1.186  0.00  0.00    +0.038 A 
ATOM     23  C   UNL     1       1.208  -1.860   0.493  0.00  0.00    +0.027 A 
ENDBRANCH   1  22
BRANCH   2  24
ATOM     24  S   UNL     1      -1.591  -4.892   1.886  0.00  0.00    -0.108 S 
BRANCH  24  25
ATOM     25  C   UNL     1      -2.862  -4.042   2.862  0.00  0.00    +0.168 C 
BRANCH  25  26
ATOM     26  C   UNL     1      -4.227  -4.485   2.403  0.00  0.00    +0.223 C 
ATOM     27  O   UNL     1      -4.332  -5.294   1.505  0.00  0.00    -0.275 OA
ATOM     28  N   UNL     1      -5.332  -3.981   2.989  0.00  0.00    -0.304 N 
ATOM     29  H   UNL     1      -5.247  -3.334   3.707  0.00  0.00    +0.149 HD
BRANCH  28  30
ATOM     30  C   UNL     1      -6.659  -4.412   2.542  0.00  0.00    +0.224 C 
BRANCH  30  31
ATOM     31  C   UNL     1      -7.715  -3.705   3.353  0.00  0.00    +0.324 C 
ATOM     32  O   UNL     1      -7.392  -2.923   4.215  0.00  0.00    -0.249 OA
BRANCH  31  33
ATOM     33  O   UNL     1      -9.014  -3.946   3.117  0.00  0.00    -0.467 OA
ATOM     34  C   UNL     1      -9.961  -3.241   3.923  0.00  0.00    +0.280 C 
ENDBRANCH  31  33
ENDBRANCH  30  31
ENDBRANCH  28  30
ENDBRANCH  25  26
ENDBRANCH  24  25
ENDBRANCH   2  24
TORSDOF 8
