REMARK  Name = ZINC38830229
REMARK  10 active torsions:
REMARK  status: ('A' for Active; 'I' for Inactive)
REMARK    1  A    between atoms: C_1  and  C_2
REMARK    2  A    between atoms: C_2  and  O_3
REMARK    3  A    between atoms: O_3  and  C_4
REMARK    4  A    between atoms: C_4  and  C_5
REMARK    5  A    between atoms: C_5  and  N_6
REMARK    6  A    between atoms: N_15  and  C_16
REMARK    7  A    between atoms: C_16  and  C_18
REMARK    8  A    between atoms: C_18  and  N_19
REMARK    9  A    between atoms: N_26  and  C_31
REMARK   10  A    between atoms: N_29  and  C_30
REMARK                            x       y       z     vdW  Elec       q    Type
REMARK                         _______ _______ _______ _____ _____    ______ ____
ROOT
ATOM      1  N   UNL     1      -3.545  -1.903  -1.226  0.00  0.00    -0.319 N 
ATOM      2  C   UNL     1      -4.132  -0.654  -1.302  0.00  0.00    +0.058 A 
ATOM      3  C   UNL     1      -4.227   0.341  -0.319  0.00  0.00    +0.028 A 
ATOM      4  C   UNL     1      -4.859   1.533  -0.587  0.00  0.00    +0.022 A 
ATOM      5  C   UNL     1      -5.417   1.786  -1.830  0.00  0.00    +0.042 A 
ATOM      6  C   UNL     1      -5.336   0.819  -2.819  0.00  0.00    +0.037 A 
ATOM      7  C   UNL     1      -4.705  -0.373  -2.551  0.00  0.00    +0.040 A 
ATOM      8  S   UNL     1      -4.378  -1.845  -3.485  0.00  0.00    -0.052 S 
ATOM      9  C   UNL     1      -3.558  -2.722  -2.308  0.00  0.00    +0.167 A 
ATOM     10  N   UNL     1      -3.041  -3.944  -2.414  0.00  0.00    -0.155 NA
ATOM     11 CL   UNL     1      -6.210   3.298  -2.145  0.00  0.00    -0.084 Cl
ENDROOT
BRANCH  10  12
ATOM     12  C   UNL     1      -3.144  -4.613  -3.557  0.00  0.00    +0.258 C 
ATOM     13  O   UNL     1      -3.711  -4.109  -4.507  0.00  0.00    -0.272 OA
BRANCH  12  14
ATOM     14  C   UNL     1      -2.558  -5.996  -3.676  0.00  0.00    +0.221 C 
BRANCH  14  15
ATOM     15  N   UNL     1      -2.802  -6.515  -5.024  0.00  0.00    -0.316 N 
ATOM     16  C   UNL     1      -3.829  -7.299  -5.407  0.00  0.00    +0.202 A 
ATOM     17  N   UNL     1      -3.726  -7.568  -6.684  0.00  0.00    -0.218 NA
ATOM     18  C   UNL     1      -2.638  -6.977  -7.185  0.00  0.00    +0.168 A 
ATOM     19  C   UNL     1      -2.027  -6.289  -6.144  0.00  0.00    +0.152 A 
ATOM     20  C   UNL     1      -0.845  -5.562  -6.401  0.00  0.00    +0.282 A 
ATOM     21  O   UNL     1      -0.289  -4.954  -5.504  0.00  0.00    -0.265 OA
ATOM     22  N   UNL     1      -0.337  -5.550  -7.651  0.00  0.00    -0.262 N 
ATOM     23  C   UNL     1      -0.940  -6.218  -8.649  0.00  0.00    +0.333 A 
ATOM     24  O   UNL     1      -0.454  -6.185  -9.763  0.00  0.00    -0.246 OA
ATOM     25  N   UNL     1      -2.065  -6.930  -8.445  0.00  0.00    -0.280 N 
ATOM     26  C   UNL     1      -2.692  -7.642  -9.561  0.00  0.00    +0.155 C 
ATOM     27  C   UNL     1       0.890  -4.798  -7.924  0.00  0.00    +0.157 C 
ENDBRANCH  14  15
ENDBRANCH  12  14
ENDBRANCH  10  12
BRANCH   1  28
ATOM     28  C   UNL     1      -2.905  -2.339   0.017  0.00  0.00    +0.152 C 
BRANCH  28  29
ATOM     29  C   UNL     1      -1.432  -1.925   0.005  0.00  0.00    +0.181 C 
BRANCH  29  30
ATOM     30  O   UNL     1      -1.339  -0.499   0.012  0.00  0.00    -0.378 OA
BRANCH  30  32
ATOM     31  C   UNL     1      -0.019   1.526   0.010  0.00  0.00    +0.034 C 
ATOM     32  C   UNL     1       0.002  -0.004   0.002  0.00  0.00    +0.156 C 
ENDBRANCH  30  32
ENDBRANCH  29  30
ENDBRANCH  28  29
ENDBRANCH   1  28
TORSDOF 7
