REMARK  Name = ZINC45529832
REMARK  6 active torsions:
REMARK  status: ('A' for Active; 'I' for Inactive)
REMARK    1  A    between atoms: C_1  and  N_2
REMARK    2  A    between atoms: N_2  and  C_3
REMARK    3  A    between atoms: C_3  and  C_4
REMARK    4  A    between atoms: C_14  and  C_16
REMARK    5  A    between atoms: C_19  and  N_25
REMARK    6  A    between atoms: C_20  and  N_22
REMARK                            x       y       z     vdW  Elec       q    Type
REMARK                         _______ _______ _______ _____ _____    ______ ____
ROOT
ATOM      1  C   UNL     1      -0.083   1.315   0.038  0.00  0.00    +0.132 C 
ATOM      2  N   UNL     1      -0.058  -0.149  -0.029  0.00  0.00    -0.296 N 
ATOM      3  C   UNL     1      -0.154  -0.770  -1.222  0.00  0.00    +0.247 C 
ATOM      4  O   UNL     1      -0.245  -1.981  -1.271  0.00  0.00    -0.270 OA
ENDROOT
BRANCH   3   5
ATOM      5  C   UNL     1      -0.149   0.021  -2.469  0.00  0.00    +0.039 A 
ATOM      6  C   UNL     1       0.630   1.177  -2.562  0.00  0.00    +0.015 A 
ATOM      7  C   UNL     1       0.633   1.912  -3.727  0.00  0.00    +0.031 A 
ATOM      8  C   UNL     1      -0.140   1.505  -4.809  0.00  0.00    +0.097 A 
ATOM      9  C   UNL     1      -0.916   0.355  -4.720  0.00  0.00    +0.152 A 
ATOM     10  C   UNL     1      -0.920  -0.387  -3.560  0.00  0.00    +0.048 A 
BRANCH   8  11
ATOM     11  N   UNL     1      -0.135   2.254  -5.990  0.00  0.00    -0.218 N 
ATOM     12  C   UNL     1       0.483   3.434  -6.197  0.00  0.00    +0.225 A 
ATOM     13  N   UNL     1       0.247   3.805  -7.429  0.00  0.00    -0.222 NA
ATOM     14  C   UNL     1      -0.513   2.894  -8.037  0.00  0.00    +0.245 A 
ATOM     15  N   UNL     1      -0.768   1.924  -7.200  0.00  0.00    -0.153 NA
ENDBRANCH   8  11
BRANCH   9  16
ATOM     16  N   UNL     1      -1.737  -0.074  -5.875  0.00  0.00    +0.059 N 
ATOM     17  O   UNL     1      -2.528   0.693  -6.372  0.00  0.00    -0.126 OA
ATOM     18  O   UNL     1      -1.616  -1.191  -6.321  0.00  0.00    -0.126 OA
ENDBRANCH   9  16
ENDBRANCH   3   5
BRANCH   2  19
ATOM     19  C   UNL     1       0.072  -0.937   1.199  0.00  0.00    +0.143 C 
BRANCH  19  20
ATOM     20  C   UNL     1      -1.298  -1.238   1.750  0.00  0.00    -0.026 A 
ATOM     21  C   UNL     1      -1.889  -0.363   2.642  0.00  0.00    +0.009 A 
ATOM     22  C   UNL     1      -3.145  -0.636   3.151  0.00  0.00    +0.050 A 
ATOM     23  C   UNL     1      -3.815  -1.788   2.768  0.00  0.00    +0.162 A 
ATOM     24  C   UNL     1      -3.221  -2.666   1.869  0.00  0.00    +0.162 A 
ATOM     25  C   UNL     1      -1.962  -2.384   1.359  0.00  0.00    +0.054 A 
ATOM     26  O   UNL     1      -3.864  -3.799   1.473  0.00  0.00    -0.485 OA
ATOM     27  C   UNL     1      -4.962  -4.231   2.283  0.00  0.00    +0.270 C 
ATOM     28  C   UNL     1      -5.845  -3.013   2.587  0.00  0.00    +0.270 C 
ATOM     29  O   UNL     1      -5.049  -2.045   3.280  0.00  0.00    -0.485 OA
ENDBRANCH  19  20
ENDBRANCH   2  19
TORSDOF 5
