REMARK  Name = ZINC63375242
REMARK  4 active torsions:
REMARK  status: ('A' for Active; 'I' for Inactive)
REMARK    1  A    between atoms: C_4  and  C_7
REMARK    2  A    between atoms: N_25  and  C_28
REMARK    3  A    between atoms: C_33  and  C_34
REMARK    4  A    between atoms: N_36  and  C_37
REMARK                            x       y       z     vdW  Elec       q    Type
REMARK                         _______ _______ _______ _____ _____    ______ ____
ROOT
ATOM      1  C   UNL     1       3.711  -0.707  -0.038  0.00  0.00    +0.135 C 
ATOM      2  C   UNL     1       3.957  -1.309  -1.429  0.00  0.00    +0.131 C 
ATOM      3  C   UNL     1       3.023  -2.502  -1.571  0.00  0.00    -0.034 C 
ATOM      4  C   UNL     1       2.290  -2.276  -2.657  0.00  0.00    -0.001 A 
ATOM      5  C   UNL     1       1.268  -3.090  -3.333  0.00  0.00    +0.010 A 
ATOM      6  C   UNL     1       0.699  -2.540  -4.439  0.00  0.00    +0.001 A 
ATOM      7  C   UNL     1       1.041  -1.277  -4.933  0.00  0.00    +0.002 A 
ATOM      8  C   UNL     1       1.973  -0.463  -4.376  0.00  0.00    +0.026 A 
ATOM      9  C   UNL     1       2.643  -0.933  -3.209  0.00  0.00    +0.043 A 
ATOM     10  N   UNL     1       3.594  -0.366  -2.490  0.00  0.00    -0.375 N 
ATOM     11  C   UNL     1       2.969  -3.635  -0.573  0.00  0.00    +0.065 C 
ATOM     12  C   UNL     1       2.766  -2.991   0.810  0.00  0.00    +0.169 C 
ATOM     13  N   UNL     1       3.672  -1.827   0.912  0.00  0.00    -0.264 N 
ATOM     14  C   UNL     1       4.433  -2.019   1.997  0.00  0.00    +0.317 C 
ATOM     15  O   UNL     1       5.208  -1.193   2.437  0.00  0.00    -0.252 OA
ATOM     16  N   UNL     1       4.241  -3.229   2.541  0.00  0.00    -0.192 N 
ATOM     17  C   UNL     1       3.253  -3.931   1.892  0.00  0.00    +0.248 C 
ATOM     18  O   UNL     1       2.854  -5.052   2.122  0.00  0.00    -0.273 OA
ATOM     19  H   UNL     1       3.983   0.512  -2.626  0.00  0.00    +0.160 HD
ENDROOT
BRANCH   1  23
ATOM     20  C   UNL     1      -0.017   1.378   0.010  0.00  0.00    +0.000 A 
ATOM     21  C   UNL     1       1.168   2.076   0.156  0.00  0.00    +0.000 A 
ATOM     22  C   UNL     1       2.374   1.401   0.141  0.00  0.00    +0.005 A 
ATOM     23  C   UNL     1       2.396   0.029  -0.020  0.00  0.00    -0.025 A 
ATOM     24  C   UNL     1       1.212  -0.669  -0.166  0.00  0.00    +0.005 A 
ATOM     25  C   UNL     1       0.005   0.006  -0.152  0.00  0.00    +0.000 A 
ENDBRANCH   1  23
BRANCH  16  26
ATOM     26  C   UNL     1       4.951  -3.717   3.640  0.00  0.00    +0.058 A 
ATOM     27  C   UNL     1       4.478  -3.502   4.927  0.00  0.00    +0.025 A 
ATOM     28  C   UNL     1       5.181  -3.985   6.012  0.00  0.00    +0.002 A 
ATOM     29  C   UNL     1       6.361  -4.686   5.827  0.00  0.00    +0.001 A 
ATOM     30  C   UNL     1       6.847  -4.908   4.557  0.00  0.00    +0.015 A 
ATOM     31  C   UNL     1       6.143  -4.430   3.449  0.00  0.00    +0.059 A 
BRANCH  31  32
ATOM     32  C   UNL     1       6.654  -4.669   2.085  0.00  0.00    +0.246 C 
ATOM     33  O   UNL     1       6.041  -4.247   1.124  0.00  0.00    -0.270 OA
ATOM     34  N   UNL     1       7.800  -5.356   1.906  0.00  0.00    -0.308 N 
ATOM     35  H   UNL     1       8.289  -5.692   2.673  0.00  0.00    +0.149 HD
BRANCH  34  36
ATOM     36  C   UNL     1       8.307  -5.593   0.552  0.00  0.00    +0.073 C 
ATOM     37  C   UNL     1       7.697  -6.888  -0.021  0.00  0.00    +0.022 C 
ATOM     38  C   UNL     1       8.851  -7.524  -0.836  0.00  0.00    +0.002 C 
ATOM     39  C   UNL     1      10.093  -7.221   0.038  0.00  0.00    +0.002 C 
ATOM     40  C   UNL     1       9.831  -5.804   0.590  0.00  0.00    +0.022 C 
ENDBRANCH  34  36
ENDBRANCH  31  32
ENDBRANCH  16  26
TORSDOF 4
