REMARK  Name = ZINC05612056
REMARK  6 active torsions:
REMARK  status: ('A' for Active; 'I' for Inactive)
REMARK    1  A    between atoms: C_1  and  C_2
REMARK    2  A    between atoms: C_2  and  N_9
REMARK    3  A    between atoms: N_9  and  C_10
REMARK    4  A    between atoms: C_10  and  N_12
REMARK    5  A    between atoms: N_12  and  C_13
REMARK    6  A    between atoms: C_22  and  S_23
REMARK                            x       y       z     vdW  Elec       q    Type
REMARK                         _______ _______ _______ _____ _____    ______ ____
ROOT
ATOM      1  N   UNL     1      -1.069   5.135   0.402  0.00  0.00    -0.296 N 
ATOM      2  H   UNL     1      -0.440   5.526   1.028  0.00  0.00    +0.154 HD
ENDROOT
BRANCH   1   3
ATOM      3  C   UNL     1      -1.598   5.909  -0.632  0.00  0.00    +0.040 A 
ATOM      4  C   UNL     1      -1.821   5.353  -1.873  0.00  0.00    +0.024 A 
ATOM      5  C   UNL     1      -2.352   6.114  -2.910  0.00  0.00    +0.002 A 
ATOM      6  C   UNL     1      -2.656   7.429  -2.731  0.00  0.00    +0.010 A 
ATOM      7  C   UNL     1      -2.439   8.037  -1.483  0.00  0.00    +0.011 A 
ATOM      8  C   UNL     1      -1.903   7.270  -0.418  0.00  0.00    +0.005 A 
ATOM      9  C   UNL     1      -1.686   7.878   0.828  0.00  0.00    +0.010 A 
ATOM     10  C   UNL     1      -1.992   9.194   0.998  0.00  0.00    +0.003 A 
ATOM     11  C   UNL     1      -2.519   9.949  -0.048  0.00  0.00    +0.030 A 
ATOM     12  C   UNL     1      -2.744   9.392  -1.269  0.00  0.00    +0.127 A 
BRANCH  12  13
ATOM     13  S   UNL     1      -3.411  10.366  -2.577  0.00  0.00    +0.140 S 
ATOM     14  O   UNL     1      -2.317  11.048  -3.175  0.00  0.00    -0.140 OA
ATOM     15  O   UNL     1      -4.275   9.515  -3.317  0.00  0.00    -0.140 OA
ATOM     16  O   UNL     1      -4.292  11.432  -1.940  0.00  0.00    -0.043 OA
ENDBRANCH  12  13
ENDBRANCH   1   3
BRANCH   1  17
ATOM     17  C   UNL     1      -1.434   3.844   0.531  0.00  0.00    +0.135 C 
ATOM     18  S   UNL     1      -2.619   3.181  -0.511  0.00  0.00    -0.019 S 
BRANCH  17  19
ATOM     19  N   UNL     1      -0.864   3.075   1.480  0.00  0.00    -0.319 N 
ATOM     20  H   UNL     1      -0.249   3.468   2.118  0.00  0.00    +0.148 HD
BRANCH  19  22
ATOM     21  C   UNL     1      -0.765   0.973   0.235  0.00  0.00    +0.033 C 
ATOM     22  C   UNL     1      -1.175   1.645   1.548  0.00  0.00    +0.052 C 
ATOM     23  C   UNL     1      -0.397   1.008   2.711  0.00  0.00    +0.049 C 
ATOM     24  C   UNL     1      -1.048   1.477   4.043  0.00  0.00    +0.168 C 
ATOM     25  S   UNL     1      -2.834   1.379   3.599  0.00  0.00    -0.029 S 
ATOM     26  O   UNL     1      -3.333   0.101   3.968  0.00  0.00    -0.174 OA
ATOM     27  O   UNL     1      -3.491   2.549   4.066  0.00  0.00    -0.174 OA
ATOM     28  C   UNL     1      -2.696   1.460   1.766  0.00  0.00    +0.191 C 
ENDBRANCH  19  22
ENDBRANCH  17  19
ENDBRANCH   1  17
TORSDOF 5
