REMARK  Name = ZINC58914957
REMARK  13 active torsions:
REMARK  status: ('A' for Active; 'I' for Inactive)
REMARK    1  A    between atoms: C_1  and  C_2
REMARK    2  A    between atoms: C_6  and  N_8
REMARK    3  A    between atoms: N_8  and  C_9
REMARK    4  A    between atoms: N_8  and  S_30
REMARK    5  A    between atoms: C_9  and  C_10
REMARK    6  A    between atoms: N_12  and  N_13
REMARK    7  A    between atoms: C_14  and  C_15
REMARK    8  A    between atoms: C_17  and  C_29
REMARK    9  A    between atoms: N_18  and  C_21
REMARK   10  A    between atoms: C_19  and  C_20
REMARK   11  A    between atoms: C_24  and  C_28
REMARK   12  A    between atoms: C_26  and  C_27
REMARK   13  A    between atoms: S_30  and  C_33
REMARK                            x       y       z     vdW  Elec       q    Type
REMARK                         _______ _______ _______ _____ _____    ______ ____
ROOT
ATOM      1  C   UNL     1      -0.582  -1.557   4.655  0.00  0.00    +0.251 C 
ATOM      2  O   UNL     1      -1.598  -1.324   4.034  0.00  0.00    -0.272 OA
ATOM      3  N   UNL     1      -0.420  -1.055   5.895  0.00  0.00    -0.206 N 
ATOM      4  H   UNL     1       0.392  -1.241   6.392  0.00  0.00    +0.177 HD
ENDROOT
BRANCH   3   5
ATOM      5  N   UNL     1      -1.425  -0.264   6.467  0.00  0.00    -0.188 NA
ATOM      6  C   UNL     1      -1.270   0.219   7.662  0.00  0.00    +0.140 C 
BRANCH   6   7
ATOM      7  C   UNL     1      -2.327   1.051   8.264  0.00  0.00    +0.016 A 
ATOM      8  C   UNL     1      -2.307   1.675   9.590  0.00  0.00    +0.032 A 
ATOM      9  C   UNL     1      -3.471   2.338   9.721  0.00  0.00    +0.022 A 
ATOM     10  N   UNL     1      -4.205   2.171   8.582  0.00  0.00    -0.317 N 
ATOM     11  C   UNL     1      -3.519   1.400   7.695  0.00  0.00    +0.030 A 
ATOM     12  C   UNL     1      -3.993   0.998   6.322  0.00  0.00    +0.064 C 
ATOM     13  C   UNL     1      -3.896   3.133  10.929  0.00  0.00    +0.064 C 
BRANCH  10  14
ATOM     14  C   UNL     1      -5.475   2.718   8.356  0.00  0.00    +0.049 A 
ATOM     15  C   UNL     1      -5.599   3.970   7.769  0.00  0.00    +0.026 A 
ATOM     16  C   UNL     1      -6.852   4.507   7.548  0.00  0.00    +0.005 A 
ATOM     17  C   UNL     1      -7.983   3.798   7.912  0.00  0.00    -0.050 A 
ATOM     18  C   UNL     1      -7.863   2.552   8.497  0.00  0.00    +0.008 A 
ATOM     19  C   UNL     1      -6.612   2.007   8.715  0.00  0.00    -0.026 A 
ATOM     20  C   UNL     1      -6.482   0.645   9.347  0.00  0.00    +0.046 C 
ATOM     21  C   UNL     1      -9.349   4.387   7.669  0.00  0.00    +0.044 C 
ENDBRANCH  10  14
ENDBRANCH   6   7
ENDBRANCH   3   5
BRANCH   1  22
ATOM     22  C   UNL     1       0.499  -2.407   4.040  0.00  0.00    +0.228 C 
BRANCH  22  23
ATOM     23  N   UNL     1       0.086  -2.827   2.698  0.00  0.00    -0.194 N 
BRANCH  23  29
ATOM     24  C   UNL     1       0.719   1.704   0.902  0.00  0.00    +0.044 C 
ATOM     25  C   UNL     1       0.621   0.213   0.704  0.00  0.00    -0.049 A 
ATOM     26  C   UNL     1       0.752  -0.325  -0.563  0.00  0.00    +0.003 A 
ATOM     27  C   UNL     1       0.663  -1.692  -0.749  0.00  0.00    +0.002 A 
ATOM     28  C   UNL     1       0.442  -2.525   0.330  0.00  0.00    +0.025 A 
ATOM     29  C   UNL     1       0.310  -1.988   1.604  0.00  0.00    +0.052 A 
ATOM     30  C   UNL     1       0.406  -0.614   1.789  0.00  0.00    +0.028 A 
ENDBRANCH  23  29
BRANCH  23  31
ATOM     31  S   UNL     1      -0.646  -4.296   2.479  0.00  0.00    +0.075 S 
ATOM     32  O   UNL     1      -1.262  -4.631   3.714  0.00  0.00    -0.150 OA
ATOM     33  O   UNL     1      -1.375  -4.209   1.262  0.00  0.00    -0.150 OA
BRANCH  31  34
ATOM     34  C   UNL     1       0.632  -5.481   2.216  0.00  0.00    +0.109 A 
ATOM     35  C   UNL     1       0.994  -5.834   0.930  0.00  0.00    +0.029 A 
ATOM     36  C   UNL     1       1.996  -6.763   0.724  0.00  0.00    +0.002 A 
ATOM     37  C   UNL     1       2.638  -7.339   1.805  0.00  0.00    +0.000 A 
ATOM     38  C   UNL     1       2.277  -6.985   3.091  0.00  0.00    +0.002 A 
ATOM     39  C   UNL     1       1.277  -6.052   3.297  0.00  0.00    +0.029 A 
ENDBRANCH  31  34
ENDBRANCH  23  31
ENDBRANCH  22  23
ENDBRANCH   1  22
TORSDOF 8
