REMARK  Name = ZINC23330357
REMARK  19 active torsions:
REMARK  status: ('A' for Active; 'I' for Inactive)
REMARK    1  A    between atoms: C_1  and  C_2
REMARK    2  A    between atoms: C_2  and  O_3
REMARK    3  A    between atoms: O_3  and  C_4
REMARK    4  A    between atoms: C_4  and  C_5
REMARK    5  A    between atoms: C_5  and  C_6
REMARK    6  A    between atoms: C_6  and  N_7
REMARK    7  A    between atoms: C_11  and  S_26
REMARK    8  A    between atoms: C_15  and  S_16
REMARK    9  A    between atoms: S_16  and  C_17
REMARK   10  A    between atoms: C_17  and  C_18
REMARK   11  A    between atoms: C_18  and  N_19
REMARK   12  A    between atoms: N_19  and  C_20
REMARK   13  A    between atoms: N_19  and  C_23
REMARK   14  A    between atoms: C_20  and  C_21
REMARK   15  A    between atoms: C_20  and  C_22
REMARK   16  A    between atoms: C_23  and  C_24
REMARK   17  A    between atoms: C_23  and  C_25
REMARK   18  A    between atoms: S_26  and  N_29
REMARK   19  A    between atoms: C_33  and  C_36
REMARK                            x       y       z     vdW  Elec       q    Type
REMARK                         _______ _______ _______ _____ _____    ______ ____
ROOT
ATOM      1  N   UNL     1      -0.171   1.370   2.192  0.00  0.00    -0.319 N 
ATOM      2  C   UNL     1      -0.334   0.083   2.678  0.00  0.00    +0.070 A 
ATOM      3  C   UNL     1      -1.181  -0.967   2.356  0.00  0.00    +0.030 A 
ATOM      4  C   UNL     1      -1.092  -2.158   3.047  0.00  0.00    +0.030 A 
ATOM      5  C   UNL     1      -0.161  -2.313   4.062  0.00  0.00    +0.108 A 
ATOM      6  C   UNL     1       0.694  -1.285   4.390  0.00  0.00    +0.058 A 
ATOM      7  C   UNL     1       0.614  -0.070   3.703  0.00  0.00    +0.092 A 
ATOM      8  N   UNL     1       1.291   1.104   3.802  0.00  0.00    -0.222 NA
ATOM      9  C   UNL     1       0.831   1.952   2.915  0.00  0.00    +0.170 A 
ENDROOT
BRANCH   5  10
ATOM     10  S   UNL     1      -0.063  -3.842   4.933  0.00  0.00    +0.061 S 
ATOM     11  O   UNL     1       0.516  -3.553   6.198  0.00  0.00    -0.153 OA
ATOM     12  O   UNL     1      -1.333  -4.466   4.801  0.00  0.00    -0.153 OA
BRANCH  10  13
ATOM     13  N   UNL     1       1.020  -4.798   4.124  0.00  0.00    -0.176 NA
ATOM     14  C   UNL     1       0.571  -5.699   3.054  0.00  0.00    +0.109 C 
ATOM     15  C   UNL     1       1.400  -5.411   1.793  0.00  0.00    +0.017 C 
ATOM     16  C   UNL     1       2.888  -5.529   2.130  0.00  0.00    +0.006 C 
ATOM     17  C   UNL     1       3.256  -4.494   3.195  0.00  0.00    +0.002 C 
ATOM     18  C   UNL     1       2.448  -4.767   4.468  0.00  0.00    +0.112 C 
ATOM     19  C   UNL     1       4.750  -4.591   3.507  0.00  0.00    +0.009 C 
ENDBRANCH  10  13
ENDBRANCH   5  10
BRANCH   1  20
ATOM     20  C   UNL     1      -0.936   1.992   1.109  0.00  0.00    +0.126 C 
BRANCH  20  21
ATOM     21  C   UNL     1      -0.236   1.732  -0.226  0.00  0.00    +0.050 C 
BRANCH  21  22
ATOM     22  C   UNL     1      -1.035   2.382  -1.357  0.00  0.00    +0.161 C 
BRANCH  22  23
ATOM     23  O   UNL     1      -0.380   2.139  -2.604  0.00  0.00    -0.380 OA
BRANCH  23  25
ATOM     24  C   UNL     1      -0.264   2.385  -5.005  0.00  0.00    +0.034 C 
ATOM     25  C   UNL     1      -1.049   2.707  -3.732  0.00  0.00    +0.156 C 
ENDBRANCH  23  25
ENDBRANCH  22  23
ENDBRANCH  21  22
ENDBRANCH  20  21
ENDBRANCH   1  20
BRANCH   9  26
ATOM     26  S   UNL     1       1.419   3.597   2.688  0.00  0.00    -0.090 S 
BRANCH  26  27
ATOM     27  C   UNL     1       2.705   3.650   3.961  0.00  0.00    +0.059 C 
BRANCH  27  28
ATOM     28  C   UNL     1       3.375   5.025   3.952  0.00  0.00    -0.067 C 
BRANCH  28  29
ATOM     29  N   UNL     1       4.515   5.021   4.879  0.00  0.00    +0.383 N 
ATOM     30  H   UNL     1       5.090   4.100   4.703  0.00  0.00    -0.081 HD
BRANCH  29  31
ATOM     31  C   UNL     1       5.403   6.163   4.627  0.00  0.00    -0.075 C 
ATOM     32  C   UNL     1       4.678   7.462   4.986  0.00  0.00    -0.014 C 
ATOM     33  C   UNL     1       6.663   6.029   5.485  0.00  0.00    -0.014 C 
ENDBRANCH  29  31
BRANCH  29  34
ATOM     34  C   UNL     1       4.058   5.007   6.275  0.00  0.00    -0.075 C 
ATOM     35  C   UNL     1       2.714   5.730   6.379  0.00  0.00    -0.014 C 
ATOM     36  C   UNL     1       3.896   3.559   6.745  0.00  0.00    -0.014 C 
ENDBRANCH  29  34
ENDBRANCH  28  29
ENDBRANCH  27  28
ENDBRANCH  26  27
ENDBRANCH   9  26
TORSDOF 13
