REMARK  Name = ZINC04745243
REMARK  6 active torsions:
REMARK  status: ('A' for Active; 'I' for Inactive)
REMARK    1  A    between atoms: C_3  and  C_6
REMARK    2  A    between atoms: C_6  and  N_7
REMARK    3  A    between atoms: C_13  and  S_14
REMARK    4  A    between atoms: S_14  and  C_15
REMARK    5  A    between atoms: C_15  and  C_16
REMARK    6  A    between atoms: C_21  and  N_47
REMARK                            x       y       z     vdW  Elec       q    Type
REMARK                         _______ _______ _______ _____ _____    ______ ____
ROOT
ATOM      1  N   UNL     1      -0.017   1.371   0.010  0.00  0.00    -0.301 N 
ATOM      2  C   UNL     1       0.002  -0.004   0.006  0.00  0.00    +0.106 A 
ATOM      3  C   UNL     1       1.202  -0.642  -0.014  0.00  0.00    +0.040 A 
ATOM      4  C   UNL     1       2.387   0.125  -0.021  0.00  0.00    +0.277 A 
ATOM      5  O   UNL     1       3.476  -0.430  -0.032  0.00  0.00    -0.265 OA
ATOM      6  N   UNL     1       2.314   1.464  -0.016  0.00  0.00    -0.185 NA
ATOM      7  C   UNL     1       1.148   2.075  -0.002  0.00  0.00    +0.175 A 
ATOM      8  C   UNL     1       1.301  -2.145  -0.030  0.00  0.00    -0.031 C 
ATOM      9  C   UNL     1      -1.069  -2.065  -0.428  0.00  0.00    +0.028 C 
ATOM     10  N   UNL     1      -1.193  -0.678   0.031  0.00  0.00    -0.347 N 
ATOM     11  H   UNL     1      -1.897  -0.184  -0.496  0.00  0.00    +0.145 HD
ATOM     12  N   UNL     1      -0.002  -2.715   0.356  0.00  0.00    +0.395 N 
ATOM     13  H   UNL     1      -0.164  -2.541   1.355  0.00  0.00    -0.079 HD
ENDROOT
BRANCH  12  14
ATOM     14  C   UNL     1      -0.010  -4.177   0.113  0.00  0.00    -0.066 C 
ATOM     15  C   UNL     1       0.125  -4.479  -1.394  0.00  0.00    -0.015 C 
ATOM     16  C   UNL     1      -0.793  -5.708  -1.617  0.00  0.00    -0.002 C 
ATOM     17  C   UNL     1      -1.995  -5.412  -0.686  0.00  0.00    -0.002 C 
ATOM     18  C   UNL     1      -1.356  -4.770   0.563  0.00  0.00    -0.015 C 
ENDBRANCH  12  14
BRANCH   1  19
ATOM     19  C   UNL     1      -1.298   2.082   0.019  0.00  0.00    +0.199 C 
BRANCH  19  22
ATOM     20  C   UNL     1      -2.533   2.398  -3.438  0.00  0.00    +0.041 A 
ATOM     21  C   UNL     1      -2.408   1.677  -2.229  0.00  0.00    +0.046 A 
ATOM     22  C   UNL     1      -1.683   2.441  -1.392  0.00  0.00    +0.125 A 
ATOM     23  O   UNL     1      -1.357   3.577  -2.030  0.00  0.00    -0.466 OA
ATOM     24  C   UNL     1      -1.869   3.556  -3.272  0.00  0.00    +0.195 A 
ENDBRANCH  19  22
ENDBRANCH   1  19
BRANCH   7  25
ATOM     25  S   UNL     1       1.094   3.837   0.001  0.00  0.00    -0.073 S 
BRANCH  25  26
ATOM     26  C   UNL     1       2.865   4.205  -0.018  0.00  0.00    +0.195 C 
BRANCH  26  27
ATOM     27  C   UNL     1       3.063   5.664  -0.017  0.00  0.00    +0.074 C 
ATOM     28  N   UNL     1       3.215   6.790  -0.017  0.00  0.00    -0.196 NA
ENDBRANCH  26  27
ENDBRANCH  25  26
ENDBRANCH   7  25
TORSDOF 6
