REMARK  Name = ZINC34853710
REMARK  15 active torsions:
REMARK  status: ('A' for Active; 'I' for Inactive)
REMARK    1  A    between atoms: C_1  and  C_2
REMARK    2  A    between atoms: C_6  and  C_7
REMARK    3  A    between atoms: C_9  and  O_17
REMARK    4  A    between atoms: C_10  and  O_15
REMARK    5  A    between atoms: C_11  and  O_13
REMARK    6  A    between atoms: O_13  and  C_14
REMARK    7  A    between atoms: O_15  and  C_16
REMARK    8  A    between atoms: O_17  and  C_18
REMARK    9  A    between atoms: C_22  and  C_28
REMARK   10  A    between atoms: C_30  and  O_38
REMARK   11  A    between atoms: C_31  and  O_36
REMARK   12  A    between atoms: C_32  and  O_34
REMARK   13  A    between atoms: O_34  and  C_35
REMARK   14  A    between atoms: O_36  and  C_37
REMARK   15  A    between atoms: O_38  and  C_39
REMARK                            x       y       z     vdW  Elec       q    Type
REMARK                         _______ _______ _______ _____ _____    ______ ____
ROOT
ATOM      1  C   UNL     1      -0.329   1.569  -0.707  0.00  0.00    +0.008 C 
ATOM      2  C   UNL     1      -0.372   0.049  -0.867  0.00  0.00    -0.009 C 
ATOM      3  C   UNL     1      -1.694  -0.473  -0.326  0.00  0.00    +0.040 C 
ATOM      4  C   UNL     1      -1.626  -1.909   0.081  0.00  0.00    -0.027 C 
ATOM      5  C   UNL     1      -2.765  -2.498   0.526  0.00  0.00    +0.013 C 
ATOM      6  C   UNL     1      -0.462  -2.683   0.032  0.00  0.00    +0.027 C 
ATOM      7  C   UNL     1       0.847  -2.072  -0.401  0.00  0.00    +0.063 C 
ATOM      8  C   UNL     1       0.806  -0.569  -0.117  0.00  0.00    +0.015 C 
ATOM      9  C   UNL     1       1.991  -2.710   0.390  0.00  0.00    +0.120 C 
ATOM     10  N   UNL     1       1.837  -4.168   0.361  0.00  0.00    -0.358 N 
ATOM     11  C   UNL     1       0.584  -4.723   0.379  0.00  0.00    +0.152 C 
ATOM     12  S   UNL     1       0.425  -6.375   0.433  0.00  0.00    -0.013 SA
ATOM     13  N   UNL     1      -0.514  -3.959   0.355  0.00  0.00    -0.339 N 
ATOM     14  H   UNL     1      -1.370  -4.355   0.581  0.00  0.00    +0.167 HD
ATOM     15  H   UNL     1       2.621  -4.738   0.327  0.00  0.00    +0.162 HD
ENDROOT
BRANCH   5  16
ATOM     16  C   UNL     1      -3.969  -1.691   0.751  0.00  0.00    -0.018 A 
ATOM     17  C   UNL     1      -5.206  -2.121   0.252  0.00  0.00    +0.057 A 
ATOM     18  C   UNL     1      -6.337  -1.359   0.466  0.00  0.00    +0.166 A 
ATOM     19  C   UNL     1      -6.250  -0.163   1.176  0.00  0.00    +0.204 A 
ATOM     20  C   UNL     1      -5.022   0.268   1.674  0.00  0.00    +0.166 A 
ATOM     21  C   UNL     1      -3.887  -0.492   1.470  0.00  0.00    +0.057 A 
BRANCH  20  22
ATOM     22  O   UNL     1      -4.942   1.436   2.366  0.00  0.00    -0.491 OA
ATOM     23  C   UNL     1      -3.652   1.818   2.847  0.00  0.00    +0.277 C 
ENDBRANCH  20  22
BRANCH  19  24
ATOM     24  O   UNL     1      -7.365   0.585   1.384  0.00  0.00    -0.488 OA
ATOM     25  C   UNL     1      -8.117   0.313   2.569  0.00  0.00    +0.277 C 
ENDBRANCH  19  24
BRANCH  18  26
ATOM     26  O   UNL     1      -7.538  -1.775  -0.018  0.00  0.00    -0.491 OA
ATOM     27  C   UNL     1      -7.555  -3.009  -0.737  0.00  0.00    +0.277 C 
ENDBRANCH  18  26
ENDBRANCH   5  16
BRANCH   9  28
ATOM     28  C   UNL     1       3.309  -2.327  -0.232  0.00  0.00    -0.017 A 
ATOM     29  C   UNL     1       3.759  -2.990  -1.358  0.00  0.00    +0.055 A 
ATOM     30  C   UNL     1       4.971  -2.641  -1.933  0.00  0.00    +0.165 A 
ATOM     31  C   UNL     1       5.735  -1.622  -1.376  0.00  0.00    +0.204 A 
ATOM     32  C   UNL     1       5.280  -0.958  -0.243  0.00  0.00    +0.165 A 
ATOM     33  C   UNL     1       4.064  -1.309   0.323  0.00  0.00    +0.055 A 
BRANCH  32  34
ATOM     34  O   UNL     1       6.023   0.040   0.306  0.00  0.00    -0.491 OA
ATOM     35  C   UNL     1       5.493   0.679   1.469  0.00  0.00    +0.277 C 
ENDBRANCH  32  34
BRANCH  31  36
ATOM     36  O   UNL     1       6.926  -1.277  -1.937  0.00  0.00    -0.488 OA
ATOM     37  C   UNL     1       6.899  -0.263  -2.943  0.00  0.00    +0.277 C 
ENDBRANCH  31  36
BRANCH  30  38
ATOM     38  O   UNL     1       5.412  -3.295  -3.041  0.00  0.00    -0.491 OA
ATOM     39  C   UNL     1       4.576  -4.331  -3.559  0.00  0.00    +0.277 C 
ENDBRANCH  30  38
ENDBRANCH   9  28
TORSDOF 8
