REMARK  Name = ZINC61889532
REMARK  5 active torsions:
REMARK  status: ('A' for Active; 'I' for Inactive)
REMARK    1  A    between atoms: C_3  and  N_20
REMARK    2  A    between atoms: C_5  and  S_7
REMARK    3  A    between atoms: S_7  and  N_10
REMARK    4  A    between atoms: N_10  and  C_11
REMARK    5  A    between atoms: C_16  and  C_18
REMARK                            x       y       z     vdW  Elec       q    Type
REMARK                         _______ _______ _______ _____ _____    ______ ____
ROOT
ATOM      1  S   UNL     1       1.232  -2.441  -0.022  0.00  0.00    +0.059 S 
ATOM      2  O   UNL     1      -0.013  -2.861  -0.562  0.00  0.00    -0.153 OA
ATOM      3  O   UNL     1       2.477  -2.827  -0.588  0.00  0.00    -0.153 OA
ENDROOT
BRANCH   1   8
ATOM      4  C   UNL     1      -0.017   1.378   0.010  0.00  0.00    +0.004 A 
ATOM      5  C   UNL     1       1.171   2.085   0.002  0.00  0.00    +0.033 A 
ATOM      6  C   UNL     1       2.377   1.411  -0.013  0.00  0.00    +0.128 A 
ATOM      7  C   UNL     1       2.396   0.028  -0.020  0.00  0.00    +0.061 A 
ATOM      8  C   UNL     1       1.209  -0.679  -0.012  0.00  0.00    +0.107 A 
ATOM      9  C   UNL     1       0.002  -0.004   0.002  0.00  0.00    +0.028 A 
BRANCH   6  10
ATOM     10  N   UNL     1       3.649   2.168  -0.022  0.00  0.00    +0.056 N 
ATOM     11  O   UNL     1       3.633   3.377  -0.016  0.00  0.00    -0.126 OA
ATOM     12  O   UNL     1       4.704   1.578  -0.035  0.00  0.00    -0.126 OA
ENDBRANCH   6  10
ENDBRANCH   1   8
BRANCH   1  13
ATOM     13  N   UNL     1       1.256  -2.939   1.557  0.00  0.00    -0.186 NA
ATOM     14  H   UNL     1       2.027  -3.413   1.905  0.00  0.00    +0.148 HD
BRANCH  13  15
ATOM     15  C   UNL     1       0.111  -2.664   2.429  0.00  0.00    +0.093 C 
ATOM     16  C   UNL     1      -0.813  -3.898   2.493  0.00  0.00    +0.022 C 
ATOM     17  C   UNL     1      -0.362  -4.644   3.773  0.00  0.00    +0.003 C 
ATOM     18  C   UNL     1      -0.053  -3.486   4.753  0.00  0.00    +0.020 C 
ATOM     19  C   UNL     1       0.594  -2.401   3.866  0.00  0.00    +0.110 C 
BRANCH  19  20
ATOM     20  C   UNL     1       0.163  -1.064   4.306  0.00  0.00    +0.067 C 
ATOM     21  N   UNL     1      -0.171  -0.033   4.646  0.00  0.00    -0.196 NA
ENDBRANCH  19  20
ENDBRANCH  13  15
ENDBRANCH   1  13
TORSDOF 5
