REMARK  Name = ZINC38905436
REMARK  4 active torsions:
REMARK  status: ('A' for Active; 'I' for Inactive)
REMARK    1  A    between atoms: C_12  and  C_14
REMARK    2  A    between atoms: N_19  and  C_21
REMARK    3  A    between atoms: C_21  and  C_22
REMARK    4  A    between atoms: C_24  and  C_27
REMARK                            x       y       z     vdW  Elec       q    Type
REMARK                         _______ _______ _______ _____ _____    ______ ____
ROOT
ATOM      1  C   UNL     1       6.018  -0.905  -0.587  0.00  0.00    +0.059 C 
ATOM      2  C   UNL     1       6.443  -1.180   0.858  0.00  0.00    +0.009 C 
ATOM      3  C   UNL     1       7.795  -1.899   0.854  0.00  0.00    -0.018 C 
ATOM      4  C   UNL     1       8.818  -1.046   0.101  0.00  0.00    -0.078 C 
ATOM      5  N   UNL     1       8.367  -0.841  -1.281  0.00  0.00    +0.386 N 
ATOM      6  C   UNL     1       7.106  -0.089  -1.288  0.00  0.00    -0.065 C 
ATOM      7  H   UNL     1       8.225  -1.736  -1.723  0.00  0.00    -0.081 HD
ENDROOT
BRANCH   1  19
ATOM      8  C   UNL     1      -0.017   1.378   0.010  0.00  0.00    +0.002 A 
ATOM      9  C   UNL     1       1.167   2.094   0.002  0.00  0.00    +0.002 A 
ATOM     10  C   UNL     1       2.381   1.430  -0.011  0.00  0.00    +0.025 A 
ATOM     11  C   UNL     1       2.406   0.047  -0.018  0.00  0.00    +0.058 A 
ATOM     12  C   UNL     1       1.213  -0.677  -0.014  0.00  0.00    +0.055 A 
ATOM     13  C   UNL     1       0.002  -0.004   0.002  0.00  0.00    +0.025 A 
ATOM     14  N   UNL     1       1.254  -2.076  -0.032  0.00  0.00    -0.283 N 
ATOM     15  C   UNL     1       2.399  -2.734   0.232  0.00  0.00    +0.235 C 
ATOM     16  O   UNL     1       2.422  -3.945   0.168  0.00  0.00    -0.274 OA
ATOM     17  C   UNL     1       3.652  -1.984   0.605  0.00  0.00    +0.209 C 
ATOM     18  N   UNL     1       3.622  -0.656  -0.025  0.00  0.00    -0.261 N 
ATOM     19  C   UNL     1       4.725  -0.130  -0.593  0.00  0.00    +0.222 C 
ATOM     20  O   UNL     1       4.678   0.967  -1.108  0.00  0.00    -0.275 OA
ATOM     21  H   UNL     1       0.450  -2.577  -0.237  0.00  0.00    +0.155 HD
ENDBRANCH   1  19
BRANCH   5  22
ATOM     22  C   UNL     1       9.388  -0.088  -2.021  0.00  0.00    +0.022 C 
BRANCH  22  23
ATOM     23  C   UNL     1      10.643  -0.916  -2.129  0.00  0.00    +0.211 A 
ATOM     24  N   UNL     1      10.927  -1.744  -3.092  0.00  0.00    -0.193 NA
ATOM     25  C   UNL     1      12.126  -2.314  -2.872  0.00  0.00    +0.202 A 
ATOM     26  N   UNL     1      12.614  -1.841  -1.751  0.00  0.00    -0.056 NA
ATOM     27  O   UNL     1      11.656  -0.919  -1.253  0.00  0.00    -0.340 OA
BRANCH  25  28
ATOM     28  C   UNL     1      12.786  -3.311  -3.751  0.00  0.00    +0.023 A 
ATOM     29  C   UNL     1      12.162  -3.730  -4.924  0.00  0.00    +0.013 A 
ATOM     30  C   UNL     1      12.780  -4.657  -5.738  0.00  0.00    +0.016 A 
ATOM     31  C   UNL     1      14.017  -5.171  -5.390  0.00  0.00    +0.018 A 
ATOM     32  C   UNL     1      14.641  -4.758  -4.226  0.00  0.00    +0.016 A 
ATOM     33  C   UNL     1      14.034  -3.826  -3.408  0.00  0.00    +0.013 A 
ATOM     34 BR   UNL     1      14.858  -6.442  -6.510  0.00  0.00    -0.050 Br
ENDBRANCH  25  28
ENDBRANCH  22  23
ENDBRANCH   5  22
TORSDOF 4
