REMARK  Name = ZINC39711609
REMARK  8 active torsions:
REMARK  status: ('A' for Active; 'I' for Inactive)
REMARK    1  A    between atoms: C_1  and  C_2
REMARK    2  A    between atoms: C_2  and  C_3
REMARK    3  A    between atoms: C_2  and  C_4
REMARK    4  A    between atoms: C_2  and  N_5
REMARK    5  A    between atoms: C_6  and  C_11
REMARK    6  A    between atoms: C_11  and  C_13
REMARK    7  A    between atoms: C_11  and  N_28
REMARK    8  A    between atoms: N_31  and  C_34
REMARK                            x       y       z     vdW  Elec       q    Type
REMARK                         _______ _______ _______ _____ _____    ______ ____
ROOT
ATOM      1  C   UNL     1       0.141  -2.554  -2.429  0.00  0.00    -0.009 C 
ENDROOT
BRANCH   1   2
ATOM      2  C   UNL     1       0.831  -2.000  -3.678  0.00  0.00    +0.088 C 
ATOM      3  C   UNL     1       2.202  -2.639  -3.774  0.00  0.00    -0.006 C 
ATOM      4  C   UNL     1       3.279  -1.809  -3.792  0.00  0.00    -0.003 A 
ATOM      5  C   UNL     1       4.638  -2.347  -3.882  0.00  0.00    +0.059 A 
ATOM      6  C   UNL     1       5.692  -1.491  -3.896  0.00  0.00    +0.167 A 
ATOM      7  C   UNL     1       5.500  -0.094  -3.827  0.00  0.00    +0.168 A 
ATOM      8  C   UNL     1       4.241   0.463  -3.741  0.00  0.00    +0.073 A 
ATOM      9  C   UNL     1       3.099  -0.347  -3.720  0.00  0.00    +0.044 A 
ATOM     10  N   UNL     1       1.889   0.212  -3.636  0.00  0.00    -0.284 N 
ATOM     11  C   UNL     1       0.771  -0.491  -3.610  0.00  0.00    +0.223 C 
ATOM     12  O   UNL     1      -0.304   0.075  -3.532  0.00  0.00    -0.275 OA
ATOM     13  O   UNL     1       6.725   0.506  -3.861  0.00  0.00    -0.453 OA
ATOM     14  C   UNL     1       7.672  -0.525  -3.530  0.00  0.00    +0.466 C 
ATOM     15  O   UNL     1       7.035  -1.738  -3.971  0.00  0.00    -0.453 OA
ATOM     16  H   UNL     1       1.828   1.179  -3.592  0.00  0.00    +0.155 HD
ENDBRANCH   1   2
BRANCH   1  17
ATOM     17  N   UNL     1       0.168  -4.022  -2.466  0.00  0.00    +0.387 N 
ATOM     18  C   UNL     1      -0.556  -4.552  -1.303  0.00  0.00    -0.059 C 
ATOM     19  C   UNL     1      -0.432  -6.079  -1.278  0.00  0.00    +0.086 C 
ATOM     20  N   UNL     1      -0.893  -6.606  -2.572  0.00  0.00    -0.331 N 
ATOM     21  C   UNL     1      -0.337  -6.014  -3.799  0.00  0.00    +0.086 C 
ATOM     22  C   UNL     1      -0.465  -4.490  -3.705  0.00  0.00    -0.059 C 
ATOM     23  H   UNL     1       1.125  -4.341  -2.437  0.00  0.00    -0.081 HD
BRANCH  20  24
ATOM     24  C   UNL     1      -1.833  -7.639  -2.634  0.00  0.00    +0.065 A 
ATOM     25  C   UNL     1      -3.189  -7.344  -2.684  0.00  0.00    +0.026 A 
ATOM     26  C   UNL     1      -4.116  -8.366  -2.746  0.00  0.00    +0.002 A 
ATOM     27  C   UNL     1      -3.695  -9.684  -2.757  0.00  0.00    +0.003 A 
ATOM     28  C   UNL     1      -2.346  -9.983  -2.708  0.00  0.00    +0.040 A 
ATOM     29  C   UNL     1      -1.413  -8.964  -2.652  0.00  0.00    +0.144 A 
ATOM     30  F   UNL     1      -0.094  -9.256  -2.609  0.00  0.00    -0.204 F 
ENDBRANCH  20  24
ENDBRANCH   1  17
BRANCH   1  32
ATOM     31  N   UNL     1       0.829  -0.586  -1.102  0.00  0.00    -0.183 NA
ATOM     32  C   UNL     1       0.876  -2.062  -1.180  0.00  0.00    +0.205 C 
ATOM     33  N   UNL     1       2.308  -2.380  -1.265  0.00  0.00    -0.152 NA
ATOM     34  N   UNL     1       2.952  -1.330  -1.242  0.00  0.00    -0.070 NA
ATOM     35  N   UNL     1       2.143  -0.199  -1.145  0.00  0.00    -0.179 N 
ATOM     36  H   UNL     1       2.459   0.718  -1.113  0.00  0.00    +0.191 HD
BRANCH  31  38
ATOM     37  C   UNL     1       0.258   1.380   0.241  0.00  0.00    +0.029 C 
ATOM     38  C   UNL     1       0.190  -0.145   0.145  0.00  0.00    +0.035 C 
ATOM     39  C   UNL     1       0.921  -0.764   1.339  0.00  0.00    +0.029 C 
ATOM     40  C   UNL     1      -1.273  -0.593   0.155  0.00  0.00    +0.029 C 
ENDBRANCH  31  38
ENDBRANCH   1  32
TORSDOF 5
