REMARK  Name = ZINC05120471
REMARK  5 active torsions:
REMARK  status: ('A' for Active; 'I' for Inactive)
REMARK    1  A    between atoms: C_1  and  C_2
REMARK    2  A    between atoms: C_2  and  C_3
REMARK    3  A    between atoms: N_9  and  C_12
REMARK    4  A    between atoms: N_19  and  C_20
REMARK    5  A    between atoms: C_20  and  C_21
REMARK                            x       y       z     vdW  Elec       q    Type
REMARK                         _______ _______ _______ _____ _____    ______ ____
ROOT
ATOM      1  C   UNL     1       5.907  -0.584   5.981  0.00  0.00    +0.205 C 
ATOM      2  C   UNL     1       4.847   0.353   6.395  0.00  0.00    +0.238 C 
ATOM      3  O   UNL     1       3.851   0.510   5.714  0.00  0.00    -0.274 OA
ATOM      4  N   UNL     1       5.011   1.031   7.549  0.00  0.00    -0.238 N 
ATOM      5  C   UNL     1       6.103   0.867   8.309  0.00  0.00    +0.319 C 
ATOM      6  O   UNL     1       6.189   1.509   9.338  0.00  0.00    -0.251 OA
ATOM      7  N   UNL     1       7.104   0.034   7.994  0.00  0.00    -0.193 N 
ATOM      8  C   UNL     1       7.074  -0.714   6.872  0.00  0.00    +0.245 C 
ATOM      9  O   UNL     1       7.987  -1.470   6.600  0.00  0.00    -0.274 OA
ATOM     10  H   UNL     1       4.323   1.652   7.836  0.00  0.00    +0.159 HD
ENDROOT
BRANCH   7  11
ATOM     11  C   UNL     1       8.207  -0.068   8.855  0.00  0.00    +0.046 A 
ATOM     12  C   UNL     1       9.363   0.654   8.592  0.00  0.00    +0.025 A 
ATOM     13  C   UNL     1      10.445   0.557   9.444  0.00  0.00    +0.022 A 
ATOM     14  C   UNL     1      10.382  -0.268  10.553  0.00  0.00    +0.041 A 
ATOM     15  C   UNL     1       9.232  -0.993  10.815  0.00  0.00    +0.022 A 
ATOM     16  C   UNL     1       8.145  -0.894   9.968  0.00  0.00    +0.025 A 
ATOM     17 CL   UNL     1      11.747  -0.394  11.619  0.00  0.00    -0.084 Cl
ENDBRANCH   7  11
BRANCH   1  19
ATOM     18  C   UNL     1       6.859  -2.340   4.472  0.00  0.00    +0.061 C 
ATOM     19  C   UNL     1       5.808  -1.314   4.811  0.00  0.00    +0.032 C 
ATOM     20  N   UNL     1       4.772  -1.109   3.974  0.00  0.00    -0.287 NA
BRANCH  20  21
ATOM     21  C   UNL     1       4.668  -1.882   2.734  0.00  0.00    +0.176 C 
BRANCH  21  22
ATOM     22  C   UNL     1       3.429  -1.464   1.984  0.00  0.00    -0.023 A 
ATOM     23  C   UNL     1       2.230  -2.111   2.216  0.00  0.00    +0.009 A 
ATOM     24  C   UNL     1       1.092  -1.731   1.531  0.00  0.00    +0.050 A 
ATOM     25  C   UNL     1       1.150  -0.700   0.607  0.00  0.00    +0.166 A 
ATOM     26  C   UNL     1       2.358  -0.048   0.372  0.00  0.00    +0.167 A 
ATOM     27  C   UNL     1       3.495  -0.434   1.064  0.00  0.00    +0.055 A 
ATOM     28  O   UNL     1       2.157   0.918  -0.570  0.00  0.00    -0.453 OA
ATOM     29  C   UNL     1       0.732   1.124  -0.612  0.00  0.00    +0.466 C 
ATOM     30  O   UNL     1       0.192  -0.142  -0.189  0.00  0.00    -0.453 OA
ENDBRANCH  21  22
ENDBRANCH  20  21
ENDBRANCH   1  19
TORSDOF 4
