REMARK  Name = ZINC61637103
REMARK  10 active torsions:
REMARK  status: ('A' for Active; 'I' for Inactive)
REMARK    1  A    between atoms: C_1  and  C_2
REMARK    2  A    between atoms: C_2  and  C_3
REMARK    3  A    between atoms: C_2  and  C_4
REMARK    4  A    between atoms: C_4  and  C_5
REMARK    5  A    between atoms: C_5  and  C_6
REMARK    6  A    between atoms: C_5  and  N_23
REMARK    7  A    between atoms: N_8  and  C_9
REMARK    8  A    between atoms: C_12  and  C_15
REMARK    9  A    between atoms: C_15  and  C_16
REMARK   10  A    between atoms: C_16  and  N_17
REMARK                            x       y       z     vdW  Elec       q    Type
REMARK                         _______ _______ _______ _____ _____    ______ ____
ROOT
ATOM      1  C   UNL     1      -2.836  -2.578  -0.827  0.00  0.00    +0.238 C 
ATOM      2  O   UNL     1      -3.735  -2.788  -1.613  0.00  0.00    -0.273 OA
ATOM      3  N   UNL     1      -2.955  -2.978   0.455  0.00  0.00    -0.284 N 
ATOM      4  H   UNL     1      -2.264  -2.758   1.098  0.00  0.00    +0.155 HD
ENDROOT
BRANCH   3   5
ATOM      5  C   UNL     1      -4.077  -3.712   0.858  0.00  0.00    +0.033 A 
ATOM      6  C   UNL     1      -3.944  -4.729   1.793  0.00  0.00    +0.023 A 
ATOM      7  C   UNL     1      -5.053  -5.452   2.188  0.00  0.00    +0.005 A 
ATOM      8  C   UNL     1      -6.295  -5.162   1.654  0.00  0.00    -0.049 A 
ATOM      9  C   UNL     1      -6.431  -4.150   0.722  0.00  0.00    +0.005 A 
ATOM     10  C   UNL     1      -5.327  -3.420   0.327  0.00  0.00    +0.023 A 
BRANCH   8  11
ATOM     11  C   UNL     1      -7.503  -5.952   2.087  0.00  0.00    +0.016 C 
BRANCH  11  12
ATOM     12  C   UNL     1      -8.148  -5.274   3.297  0.00  0.00    -0.074 C 
BRANCH  12  13
ATOM     13  N   UNL     1      -9.295  -6.071   3.752  0.00  0.00    +0.381 N 
ATOM     14  C   UNL     1      -9.992  -5.346   4.816  0.00  0.00    -0.068 C 
ATOM     15  C   UNL     1     -11.378  -5.962   5.045  0.00  0.00    +0.050 C 
ATOM     16  S   UNL     1     -11.153  -7.685   5.587  0.00  0.00    -0.164 S 
ATOM     17  C   UNL     1      -9.997  -8.346   4.346  0.00  0.00    +0.050 C 
ATOM     18  C   UNL     1      -8.818  -7.373   4.222  0.00  0.00    -0.068 C 
ATOM     19  H   UNL     1      -9.928  -6.210   2.978  0.00  0.00    -0.082 HD
ENDBRANCH  12  13
ENDBRANCH  11  12
ENDBRANCH   8  11
ENDBRANCH   3   5
BRANCH   1  20
ATOM     20  C   UNL     1      -1.587  -1.870  -1.282  0.00  0.00    +0.161 C 
BRANCH  20  21
ATOM     21  N   UNL     1      -1.703  -1.540  -2.705  0.00  0.00    -0.288 N 
ATOM     22  C   UNL     1      -0.973  -0.534  -3.225  0.00  0.00    +0.298 C 
ATOM     23  O   UNL     1      -0.151   0.040  -2.537  0.00  0.00    -0.253 OA
ATOM     24  N   UNL     1      -1.153  -0.165  -4.509  0.00  0.00    -0.313 N 
ATOM     25  H   UNL     1      -2.305  -2.046  -3.272  0.00  0.00    +0.151 HD
ATOM     26  H   UNL     1      -1.808  -0.624  -5.058  0.00  0.00    +0.146 HD
ATOM     27  H   UNL     1      -0.627   0.559  -4.883  0.00  0.00    +0.146 HD
ENDBRANCH  20  21
BRANCH  20  28
ATOM     28  C   UNL     1      -0.377  -2.781  -1.067  0.00  0.00    +0.034 C 
BRANCH  28  30
ATOM     29  C   UNL     1       0.815  -4.800  -1.932  0.00  0.00    +0.007 C 
ATOM     30  C   UNL     1      -0.491  -4.005  -1.978  0.00  0.00    -0.015 C 
ATOM     31  C   UNL     1      -1.644  -4.890  -1.502  0.00  0.00    +0.007 C 
ENDBRANCH  28  30
ENDBRANCH  20  28
ENDBRANCH   1  20
TORSDOF 8
