REMARK  Name = ZINC20531740
REMARK  6 active torsions:
REMARK  status: ('A' for Active; 'I' for Inactive)
REMARK    1  A    between atoms: C_1  and  C_2
REMARK    2  A    between atoms: C_2  and  N_3
REMARK    3  A    between atoms: C_9  and  C_15
REMARK    4  A    between atoms: C_10  and  C_14
REMARK    5  A    between atoms: N_20  and  C_23
REMARK    6  A    between atoms: C_26  and  N_29
REMARK                            x       y       z     vdW  Elec       q    Type
REMARK                         _______ _______ _______ _____ _____    ______ ____
ROOT
ATOM      1  C   UNL     1       1.965   7.137  -1.604  0.00  0.00    +0.247 C 
ATOM      2  O   UNL     1       2.582   6.114  -1.831  0.00  0.00    -0.270 OA
ATOM      3  N   UNL     1       2.195   7.824  -0.468  0.00  0.00    -0.295 N 
ATOM      4  C   UNL     1       3.107   7.300   0.560  0.00  0.00    +0.127 C 
ATOM      5  C   UNL     1       2.386   7.329   1.912  0.00  0.00    +0.124 C 
ATOM      6  N   UNL     1       1.880   8.685   2.164  0.00  0.00    -0.327 N 
ATOM      7  C   UNL     1       0.881   9.076   1.160  0.00  0.00    +0.124 C 
ATOM      8  C   UNL     1       1.541   9.118  -0.223  0.00  0.00    +0.127 C 
ENDROOT
BRANCH   1  15
ATOM      9  N   UNL     1      -2.574   5.335  -1.982  0.00  0.00    +0.380 N 
ATOM     10  C   UNL     1      -1.870   5.136  -3.255  0.00  0.00    -0.075 C 
ATOM     11  C   UNL     1      -0.430   5.640  -3.126  0.00  0.00    +0.034 C 
ATOM     12  C   UNL     1      -0.446   7.120  -2.745  0.00  0.00    +0.141 C 
ATOM     13  C   UNL     1      -1.235   7.315  -1.450  0.00  0.00    +0.034 C 
ATOM     14  C   UNL     1      -2.649   6.759  -1.631  0.00  0.00    -0.075 C 
ATOM     15  C   UNL     1       0.965   7.627  -2.574  0.00  0.00    +0.067 C 
ATOM     16  C   UNL     1       1.136   8.605  -3.478  0.00  0.00    +0.045 C 
ATOM     17  C   UNL     1      -0.108   8.778  -4.245  0.00  0.00    +0.336 C 
ATOM     18  O   UNL     1      -0.271   9.587  -5.137  0.00  0.00    -0.245 OA
ATOM     19  O   UNL     1      -1.039   7.908  -3.811  0.00  0.00    -0.450 OA
ATOM     20  C   UNL     1       2.401   9.399  -3.676  0.00  0.00    +0.052 C 
ATOM     21  H   UNL     1      -1.995   4.827  -1.196  0.00  0.00    -0.082 HD
BRANCH   9  23
ATOM     22  C   UNL     1      -4.705   5.167  -0.787  0.00  0.00    -0.017 C 
ATOM     23  C   UNL     1      -3.913   4.731  -2.021  0.00  0.00    -0.082 C 
ENDBRANCH   9  23
ENDBRANCH   1  15
BRANCH   6  24
ATOM     24  C   UNL     1       1.360   8.793   3.455  0.00  0.00    +0.030 A 
ATOM     25  C   UNL     1       0.829  10.000   3.893  0.00  0.00    +0.025 A 
ATOM     26  C   UNL     1       0.315  10.104   5.171  0.00  0.00    +0.034 A 
ATOM     27  C   UNL     1       0.329   9.008   6.014  0.00  0.00    +0.126 A 
ATOM     28  C   UNL     1       0.857   7.805   5.582  0.00  0.00    +0.034 A 
ATOM     29  C   UNL     1       1.373   7.695   4.306  0.00  0.00    +0.025 A 
BRANCH  27  30
ATOM     30  N   UNL     1      -0.223   9.122   7.383  0.00  0.00    +0.056 N 
ATOM     31  O   UNL     1      -0.689  10.181   7.765  0.00  0.00    -0.126 OA
ATOM     32  O   UNL     1      -0.212   8.158   8.127  0.00  0.00    -0.126 OA
ENDBRANCH  27  30
ENDBRANCH   6  24
TORSDOF 4
