REMARK  Name = ZINC06273949
REMARK  8 active torsions:
REMARK  status: ('A' for Active; 'I' for Inactive)
REMARK    1  A    between atoms: C_1  and  C_2
REMARK    2  A    between atoms: C_5  and  C_8
REMARK    3  A    between atoms: N_10  and  N_11
REMARK    4  A    between atoms: C_12  and  C_14
REMARK    5  A    between atoms: C_17  and  C_21
REMARK    6  A    between atoms: C_21  and  C_22
REMARK    7  A    between atoms: C_21  and  C_23
REMARK    8  A    between atoms: C_21  and  C_24
REMARK                            x       y       z     vdW  Elec       q    Type
REMARK                         _______ _______ _______ _____ _____    ______ ____
ROOT
ATOM      1  N   UNL     1      -3.772   2.907   0.029  0.00  0.00    -0.230 N 
ATOM      2  C   UNL     1      -2.646   3.638  -0.092  0.00  0.00    +0.260 C 
ATOM      3  O   UNL     1      -2.716   4.845  -0.216  0.00  0.00    -0.269 OA
ATOM      4  H   UNL     1      -3.717   1.944   0.128  0.00  0.00    +0.173 HD
ENDROOT
BRANCH   2   5
ATOM      5  C   UNL     1      -1.327   2.971  -0.073  0.00  0.00    +0.039 A 
ATOM      6  C   UNL     1      -1.244   1.585   0.065  0.00  0.00    +0.013 A 
ATOM      7  C   UNL     1      -0.010   0.969   0.088  0.00  0.00    +0.006 A 
ATOM      8  C   UNL     1       1.145   1.722  -0.036  0.00  0.00    -0.028 A 
ATOM      9  C   UNL     1       1.070   3.097  -0.178  0.00  0.00    +0.022 A 
ATOM     10  C   UNL     1      -0.159   3.725  -0.197  0.00  0.00    +0.028 A 
ATOM     11 BR   UNL     1       2.654   4.116  -0.346  0.00  0.00    -0.050 Br
BRANCH   8  12
ATOM     12  C   UNL     1       2.489   1.042  -0.017  0.00  0.00    -0.012 C 
ATOM     13  C   UNL     1       2.295  -0.469   0.133  0.00  0.00    +0.015 C 
ATOM     14  C   UNL     1       3.228   1.334  -1.324  0.00  0.00    +0.015 C 
ATOM     15  C   UNL     1       3.311   1.569   1.162  0.00  0.00    +0.015 C 
ENDBRANCH   8  12
ENDBRANCH   2   5
BRANCH   1  18
ATOM     16  C   UNL     1      -6.149   2.808   0.131  0.00  0.00    +0.260 C 
ATOM     17  O   UNL     1      -6.079   1.601   0.255  0.00  0.00    -0.269 OA
ATOM     18  N   UNL     1      -5.023   3.539   0.011  0.00  0.00    -0.230 N 
ATOM     19  H   UNL     1      -5.078   4.502  -0.088  0.00  0.00    +0.173 HD
BRANCH  16  24
ATOM     20  C   UNL     1     -11.285   5.402   0.059  0.00  0.00    +0.044 C 
ATOM     21  C   UNL     1      -9.940   4.723   0.078  0.00  0.00    -0.050 A 
ATOM     22  C   UNL     1      -9.864   3.348   0.218  0.00  0.00    +0.004 A 
ATOM     23  C   UNL     1      -8.636   2.720   0.236  0.00  0.00    +0.013 A 
ATOM     24  C   UNL     1      -7.468   3.474   0.112  0.00  0.00    +0.038 A 
ATOM     25  C   UNL     1      -7.551   4.861  -0.025  0.00  0.00    +0.013 A 
ATOM     26  C   UNL     1      -8.786   5.476  -0.046  0.00  0.00    +0.004 A 
ENDBRANCH  16  24
ENDBRANCH   1  18
TORSDOF 4
