REMARK  Name = ZINC39678802
REMARK  11 active torsions:
REMARK  status: ('A' for Active; 'I' for Inactive)
REMARK    1  A    between atoms: C_1  and  C_2
REMARK    2  A    between atoms: C_2  and  C_3
REMARK    3  A    between atoms: C_2  and  O_4
REMARK    4  A    between atoms: O_4  and  C_5
REMARK    5  A    between atoms: C_5  and  C_7
REMARK    6  A    between atoms: C_7  and  N_8
REMARK    7  A    between atoms: C_9  and  C_11
REMARK    8  A    between atoms: C_22  and  C_24
REMARK    9  A    between atoms: C_30  and  O_32
REMARK   10  A    between atoms: O_32  and  C_33
REMARK   11  A    between atoms: C_33  and  C_34
REMARK                            x       y       z     vdW  Elec       q    Type
REMARK                         _______ _______ _______ _____ _____    ______ ____
ROOT
ATOM      1  C   UNL     1      -1.066  -1.955   6.873  0.00  0.00    +0.100 C 
ATOM      2  C   UNL     1      -1.611  -0.576   7.308  0.00  0.00    +0.121 C 
ATOM      3  N   UNL     1      -1.809  -0.696   8.771  0.00  0.00    -0.300 N 
ATOM      4  C   UNL     1      -0.641  -1.482   9.238  0.00  0.00    +0.115 C 
ATOM      5  C   UNL     1      -0.430  -2.546   8.143  0.00  0.00    -0.004 C 
ATOM      6  C   UNL     1       1.060  -2.787   7.923  0.00  0.00    -0.010 C 
ATOM      7  C   UNL     1       1.659  -3.429   9.178  0.00  0.00    -0.082 C 
ATOM      8  N   UNL     1       0.974  -4.697   9.457  0.00  0.00    +0.379 N 
ATOM      9  C   UNL     1      -0.441  -4.445   9.758  0.00  0.00    -0.082 C 
ATOM     10  C   UNL     1      -1.128  -3.846   8.528  0.00  0.00    -0.010 C 
ATOM     11  C   UNL     1      -2.821  -0.202   9.511  0.00  0.00    +0.219 C 
ATOM     12  O   UNL     1      -2.841  -0.385  10.710  0.00  0.00    -0.275 OA
ATOM     13  H   UNL     1       1.042  -5.299   8.650  0.00  0.00    -0.086 HD
ATOM     14  H   UNL     1       1.410  -5.147  10.248  0.00  0.00    -0.086 HD
ENDROOT
BRANCH  11  15
ATOM     15  C   UNL     1      -3.928   0.578   8.849  0.00  0.00    +0.078 C 
ATOM     16  C   UNL     1      -3.340   1.809   8.156  0.00  0.00    +0.032 C 
ATOM     17  C   UNL     1      -4.462   2.581   7.455  0.00  0.00    +0.112 C 
ATOM     18  N   UNL     1      -5.512   2.885   8.438  0.00  0.00    -0.267 N 
ATOM     19  C   UNL     1      -6.083   1.784   9.225  0.00  0.00    +0.112 C 
ATOM     20  C   UNL     1      -4.942   1.022   9.906  0.00  0.00    +0.032 C 
ATOM     21  C   UNL     1      -5.942   4.150   8.613  0.00  0.00    +0.403 C 
ATOM     22  O   UNL     1      -5.461   5.052   7.956  0.00  0.00    -0.226 OA
BRANCH  21  23
ATOM     23  O   UNL     1      -6.904   4.415   9.517  0.00  0.00    -0.445 OA
BRANCH  23  24
ATOM     24  C   UNL     1      -7.311   5.778   9.650  0.00  0.00    +0.269 C 
BRANCH  24  25
ATOM     25  C   UNL     1      -8.388   5.880  10.700  0.00  0.00    -0.010 A 
ATOM     26  C   UNL     1      -9.717   5.754  10.342  0.00  0.00    +0.007 A 
ATOM     27  C   UNL     1     -10.704   5.847  11.305  0.00  0.00    +0.000 A 
ATOM     28  C   UNL     1     -10.363   6.067  12.626  0.00  0.00    +0.000 A 
ATOM     29  C   UNL     1      -9.034   6.192  12.985  0.00  0.00    +0.000 A 
ATOM     30  C   UNL     1      -8.046   6.094  12.022  0.00  0.00    +0.007 A 
ENDBRANCH  24  25
ENDBRANCH  23  24
ENDBRANCH  21  23
ENDBRANCH  11  15
BRANCH   1  32
ATOM     31  N   UNL     1       0.161  -2.773   4.887  0.00  0.00    -0.305 N 
ATOM     32  C   UNL     1      -0.029  -1.793   5.793  0.00  0.00    +0.219 C 
ATOM     33  O   UNL     1       0.636  -0.780   5.738  0.00  0.00    -0.275 OA
ATOM     34  H   UNL     1      -0.371  -3.583   4.931  0.00  0.00    +0.149 HD
BRANCH  31  35
ATOM     35  C   UNL     1       1.170  -2.615   3.837  0.00  0.00    +0.224 C 
BRANCH  35  36
ATOM     36  C   UNL     1       1.181  -3.843   2.963  0.00  0.00    +0.325 C 
ATOM     37  O   UNL     1       0.424  -4.756   3.193  0.00  0.00    -0.249 OA
BRANCH  36  38
ATOM     38  O   UNL     1       2.032  -3.922   1.928  0.00  0.00    -0.461 OA
BRANCH  38  40
ATOM     39  C   UNL     1       0.984  -4.937   0.002  0.00  0.00    +0.052 C 
ATOM     40  C   UNL     1       1.988  -5.114   1.142  0.00  0.00    +0.170 C 
ATOM     41  C   UNL     1       3.376  -5.393   0.560  0.00  0.00    +0.052 C 
ENDBRANCH  38  40
ENDBRANCH  36  38
ENDBRANCH  35  36
ENDBRANCH  31  35
ENDBRANCH   1  32
TORSDOF 9
