REMARK  Name = ZINC12701078
REMARK  12 active torsions:
REMARK  status: ('A' for Active; 'I' for Inactive)
REMARK    1  A    between atoms: C_1  and  C_2
REMARK    2  A    between atoms: C_4  and  C_31
REMARK    3  A    between atoms: C_9  and  C_13
REMARK    4  A    between atoms: C_15  and  C_29
REMARK    5  A    between atoms: C_16  and  N_28
REMARK    6  A    between atoms: C_18  and  C_27
REMARK    7  A    between atoms: C_19  and  C_20
REMARK    8  A    between atoms: C_20  and  O_22
REMARK    9  A    between atoms: O_22  and  C_23
REMARK   10  A    between atoms: C_23  and  C_24
REMARK   11  A    between atoms: C_24  and  O_25
REMARK   12  A    between atoms: O_25  and  C_26
REMARK                            x       y       z     vdW  Elec       q    Type
REMARK                         _______ _______ _______ _____ _____    ______ ____
ROOT
ATOM      1  C   UNL     1      -2.554   0.999  -0.086  0.00  0.00    +0.107 C 
ATOM      2  C   UNL     1      -2.437   0.085  -1.277  0.00  0.00    +0.098 C 
ATOM      3  C   UNL     1      -2.197  -1.238  -1.113  0.00  0.00    +0.198 C 
ATOM      4  O   UNL     1      -2.052  -1.786   0.106  0.00  0.00    -0.445 OA
ATOM      5  C   UNL     1      -2.509  -1.129   1.182  0.00  0.00    +0.115 C 
ATOM      6  C   UNL     1      -2.766   0.185   1.161  0.00  0.00    +0.087 C 
ATOM      7  C   UNL     1      -2.741  -1.895   2.459  0.00  0.00    +0.087 C 
ENDROOT
BRANCH   1  16
ATOM      8  C   UNL     1       4.784   1.565   0.867  0.00  0.00    +0.044 C 
ATOM      9  C   UNL     1       3.427   2.188   0.662  0.00  0.00    -0.050 A 
ATOM     10  C   UNL     1       3.311   3.574   0.587  0.00  0.00    +0.008 A 
ATOM     11  C   UNL     1       2.101   4.169   0.401  0.00  0.00    -0.024 A 
ATOM     12  C   UNL     1       0.945   3.377   0.283  0.00  0.00    +0.076 A 
ATOM     13  C   UNL     1       1.065   1.967   0.360  0.00  0.00    +0.001 A 
ATOM     14  C   UNL     1       2.330   1.388   0.553  0.00  0.00    +0.013 A 
ATOM     15  C   UNL     1      -0.093   1.175   0.242  0.00  0.00    +0.017 A 
ATOM     16  C   UNL     1      -1.288   1.806   0.052  0.00  0.00    +0.003 A 
ATOM     17  C   UNL     1      -1.339   3.199  -0.009  0.00  0.00    +0.134 A 
ATOM     18  N   UNL     1      -0.257   3.933   0.101  0.00  0.00    -0.235 NA
ATOM     19 CL   UNL     1      -2.871   3.980  -0.244  0.00  0.00    -0.062 Cl
ATOM     20  C   UNL     1       2.000   5.670   0.323  0.00  0.00    +0.046 C 
ENDBRANCH   1  16
BRANCH   3  21
ATOM     21  N   UNL     1      -2.100  -2.041  -2.221  0.00  0.00    -0.328 N 
ATOM     22  H   UNL     1      -1.928  -2.990  -2.119  0.00  0.00    +0.145 HD
ATOM     23  H   UNL     1      -2.202  -1.660  -3.107  0.00  0.00    +0.145 HD
ENDBRANCH   3  21
BRANCH   6  24
ATOM     24  C   UNL     1      -3.247   0.820   2.333  0.00  0.00    +0.339 C 
ATOM     25  O   UNL     1      -4.436   1.044   2.459  0.00  0.00    -0.245 OA
BRANCH  24  26
ATOM     26  O   UNL     1      -2.386   1.175   3.309  0.00  0.00    -0.459 OA
BRANCH  26  27
ATOM     27  C   UNL     1      -2.940   1.811   4.463  0.00  0.00    +0.260 C 
BRANCH  27  28
ATOM     28  C   UNL     1      -1.820   2.137   5.452  0.00  0.00    +0.200 C 
BRANCH  28  29
ATOM     29  O   UNL     1      -0.940   3.104   4.874  0.00  0.00    -0.380 OA
ATOM     30  C   UNL     1       0.147   3.480   5.721  0.00  0.00    +0.194 C 
ENDBRANCH  28  29
ENDBRANCH  27  28
ENDBRANCH  26  27
ENDBRANCH  24  26
ENDBRANCH   6  24
BRANCH   2  31
ATOM     31  C   UNL     1      -2.581   0.621  -2.597  0.00  0.00    +0.101 C 
ATOM     32  N   UNL     1      -2.696   1.045  -3.644  0.00  0.00    -0.191 NA
ENDBRANCH   2  31
TORSDOF 8
