REMARK  Name = ZINC12359411
REMARK  10 active torsions:
REMARK  status: ('A' for Active; 'I' for Inactive)
REMARK    1  A    between atoms: C_1  and  C_2
REMARK    2  A    between atoms: C_2  and  C_23
REMARK    3  A    between atoms: C_3  and  C_21
REMARK    4  A    between atoms: C_3  and  O_22
REMARK    5  A    between atoms: C_4  and  C_19
REMARK    6  A    between atoms: C_4  and  O_20
REMARK    7  A    between atoms: C_5  and  C_7
REMARK    8  A    between atoms: C_5  and  N_8
REMARK    9  A    between atoms: C_16  and  N_17
REMARK   10  A    between atoms: C_23  and  O_24
REMARK                            x       y       z     vdW  Elec       q    Type
REMARK                         _______ _______ _______ _____ _____    ______ ____
ROOT
ATOM      1  C   UNL     1       1.869   4.205   1.838  0.00  0.00    +0.047 C 
ATOM      2  C   UNL     1       0.867   3.309   2.569  0.00  0.00    +0.123 C 
ATOM      3  C   UNL     1      -0.384   3.100   1.695  0.00  0.00    +0.127 C 
ATOM      4  C   UNL     1      -0.467   1.565   1.512  0.00  0.00    +0.142 C 
ATOM      5  C   UNL     1       0.378   1.050   2.704  0.00  0.00    +0.178 C 
ATOM      6  O   UNL     1       1.448   2.015   2.800  0.00  0.00    -0.340 OA
ATOM      7  C   UNL     1       0.935  -0.344   2.407  0.00  0.00    +0.070 C 
ATOM      8  C   UNL     1       0.153   1.140   0.179  0.00  0.00    +0.049 C 
ATOM      9  C   UNL     1      -1.631   3.622   2.412  0.00  0.00    +0.047 C 
ENDROOT
BRANCH   5  10
ATOM     10  N   UNL     1      -0.418   1.037   3.934  0.00  0.00    -0.283 N 
ATOM     11  C   UNL     1      -1.749   0.756   4.030  0.00  0.00    +0.204 A 
ATOM     12  N   UNL     1      -2.130   0.834   5.272  0.00  0.00    -0.231 NA
ATOM     13  C   UNL     1      -1.073   1.177   6.048  0.00  0.00    +0.147 A 
ATOM     14  C   UNL     1       0.037   1.312   5.198  0.00  0.00    +0.170 A 
ATOM     15  N   UNL     1       1.213   1.648   5.720  0.00  0.00    -0.182 NA
ATOM     16  C   UNL     1       1.339   1.853   7.016  0.00  0.00    +0.313 A 
ATOM     17  N   UNL     1       0.322   1.738   7.854  0.00  0.00    -0.185 NA
ATOM     18  C   UNL     1      -0.890   1.406   7.422  0.00  0.00    +0.150 A 
ATOM     19  F   UNL     1       2.551   2.192   7.507  0.00  0.00    -0.161 F 
BRANCH  18  20
ATOM     20  N   UNL     1      -1.948   1.288   8.306  0.00  0.00    -0.341 N 
ATOM     21  H   UNL     1      -1.739   0.583   8.984  0.00  0.00    +0.144 HD
ATOM     22  H   UNL     1      -2.829   1.045   7.979  0.00  0.00    +0.144 HD
ENDBRANCH  18  20
ENDBRANCH   5  10
BRANCH   4  23
ATOM     23  O   UNL     1      -1.818   1.111   1.611  0.00  0.00    -0.381 OA
ATOM     24  H   UNL     1      -1.916   0.151   1.547  0.00  0.00    +0.210 HD
ENDBRANCH   4  23
BRANCH   3  25
ATOM     25  O   UNL     1      -0.225   3.747   0.430  0.00  0.00    -0.383 OA
ATOM     26  H   UNL     1      -0.168   4.711   0.486  0.00  0.00    +0.210 HD
ENDBRANCH   3  25
BRANCH   2  27
ATOM     27  C   UNL     1       0.471   3.947   3.902  0.00  0.00    +0.193 C 
BRANCH  27  28
ATOM     28  O   UNL     1       1.633   4.113   4.715  0.00  0.00    -0.392 OA
ATOM     29  H   UNL     1       1.456   4.513   5.578  0.00  0.00    +0.210 HD
ENDBRANCH  27  28
ENDBRANCH   2  27
TORSDOF 6
