REMARK  Name = ZINC09909441
REMARK  8 active torsions:
REMARK  status: ('A' for Active; 'I' for Inactive)
REMARK    1  A    between atoms: C_1  and  C_2
REMARK    2  A    between atoms: C_2  and  C_4
REMARK    3  A    between atoms: C_2  and  S_18
REMARK    4  A    between atoms: N_6  and  C_7
REMARK    5  A    between atoms: C_8  and  C_15
REMARK    6  A    between atoms: S_18  and  C_19
REMARK    7  A    between atoms: C_22  and  C_27
REMARK    8  A    between atoms: N_23  and  C_24
REMARK                            x       y       z     vdW  Elec       q    Type
REMARK                         _______ _______ _______ _____ _____    ______ ____
ROOT
ATOM      1  C   UNL     1      -2.544   0.946  -5.418  0.00  0.00    +0.029 C 
ATOM      2  C   UNL     1      -2.084   2.330  -4.958  0.00  0.00    +0.137 C 
ENDROOT
BRANCH   2   3
ATOM      3  C   UNL     1      -2.632   2.610  -3.582  0.00  0.00    +0.231 C 
ATOM      4  O   UNL     1      -3.666   3.231  -3.456  0.00  0.00    -0.274 OA
ATOM      5  N   UNL     1      -1.973   2.170  -2.492  0.00  0.00    -0.278 N 
ATOM      6  H   UNL     1      -1.146   1.673  -2.592  0.00  0.00    +0.155 HD
BRANCH   5   7
ATOM      7  C   UNL     1      -2.477   2.427  -1.226  0.00  0.00    +0.084 A 
ATOM      8  C   UNL     1      -1.950   2.062   0.001  0.00  0.00    +0.068 A 
ATOM      9  C   UNL     1      -2.683   2.467   1.200  0.00  0.00    -0.023 A 
ATOM     10  C   UNL     1      -3.812   3.160   0.973  0.00  0.00    -0.004 A 
ATOM     11  S   UNL     1      -3.920   3.281  -0.796  0.00  0.00    -0.077 S 
ATOM     12  C   UNL     1      -4.506   3.545   2.252  0.00  0.00    +0.043 C 
ATOM     13  C   UNL     1      -3.431   3.366   3.346  0.00  0.00    +0.010 C 
ATOM     14  C   UNL     1      -2.508   2.307   2.711  0.00  0.00    +0.037 C 
BRANCH   8  15
ATOM     15  C   UNL     1      -0.700   1.302   0.094  0.00  0.00    +0.244 C 
ATOM     16  O   UNL     1      -0.727   0.085   0.104  0.00  0.00    -0.270 OA
ATOM     17  N   UNL     1       0.479   1.950   0.164  0.00  0.00    -0.325 N 
ATOM     18  H   UNL     1       1.307   1.448   0.222  0.00  0.00    +0.145 HD
ATOM     19  H   UNL     1       0.501   2.920   0.156  0.00  0.00    +0.145 HD
ENDBRANCH   8  15
ENDBRANCH   5   7
ENDBRANCH   2   3
BRANCH   2  20
ATOM     20  S   UNL     1      -2.689   3.584  -6.115  0.00  0.00    -0.073 S 
BRANCH  20  21
ATOM     21  C   UNL     1      -1.800   3.119  -7.563  0.00  0.00    +0.193 A 
ATOM     22  N   UNL     1      -0.954   2.121  -7.670  0.00  0.00    -0.122 NA
ATOM     23  N   UNL     1      -0.485   2.065  -8.865  0.00  0.00    -0.128 NA
ATOM     24  C   UNL     1      -1.004   3.025  -9.596  0.00  0.00    +0.167 A 
ATOM     25  N   UNL     1      -1.866   3.727  -8.786  0.00  0.00    -0.299 N 
BRANCH  24  26
ATOM     26  C   UNL     1      -0.719   3.296 -11.019  0.00  0.00    +0.044 A 
ATOM     27  C   UNL     1      -1.344   4.204 -11.813  0.00  0.00    +0.095 A 
ATOM     28  N   UNL     1      -0.806   4.167 -13.067  0.00  0.00    -0.360 N 
ATOM     29  H   UNL     1      -1.088   4.724 -13.809  0.00  0.00    +0.165 HD
ATOM     30  C   UNL     1       0.197   3.223 -13.127  0.00  0.00    +0.047 A 
ATOM     31  C   UNL     1       0.303   2.640 -11.853  0.00  0.00    +0.010 A 
ATOM     32  C   UNL     1       1.242   1.637 -11.620  0.00  0.00    +0.011 A 
ATOM     33  C   UNL     1       2.072   1.230 -12.641  0.00  0.00    +0.001 A 
ATOM     34  C   UNL     1       1.972   1.809 -13.899  0.00  0.00    +0.002 A 
ATOM     35  C   UNL     1       1.045   2.797 -14.145  0.00  0.00    +0.026 A 
ENDBRANCH  24  26
BRANCH  25  36
ATOM     36  C   UNL     1      -2.683   4.885  -9.156  0.00  0.00    +0.091 C 
ATOM     37  C   UNL     1      -3.277   5.723  -8.021  0.00  0.00    +0.027 C 
ATOM     38  C   UNL     1      -4.183   4.816  -8.859  0.00  0.00    +0.027 C 
ENDBRANCH  25  36
ENDBRANCH  20  21
ENDBRANCH   2  20
TORSDOF 7
