REMARK  Name = ZINC36541942
REMARK  11 active torsions:
REMARK  status: ('A' for Active; 'I' for Inactive)
REMARK    1  A    between atoms: C_1  and  N_2
REMARK    2  A    between atoms: N_2  and  C_3
REMARK    3  A    between atoms: N_2  and  C_4
REMARK    4  A    between atoms: C_7  and  C_10
REMARK    5  A    between atoms: C_10  and  C_12
REMARK    6  A    between atoms: C_10  and  N_21
REMARK    7  A    between atoms: N_14  and  C_15
REMARK    8  A    between atoms: N_21  and  C_22
REMARK    9  A    between atoms: C_29  and  C_31
REMARK   10  A    between atoms: C_31  and  C_32
REMARK   11  A    between atoms: C_32  and  C_33
REMARK                            x       y       z     vdW  Elec       q    Type
REMARK                         _______ _______ _______ _____ _____    ______ ____
ROOT
ATOM      1  C   UNL     1      -4.741  -2.834   0.125  0.00  0.00    +0.197 C 
ENDROOT
BRANCH   1   5
ATOM      2  C   UNL     1      -1.535  -0.017  -0.102  0.00  0.00    +0.029 A 
ATOM      3  C   UNL     1      -1.805  -0.669   1.095  0.00  0.00    +0.023 A 
ATOM      4  C   UNL     1      -2.842  -1.579   1.164  0.00  0.00    +0.008 A 
ATOM      5  C   UNL     1      -3.611  -1.840   0.045  0.00  0.00    -0.018 A 
ATOM      6  C   UNL     1      -3.344  -1.193  -1.147  0.00  0.00    +0.008 A 
ATOM      7  C   UNL     1      -2.312  -0.278  -1.223  0.00  0.00    +0.023 A 
BRANCH   2   9
ATOM      8  C   UNL     1      -0.207   1.595  -1.437  0.00  0.00    +0.129 C 
ATOM      9  N   UNL     1      -0.487   0.904  -0.176  0.00  0.00    -0.336 N 
ATOM     10  C   UNL     1       0.332   1.178   1.007  0.00  0.00    +0.129 C 
ENDBRANCH   2   9
ENDBRANCH   1   5
BRANCH   1  11
ATOM     11  C   UNL     1      -5.319  -3.049  -1.250  0.00  0.00    +0.239 C 
ATOM     12  O   UNL     1      -6.486  -2.796  -1.464  0.00  0.00    -0.273 OA
ATOM     13  N   UNL     1      -4.539  -3.522  -2.243  0.00  0.00    -0.311 N 
ATOM     14  H   UNL     1      -3.606  -3.724  -2.072  0.00  0.00    +0.149 HD
BRANCH  13  15
ATOM     15  C   UNL     1      -5.101  -3.731  -3.579  0.00  0.00    +0.073 C 
ATOM     16  C   UNL     1      -5.765  -5.107  -3.644  0.00  0.00    +0.022 C 
ATOM     17  C   UNL     1      -6.352  -5.326  -5.040  0.00  0.00    +0.002 C 
ATOM     18  C   UNL     1      -5.233  -5.250  -6.081  0.00  0.00    +0.000 C 
ATOM     19  C   UNL     1      -4.568  -3.873  -6.016  0.00  0.00    +0.002 C 
ATOM     20  C   UNL     1      -3.982  -3.655  -4.620  0.00  0.00    +0.022 C 
ENDBRANCH  13  15
ENDBRANCH   1  11
BRANCH   1  21
ATOM     21  N   UNL     1      -5.782  -2.318   1.017  0.00  0.00    -0.254 N 
ATOM     22  C   UNL     1      -6.368  -1.133   0.755  0.00  0.00    +0.221 C 
ATOM     23  O   UNL     1      -6.032  -0.493  -0.219  0.00  0.00    -0.275 OA
BRANCH  21  24
ATOM     24  C   UNL     1      -6.170  -3.057   2.141  0.00  0.00    +0.056 A 
ATOM     25  C   UNL     1      -5.489  -2.905   3.342  0.00  0.00    +0.025 A 
ATOM     26  C   UNL     1      -5.873  -3.635   4.449  0.00  0.00    +0.002 A 
ATOM     27  C   UNL     1      -6.935  -4.517   4.364  0.00  0.00    +0.002 A 
ATOM     28  C   UNL     1      -7.615  -4.672   3.170  0.00  0.00    +0.022 A 
ATOM     29  C   UNL     1      -7.239  -3.940   2.060  0.00  0.00    +0.062 A 
ATOM     30 CL   UNL     1      -8.098  -4.129   0.563  0.00  0.00    -0.082 Cl
ENDBRANCH  21  24
BRANCH  22  31
ATOM     31  C   UNL     1      -7.439  -0.603   1.673  0.00  0.00    +0.096 C 
BRANCH  31  32
ATOM     32  C   UNL     1      -7.933   0.749   1.153  0.00  0.00    +0.013 C 
BRANCH  32  33
ATOM     33  C   UNL     1      -9.021   1.287   2.084  0.00  0.00    -0.011 C 
ATOM     34  C   UNL     1      -8.416   1.579   3.459  0.00  0.00    +0.003 C 
ATOM     35  C   UNL     1      -9.504   2.118   4.391  0.00  0.00    +0.000 C 
ATOM     36  C   UNL     1     -10.085   3.406   3.805  0.00  0.00    +0.000 C 
ATOM     37  C   UNL     1     -10.689   3.114   2.431  0.00  0.00    +0.000 C 
ATOM     38  C   UNL     1      -9.602   2.576   1.499  0.00  0.00    +0.003 C 
ENDBRANCH  32  33
ENDBRANCH  31  32
ENDBRANCH  22  31
ENDBRANCH   1  21
TORSDOF 9
