REMARK  Name = ZINC16030095
REMARK  13 active torsions:
REMARK  status: ('A' for Active; 'I' for Inactive)
REMARK    1  A    between atoms: C_1  and  C_2
REMARK    2  A    between atoms: C_4  and  C_43
REMARK    3  A    between atoms: C_14  and  O_28
REMARK    4  A    between atoms: C_15  and  C_19
REMARK    5  A    between atoms: C_19  and  C_20
REMARK    6  A    between atoms: C_20  and  C_22
REMARK    7  A    between atoms: C_20  and  C_23
REMARK    8  A    between atoms: C_23  and  N_24
REMARK    9  A    between atoms: C_25  and  C_27
REMARK   10  A    between atoms: C_32  and  C_42
REMARK   11  A    between atoms: C_35  and  O_38
REMARK   12  A    between atoms: O_38  and  C_39
REMARK   13  A    between atoms: C_39  and  C_41
REMARK                            x       y       z     vdW  Elec       q    Type
REMARK                         _______ _______ _______ _____ _____    ______ ____
ROOT
ATOM      1  C   UNL     1       8.089  -2.251  -0.013  0.00  0.00    +0.047 C 
ATOM      2  C   UNL     1       7.966  -0.914  -0.695  0.00  0.00    -0.005 C 
ATOM      3  C   UNL     1       7.057  -0.628  -1.607  0.00  0.00    -0.025 C 
ATOM      4  C   UNL     1       5.800  -0.954  -2.376  0.00  0.00    -0.005 C 
ATOM      5  C   UNL     1       4.897  -1.982  -1.733  0.00  0.00    +0.011 C 
ATOM      6  C   UNL     1       3.482  -1.950  -2.295  0.00  0.00    +0.005 C 
ATOM      7  C   UNL     1       2.863  -0.577  -2.506  0.00  0.00    +0.003 C 
ATOM      8  C   UNL     1       3.857   0.388  -3.154  0.00  0.00    +0.001 C 
ATOM      9  C   UNL     1       5.101   0.433  -2.314  0.00  0.00    +0.006 C 
ATOM     10  C   UNL     1       6.220   1.385  -2.756  0.00  0.00    +0.044 C 
ATOM     11  C   UNL     1       7.504   0.684  -2.285  0.00  0.00    +0.098 C 
ATOM     12  C   UNL     1       8.210   1.414  -1.133  0.00  0.00    +0.096 C 
ATOM     13  C   UNL     1       8.850   0.224  -0.421  0.00  0.00    +0.165 C 
ATOM     14  O   UNL     1       9.861   0.227   0.244  0.00  0.00    -0.292 OA
ATOM     15  C   UNL     1       3.235   1.763  -3.363  0.00  0.00    +0.031 C 
ATOM     16  C   UNL     1       2.613   2.260  -2.094  0.00  0.00    -0.027 C 
ATOM     17  C   UNL     1       2.129   1.462  -1.193  0.00  0.00    -0.064 C 
ATOM     18  C   UNL     1       2.178  -0.037  -1.272  0.00  0.00    -0.008 C 
ATOM     19  C   UNL     1       0.728  -0.549  -1.223  0.00  0.00    +0.015 C 
ATOM     20  C   UNL     1       0.002  -0.004   0.002  0.00  0.00    +0.046 C 
ATOM     21  C   UNL     1      -0.019   1.522   0.010  0.00  0.00    +0.180 C 
ATOM     22  C   UNL     1       1.411   2.074  -0.000  0.00  0.00    +0.075 C 
ATOM     23  C   UNL     1       2.870  -0.538  -0.006  0.00  0.00    +0.016 C 
ATOM     24  C   UNL     1       6.156  -1.375  -3.800  0.00  0.00    +0.016 C 
ENDROOT
BRANCH  11  25
ATOM     25  O   UNL     1       8.411   0.451  -3.363  0.00  0.00    -0.384 OA
ATOM     26  H   UNL     1       8.709   1.256  -3.808  0.00  0.00    +0.211 HD
ENDBRANCH  11  25
BRANCH  12  27
ATOM     27  C   UNL     1       9.275   2.376  -1.660  0.00  0.00    +0.019 C 
BRANCH  27  28
ATOM     28  C   UNL     1      10.007   3.021  -0.481  0.00  0.00    +0.004 C 
ATOM     29  C   UNL     1       9.031   3.892   0.311  0.00  0.00    +0.009 C 
BRANCH  28  30
ATOM     30  C   UNL     1      11.154   3.887  -1.006  0.00  0.00    +0.107 C 
BRANCH  30  31
ATOM     31  N   UNL     1      11.928   4.408   0.123  0.00  0.00    -0.315 N 
ATOM     32  C   UNL     1      12.994   5.202  -0.100  0.00  0.00    +0.210 C 
ATOM     33  O   UNL     1      13.312   5.486  -1.236  0.00  0.00    -0.276 OA
ATOM     34  C   UNL     1      13.791   5.739   1.061  0.00  0.00    +0.109 C 
ATOM     35  H   UNL     1      11.674   4.182   1.031  0.00  0.00    +0.149 HD
ENDBRANCH  30  31
ENDBRANCH  28  30
ENDBRANCH  27  28
ENDBRANCH  12  27
BRANCH  21  36
ATOM     36  O   UNL     1      -0.732   2.008  -1.158  0.00  0.00    -0.461 OA
BRANCH  36  37
ATOM     37  C   UNL     1      -1.376   3.179  -1.035  0.00  0.00    +0.304 C 
ATOM     38  O   UNL     1      -1.345   3.779   0.013  0.00  0.00    -0.251 OA
ATOM     39  C   UNL     1      -2.138   3.746  -2.206  0.00  0.00    +0.136 C 
ENDBRANCH  36  37
ENDBRANCH  21  36
TORSDOF 7
