REMARK  Name = ZINC09221247
REMARK  5 active torsions:
REMARK  status: ('A' for Active; 'I' for Inactive)
REMARK    1  A    between atoms: C_3  and  C_7
REMARK    2  A    between atoms: C_7  and  N_61
REMARK    3  A    between atoms: C_15  and  C_28
REMARK    4  A    between atoms: C_20  and  C_22
REMARK    5  A    between atoms: C_22  and  N_63
REMARK                            x       y       z     vdW  Elec       q    Type
REMARK                         _______ _______ _______ _____ _____    ______ ____
ROOT
ATOM      1  C   UNL     1      -5.404   4.785   0.070  0.00  0.00    -0.059 C 
ATOM      2  C   UNL     1      -3.920   5.161   0.057  0.00  0.00    +0.088 C 
ATOM      3  N   UNL     1      -3.139   4.045  -0.493  0.00  0.00    -0.318 N 
ATOM      4  C   UNL     1      -3.573   3.726  -1.861  0.00  0.00    +0.088 C 
ATOM      5  C   UNL     1      -5.057   3.350  -1.848  0.00  0.00    -0.059 C 
ATOM      6  C   UNL     1      -1.784   4.321  -0.455  0.00  0.00    +0.133 A 
ATOM      7  C   UNL     1      -0.882   3.410   0.156  0.00  0.00    +0.056 A 
ATOM      8  C   UNL     1      -1.148   2.126   0.799  0.00  0.00    +0.008 A 
ATOM      9  C   UNL     1      -0.107   1.431   1.319  0.00  0.00    +0.057 A 
ATOM     10  S   UNL     1       1.302   2.461   0.961  0.00  0.00    -0.076 S 
ATOM     11  C   UNL     1       0.474   3.795   0.136  0.00  0.00    +0.114 A 
ATOM     12  N   UNL     1       0.858   4.929  -0.417  0.00  0.00    -0.227 NA
ATOM     13  C   UNL     1      -0.026   5.735  -0.970  0.00  0.00    +0.116 A 
ATOM     14  N   UNL     1      -1.313   5.437  -0.987  0.00  0.00    -0.219 NA
ATOM     15  N   UNL     1      -5.832   4.489  -1.313  0.00  0.00    +0.384 N 
ATOM     16  H   UNL     1      -5.661   5.314  -1.899  0.00  0.00    -0.081 HD
ENDROOT
BRANCH   8  17
ATOM     17  C   UNL     1      -2.525   1.597   0.884  0.00  0.00    +0.021 A 
ATOM     18  C   UNL     1      -3.018   0.397   0.445  0.00  0.00    +0.016 A 
ATOM     19  C   UNL     1      -4.355   0.120   0.638  0.00  0.00    +0.008 A 
ATOM     20  C   UNL     1      -5.139   1.040   1.254  0.00  0.00    +0.046 A 
ATOM     21  S   UNL     1      -3.978   2.353   1.594  0.00  0.00    -0.097 S 
ENDBRANCH   8  17
BRANCH  15  22
ATOM     22  C   UNL     1      -7.277   4.173  -1.338  0.00  0.00    -0.041 C 
BRANCH  22  25
ATOM     23  C   UNL     1      -8.594   5.108  -4.748  0.00  0.00    +0.020 A 
ATOM     24  C   UNL     1      -8.190   5.227  -3.427  0.00  0.00    +0.005 A 
ATOM     25  C   UNL     1      -7.733   4.094  -2.772  0.00  0.00    -0.046 A 
ATOM     26  C   UNL     1      -7.706   2.889  -3.449  0.00  0.00    +0.112 A 
ATOM     27  N   UNL     1      -8.103   2.812  -4.704  0.00  0.00    -0.263 NA
ATOM     28  C   UNL     1      -8.538   3.870  -5.360  0.00  0.00    +0.111 A 
ENDBRANCH  22  25
ENDBRANCH  15  22
BRANCH  13  29
ATOM     29  C   UNL     1       0.440   7.025  -1.595  0.00  0.00    -0.001 C 
BRANCH  29  35
ATOM     30  C   UNL     1      -0.948   8.395  -0.158  0.00  0.00    -0.050 C 
ATOM     31  C   UNL     1      -0.912   9.466   0.935  0.00  0.00    +0.141 C 
ATOM     32  O   UNL     1      -0.232  10.623   0.439  0.00  0.00    -0.383 OA
ATOM     33  C   UNL     1       1.109  10.364   0.015  0.00  0.00    +0.141 C 
ATOM     34  C   UNL     1       1.094   9.301  -1.087  0.00  0.00    -0.050 C 
ATOM     35  N   UNL     1       0.439   8.084  -0.562  0.00  0.00    +0.387 N 
ATOM     36  H   UNL     1       0.960   7.751   0.258  0.00  0.00    -0.081 HD
ENDBRANCH  29  35
ENDBRANCH  13  29
TORSDOF 5
