REMARK  Name = ZINC63730192
REMARK  11 active torsions:
REMARK  status: ('A' for Active; 'I' for Inactive)
REMARK    1  A    between atoms: C_1  and  C_2
REMARK    2  A    between atoms: C_6  and  C_38
REMARK    3  A    between atoms: C_7  and  N_8
REMARK    4  A    between atoms: C_9  and  C_11
REMARK    5  A    between atoms: C_11  and  S_12
REMARK    6  A    between atoms: S_12  and  C_13
REMARK    7  A    between atoms: C_16  and  C_26
REMARK    8  A    between atoms: N_18  and  C_19
REMARK    9  A    between atoms: C_19  and  C_20
REMARK   10  A    between atoms: C_29  and  C_37
REMARK   11  A    between atoms: C_30  and  C_36
REMARK                            x       y       z     vdW  Elec       q    Type
REMARK                         _______ _______ _______ _____ _____    ______ ____
ROOT
ATOM      1  C   UNL     1      -0.331   0.084   7.658  0.00  0.00    +0.176 C 
ATOM      2  N   UNL     1      -0.268   1.371   7.605  0.00  0.00    -0.162 NA
ATOM      3  N   UNL     1      -0.344   1.942   8.881  0.00  0.00    -0.242 N 
ATOM      4  C   UNL     1      -0.472   0.819   9.826  0.00  0.00    +0.208 C 
ATOM      5  N   UNL     1      -0.463  -0.373   8.961  0.00  0.00    -0.281 N 
ATOM      6  H   UNL     1      -0.318   2.887   9.099  0.00  0.00    +0.170 HD
ENDROOT
BRANCH   4   7
ATOM      7  C   UNL     1       0.693   0.798  10.782  0.00  0.00    -0.008 C 
ATOM      8  C   UNL     1       0.472   0.876  12.129  0.00  0.00    +0.013 C 
ATOM      9  C   UNL     1       1.624   0.788  12.930  0.00  0.00    -0.014 C 
ATOM     10  C   UNL     1       1.950   1.306  14.125  0.00  0.00    -0.024 C 
ATOM     11  C   UNL     1       3.339   1.152  14.339  0.00  0.00    +0.037 C 
ATOM     12  N   UNL     1       3.905   0.450  13.398  0.00  0.00    -0.276 NA
ATOM     13  C   UNL     1       2.859   0.023  12.480  0.00  0.00    +0.159 C 
ATOM     14  C   UNL     1       3.098   0.358  11.039  0.00  0.00    +0.004 C 
ATOM     15  C   UNL     1       2.055   0.687  10.270  0.00  0.00    +0.005 C 
ATOM     16  C   UNL     1       4.078   1.731  15.518  0.00  0.00    +0.065 C 
ATOM     17  C   UNL     1       0.987   1.952  15.088  0.00  0.00    +0.046 C 
ENDBRANCH   4   7
BRANCH   1  18
ATOM     18  S   UNL     1      -0.266  -0.967   6.246  0.00  0.00    -0.080 S 
BRANCH  18  19
ATOM     19  C   UNL     1      -0.092   0.181   4.852  0.00  0.00    +0.173 C 
BRANCH  19  21
ATOM     20  N   UNL     1       0.107   0.050   2.390  0.00  0.00    -0.284 N 
ATOM     21  C   UNL     1      -0.024  -0.598   3.564  0.00  0.00    +0.227 C 
ATOM     22  O   UNL     1      -0.086  -1.810   3.585  0.00  0.00    -0.275 OA
ATOM     23  H   UNL     1       0.223   1.013   2.378  0.00  0.00    +0.155 HD
BRANCH  20  30
ATOM     24  C   UNL     1       2.558  -0.356   1.002  0.00  0.00    +0.045 C 
ATOM     25  C   UNL     1       1.248  -0.887   0.479  0.00  0.00    -0.029 A 
ATOM     26  C   UNL     1       1.214  -1.599  -0.704  0.00  0.00    +0.005 A 
ATOM     27  C   UNL     1       0.013  -2.087  -1.185  0.00  0.00    +0.001 A 
ATOM     28  C   UNL     1      -1.158  -1.863  -0.484  0.00  0.00    +0.005 A 
ATOM     29  C   UNL     1      -1.131  -1.152   0.700  0.00  0.00    -0.029 A 
ATOM     30  C   UNL     1       0.075  -0.666   1.188  0.00  0.00    +0.039 A 
ATOM     31  C   UNL     1      -2.407  -0.908   1.463  0.00  0.00    +0.045 C 
ENDBRANCH  20  30
ENDBRANCH  19  21
ENDBRANCH  18  19
ENDBRANCH   1  18
BRANCH   5  32
ATOM     32  C   UNL     1      -0.569  -1.769   9.393  0.00  0.00    +0.144 C 
BRANCH  32  33
ATOM     33  C   UNL     1       0.809  -2.318   9.660  0.00  0.00    -0.030 A 
ATOM     34  C   UNL     1       1.521  -2.924   8.641  0.00  0.00    +0.005 A 
ATOM     35  C   UNL     1       2.785  -3.428   8.886  0.00  0.00    +0.000 A 
ATOM     36  C   UNL     1       3.337  -3.326  10.149  0.00  0.00    +0.000 A 
ATOM     37  C   UNL     1       2.626  -2.719  11.167  0.00  0.00    +0.000 A 
ATOM     38  C   UNL     1       1.363  -2.212  10.922  0.00  0.00    +0.005 A 
ENDBRANCH  32  33
ENDBRANCH   5  32
TORSDOF 7
