REMARK  Name = ZINC20086844
REMARK  9 active torsions:
REMARK  status: ('A' for Active; 'I' for Inactive)
REMARK    1  A    between atoms: C_1  and  N_2
REMARK    2  A    between atoms: C_6  and  N_32
REMARK    3  A    between atoms: C_13  and  C_21
REMARK    4  A    between atoms: C_15  and  C_19
REMARK    5  A    between atoms: C_16  and  N_18
REMARK    6  A    between atoms: C_23  and  O_30
REMARK    7  A    between atoms: C_24  and  O_28
REMARK    8  A    between atoms: O_28  and  C_29
REMARK    9  A    between atoms: O_30  and  C_31
REMARK                            x       y       z     vdW  Elec       q    Type
REMARK                         _______ _______ _______ _____ _____    ______ ____
ROOT
ATOM      1  C   UNL     1      -3.314   0.693  -4.844  0.00  0.00    +0.152 C 
ATOM      2  N   UNL     1      -2.979   0.013  -3.591  0.00  0.00    -0.311 N 
ATOM      3  C   UNL     1      -2.748  -1.347  -3.598  0.00  0.00    +0.055 A 
ATOM      4  C   UNL     1      -2.824  -2.081  -4.777  0.00  0.00    +0.029 A 
ATOM      5  C   UNL     1      -2.587  -3.439  -4.754  0.00  0.00    +0.035 A 
ATOM      6  C   UNL     1      -2.273  -4.082  -3.565  0.00  0.00    +0.127 A 
ATOM      7  C   UNL     1      -2.192  -3.380  -2.395  0.00  0.00    +0.046 A 
ATOM      8  C   UNL     1      -2.429  -2.003  -2.397  0.00  0.00    +0.043 A 
ATOM      9  C   UNL     1      -2.349  -1.216  -1.157  0.00  0.00    +0.148 A 
ATOM     10  C   UNL     1      -2.584   0.121  -1.219  0.00  0.00    +0.072 A 
ATOM     11  C   UNL     1      -2.902   0.724  -2.454  0.00  0.00    +0.259 A 
ATOM     12  O   UNL     1      -3.114   1.925  -2.491  0.00  0.00    -0.267 OA
ATOM     13  C   UNL     1      -2.512   0.975   0.019  0.00  0.00    +0.103 C 
ATOM     14  C   UNL     1      -2.573   0.110   1.247  0.00  0.00    +0.098 C 
ATOM     15  C   UNL     1      -2.340  -1.223   1.175  0.00  0.00    +0.199 C 
ATOM     16  O   UNL     1      -2.047  -1.823   0.007  0.00  0.00    -0.440 OA
ENDROOT
BRANCH  13  17
ATOM     17  C   UNL     1      -1.220   1.749   0.017  0.00  0.00    -0.030 A 
ATOM     18  C   UNL     1      -1.244   3.132   0.031  0.00  0.00    +0.054 A 
ATOM     19  C   UNL     1      -0.056   3.845   0.023  0.00  0.00    +0.163 A 
ATOM     20  C   UNL     1       1.159   3.168   0.008  0.00  0.00    +0.175 A 
ATOM     21  C   UNL     1       1.177   1.782   0.000  0.00  0.00    +0.063 A 
ATOM     22  C   UNL     1      -0.013   1.076   0.008  0.00  0.00    +0.023 A 
ATOM     23 BR   UNL     1       2.826   0.858  -0.021  0.00  0.00    -0.046 Br
BRANCH  20  24
ATOM     24  O   UNL     1       2.328   3.865   0.000  0.00  0.00    -0.490 OA
ATOM     25  C   UNL     1       2.872   4.204  -1.277  0.00  0.00    +0.277 C 
ENDBRANCH  20  24
BRANCH  19  26
ATOM     26  O   UNL     1      -0.079   5.205   0.030  0.00  0.00    -0.491 OA
ATOM     27  C   UNL     1      -1.362   5.833   0.046  0.00  0.00    +0.277 C 
ENDBRANCH  19  26
ENDBRANCH  13  17
BRANCH  15  28
ATOM     28  N   UNL     1      -2.405  -1.978   2.319  0.00  0.00    -0.328 N 
ATOM     29  H   UNL     1      -2.219  -3.062   2.274  0.00  0.00    +0.145 HD
ATOM     30  H   UNL     1      -2.643  -1.500   3.280  0.00  0.00    +0.145 HD
ENDBRANCH  15  28
BRANCH   6  31
ATOM     31  N   UNL     1      -2.022  -5.541  -3.563  0.00  0.00    +0.056 N 
ATOM     32  O   UNL     1      -1.745  -6.110  -2.523  0.00  0.00    -0.126 OA
ATOM     33  O   UNL     1      -2.092  -6.171  -4.603  0.00  0.00    -0.126 OA
ENDBRANCH   6  31
BRANCH  14  34
ATOM     34  C   UNL     1      -2.881   0.703   2.513  0.00  0.00    +0.101 C 
ATOM     35  N   UNL     1      -3.125   1.174   3.518  0.00  0.00    -0.191 NA
ENDBRANCH  14  34
TORSDOF 6
