REMARK  Name = ZINC03417742
REMARK  10 active torsions:
REMARK  status: ('A' for Active; 'I' for Inactive)
REMARK    1  A    between atoms: C_1  and  C_2
REMARK    2  A    between atoms: C_2  and  C_4
REMARK    3  A    between atoms: C_2  and  O_33
REMARK    4  A    between atoms: C_4  and  C_6
REMARK    5  A    between atoms: C_4  and  N_22
REMARK    6  A    between atoms: C_6  and  O_8
REMARK    7  A    between atoms: O_8  and  C_9
REMARK    8  A    between atoms: C_9  and  C_10
REMARK    9  A    between atoms: N_22  and  S_23
REMARK   10  A    between atoms: S_23  and  C_26
REMARK                            x       y       z     vdW  Elec       q    Type
REMARK                         _______ _______ _______ _____ _____    ______ ____
ROOT
ATOM      1  C   UNL     1       1.302   1.545  -0.119  0.00  0.00    +0.213 C 
ENDROOT
BRANCH   1   3
ATOM      2  C   UNL     1       1.596  -0.028  -2.038  0.00  0.00    +0.040 C 
ATOM      3  C   UNL     1       1.770   1.418  -1.570  0.00  0.00    +0.141 C 
BRANCH   3   4
ATOM      4  O   UNL     1       3.149   1.785  -1.659  0.00  0.00    -0.390 OA
ATOM      5  H   UNL     1       3.322   2.714  -1.457  0.00  0.00    +0.210 HD
ENDBRANCH   3   4
ENDBRANCH   1   3
BRANCH   1   6
ATOM      6  C   UNL     1       2.152   0.666   0.762  0.00  0.00    +0.329 C 
ATOM      7  O   UNL     1       1.640  -0.219   1.406  0.00  0.00    -0.249 OA
BRANCH   6   8
ATOM      8  O   UNL     1       3.477   0.865   0.831  0.00  0.00    -0.459 OA
BRANCH   8   9
ATOM      9  C   UNL     1       4.233  -0.019   1.699  0.00  0.00    +0.268 C 
BRANCH   9  10
ATOM     10  C   UNL     1       5.692   0.353   1.648  0.00  0.00    +0.007 A 
ATOM     11  C   UNL     1       6.123   1.380   0.872  0.00  0.00    +0.099 A 
ATOM     12  C   UNL     1       7.496   1.709   0.842  0.00  0.00    +0.338 A 
ATOM     13  O   UNL     1       7.869   2.632   0.141  0.00  0.00    -0.245 OA
ATOM     14  O   UNL     1       8.399   1.030   1.566  0.00  0.00    -0.422 OA
ATOM     15  C   UNL     1       8.037  -0.001   2.358  0.00  0.00    +0.140 A 
ATOM     16  C   UNL     1       6.684  -0.380   2.441  0.00  0.00    +0.024 A 
ATOM     17  C   UNL     1       6.308  -1.451   3.256  0.00  0.00    +0.013 A 
ATOM     18  C   UNL     1       7.256  -2.119   3.978  0.00  0.00    +0.016 A 
ATOM     19  C   UNL     1       8.591  -1.746   3.904  0.00  0.00    +0.021 A 
ATOM     20  C   UNL     1       8.983  -0.694   3.101  0.00  0.00    +0.062 A 
ATOM     21 BR   UNL     1       9.884  -2.687   4.913  0.00  0.00    -0.050 Br
ENDBRANCH   9  10
ENDBRANCH   8   9
ENDBRANCH   6   8
ENDBRANCH   1   6
BRANCH   1  22
ATOM     22  N   UNL     1      -0.099   1.127  -0.020  0.00  0.00    -0.174 NA
ATOM     23  H   UNL     1      -0.320   0.186   0.057  0.00  0.00    +0.149 HD
BRANCH  22  24
ATOM     24  S   UNL     1      -1.305   2.262  -0.046  0.00  0.00    +0.059 S 
ATOM     25  O   UNL     1      -2.533   1.550   0.024  0.00  0.00    -0.153 OA
ATOM     26  O   UNL     1      -0.946   3.258   0.902  0.00  0.00    -0.153 OA
BRANCH  24  27
ATOM     27  C   UNL     1      -1.260   3.034  -1.629  0.00  0.00    +0.105 A 
ATOM     28  C   UNL     1      -0.484   4.160  -1.827  0.00  0.00    +0.030 A 
ATOM     29  C   UNL     1      -0.444   4.763  -3.070  0.00  0.00    +0.022 A 
ATOM     30  C   UNL     1      -1.189   4.245  -4.114  0.00  0.00    +0.041 A 
ATOM     31  C   UNL     1      -1.970   3.121  -3.914  0.00  0.00    +0.022 A 
ATOM     32  C   UNL     1      -2.005   2.515  -2.672  0.00  0.00    +0.030 A 
ATOM     33 CL   UNL     1      -1.145   5.005  -5.674  0.00  0.00    -0.084 Cl
ENDBRANCH  24  27
ENDBRANCH  22  24
ENDBRANCH   1  22
TORSDOF 9
