REMARK  Name = ZINC12372136
REMARK  13 active torsions:
REMARK  status: ('A' for Active; 'I' for Inactive)
REMARK    1  A    between atoms: C_1  and  C_2
REMARK    2  A    between atoms: C_3  and  C_28
REMARK    3  A    between atoms: C_4  and  O_27
REMARK    4  A    between atoms: C_5  and  C_7
REMARK    5  A    between atoms: C_7  and  C_8
REMARK    6  A    between atoms: C_7  and  C_16
REMARK    7  A    between atoms: C_17  and  O_26
REMARK    8  A    between atoms: C_18  and  C_22
REMARK    9  A    between atoms: C_19  and  C_21
REMARK   10  A    between atoms: C_22  and  O_24
REMARK   11  A    between atoms: O_24  and  C_25
REMARK   12  A    between atoms: C_28  and  O_30
REMARK   13  A    between atoms: O_30  and  C_31
REMARK                            x       y       z     vdW  Elec       q    Type
REMARK                         _______ _______ _______ _____ _____    ______ ____
ROOT
ATOM      1  C   UNL     1       1.230  -2.186  -0.021  0.00  0.00    +0.101 C 
ENDROOT
BRANCH   1   2
ATOM      2  C   UNL     1       1.210  -0.679  -0.013  0.00  0.00    -0.016 A 
ATOM      3  C   UNL     1       2.397   0.028  -0.021  0.00  0.00    +0.007 A 
ATOM      4  C   UNL     1       2.379   1.410  -0.014  0.00  0.00    +0.020 A 
ATOM      5  C   UNL     1       1.172   2.087   0.002  0.00  0.00    +0.042 A 
ATOM      6  C   UNL     1      -0.017   1.379   0.010  0.00  0.00    +0.040 A 
ATOM      7  C   UNL     1       0.002  -0.004   0.002  0.00  0.00    +0.046 A 
ATOM      8 CL   UNL     1      -1.489  -0.893   0.011  0.00  0.00    -0.083 Cl
ATOM      9 CL   UNL     1       1.149   3.822   0.011  0.00  0.00    -0.083 Cl
ENDBRANCH   1   2
BRANCH   1  14
ATOM     10  C   UNL     1       4.764  -3.414  -4.238  0.00  0.00    +0.052 C 
ATOM     11  C   UNL     1       3.629  -3.248  -3.261  0.00  0.00    +0.005 A 
ATOM     12  C   UNL     1       2.351  -3.769  -3.335  0.00  0.00    +0.110 A 
ATOM     13  C   UNL     1       1.452  -3.456  -2.249  0.00  0.00    +0.142 A 
ATOM     14  C   UNL     1       1.935  -2.672  -1.261  0.00  0.00    +0.045 A 
ATOM     15  S   UNL     1       3.611  -2.358  -1.776  0.00  0.00    -0.093 S 
BRANCH  13  16
ATOM     16  O   UNL     1       0.175  -3.926  -2.224  0.00  0.00    -0.505 OA
ATOM     17  H   UNL     1      -0.467  -3.344  -2.653  0.00  0.00    +0.292 HD
ENDBRANCH  13  16
BRANCH  12  18
ATOM     18  C   UNL     1       1.928  -4.609  -4.463  0.00  0.00    +0.343 C 
ATOM     19  O   UNL     1       2.073  -5.815  -4.412  0.00  0.00    -0.245 OA
BRANCH  18  20
ATOM     20  O   UNL     1       1.379  -4.043  -5.557  0.00  0.00    -0.464 OA
ATOM     21  C   UNL     1       0.985  -4.933  -6.633  0.00  0.00    +0.280 C 
ENDBRANCH  18  20
ENDBRANCH  12  18
ENDBRANCH   1  14
BRANCH   1  22
ATOM     22  C   UNL     1       1.959  -2.685   1.200  0.00  0.00    +0.045 A 
ATOM     23  C   UNL     1       1.492  -3.471   2.193  0.00  0.00    +0.142 A 
ATOM     24  C   UNL     1       2.414  -3.805   3.252  0.00  0.00    +0.110 A 
ATOM     25  C   UNL     1       3.690  -3.283   3.160  0.00  0.00    +0.005 A 
ATOM     26  S   UNL     1       3.644  -2.375   1.686  0.00  0.00    -0.093 S 
ATOM     27  C   UNL     1       4.844  -3.460   4.114  0.00  0.00    +0.052 C 
BRANCH  24  28
ATOM     28  C   UNL     1       2.013  -4.658   4.379  0.00  0.00    +0.343 C 
ATOM     29  O   UNL     1       1.536  -4.159   5.380  0.00  0.00    -0.245 OA
BRANCH  28  30
ATOM     30  O   UNL     1       2.174  -5.994   4.304  0.00  0.00    -0.464 OA
ATOM     31  C   UNL     1       1.756  -6.775   5.455  0.00  0.00    +0.280 C 
ENDBRANCH  28  30
ENDBRANCH  24  28
BRANCH  23  32
ATOM     32  O   UNL     1       0.210  -3.930   2.194  0.00  0.00    -0.505 OA
ATOM     33  H   UNL     1       0.097  -4.781   1.748  0.00  0.00    +0.292 HD
ENDBRANCH  23  32
ENDBRANCH   1  22
TORSDOF 9
