REMARK  Name = ZINC64110562
REMARK  7 active torsions:
REMARK  status: ('A' for Active; 'I' for Inactive)
REMARK    1  A    between atoms: C_1  and  C_2
REMARK    2  A    between atoms: C_9  and  C_11
REMARK    3  A    between atoms: N_19  and  C_20
REMARK    4  A    between atoms: C_21  and  C_26
REMARK    5  A    between atoms: C_22  and  C_25
REMARK    6  A    between atoms: C_26  and  O_28
REMARK    7  A    between atoms: O_28  and  C_29
REMARK                            x       y       z     vdW  Elec       q    Type
REMARK                         _______ _______ _______ _____ _____    ______ ____
ROOT
ATOM      1  C   UNL     1      -0.057   0.892   3.308  0.00  0.00    -0.043 C 
ATOM      2  C   UNL     1      -0.286   1.886   2.458  0.00  0.00    -0.004 C 
ATOM      3  C   UNL     1      -0.307   3.332   2.868  0.00  0.00    +0.137 C 
ATOM      4  N   UNL     1      -0.308   3.417   4.336  0.00  0.00    -0.281 N 
ATOM      5  C   UNL     1       0.606   2.523   5.067  0.00  0.00    +0.114 C 
ATOM      6  C   UNL     1       0.185   1.079   4.777  0.00  0.00    +0.054 C 
ATOM      7  C   UNL     1      -1.113   4.279   4.987  0.00  0.00    +0.307 C 
ATOM      8  O   UNL     1      -1.035   4.390   6.195  0.00  0.00    -0.252 OA
ATOM      9  N   UNL     1      -2.006   5.018   4.298  0.00  0.00    -0.262 N 
ATOM     10  H   UNL     1      -2.012   4.992   3.329  0.00  0.00    +0.157 HD
ENDROOT
BRANCH   1  19
ATOM     11  C   UNL     1       2.956   0.343   3.188  0.00  0.00    +0.044 C 
ATOM     12  C   UNL     1       2.455  -0.978   2.661  0.00  0.00    -0.041 A 
ATOM     13  C   UNL     1       3.335  -1.949   2.312  0.00  0.00    +0.004 A 
ATOM     14  C   UNL     1       2.905  -3.186   1.820  0.00  0.00    +0.002 A 
ATOM     15  C   UNL     1       1.592  -3.478   1.666  0.00  0.00    +0.026 A 
ATOM     16  C   UNL     1       0.609  -2.511   2.010  0.00  0.00    +0.043 A 
ATOM     17  N   UNL     1      -0.705  -2.548   1.955  0.00  0.00    -0.380 N 
ATOM     18  C   UNL     1      -1.244  -1.271   2.433  0.00  0.00    +0.149 C 
ATOM     19  C   UNL     1      -0.046  -0.423   2.799  0.00  0.00    -0.016 C 
ATOM     20  C   UNL     1       1.066  -1.211   2.534  0.00  0.00    +0.006 A 
ATOM     21  H   UNL     1      -1.233  -3.301   1.647  0.00  0.00    +0.160 HD
ENDBRANCH   1  19
BRANCH   9  22
ATOM     22  C   UNL     1      -2.913   5.816   4.975  0.00  0.00    +0.107 A 
ATOM     23  C   UNL     1      -3.909   6.642   4.449  0.00  0.00    +0.110 A 
ATOM     24  C   UNL     1      -4.661   7.318   5.411  0.00  0.00    +0.063 A 
ATOM     25  N   UNL     1      -4.361   7.112   6.661  0.00  0.00    -0.213 NA
ATOM     26  S   UNL     1      -3.092   6.024   6.630  0.00  0.00    +0.028 S 
ATOM     27  C   UNL     1      -5.777   8.252   5.018  0.00  0.00    +0.067 C 
BRANCH  23  28
ATOM     28  C   UNL     1      -4.145   6.786   3.009  0.00  0.00    +0.343 C 
ATOM     29  O   UNL     1      -4.924   6.043   2.443  0.00  0.00    -0.245 OA
BRANCH  28  30
ATOM     30  O   UNL     1      -3.498   7.742   2.312  0.00  0.00    -0.464 OA
ATOM     31  C   UNL     1      -3.775   7.825   0.913  0.00  0.00    +0.280 C 
ENDBRANCH  28  30
ENDBRANCH  23  28
ENDBRANCH   9  22
TORSDOF 4
