REMARK  Name = ZINC63885175
REMARK  5 active torsions:
REMARK  status: ('A' for Active; 'I' for Inactive)
REMARK    1  A    between atoms: C_1  and  C_2
REMARK    2  A    between atoms: C_8  and  C_12
REMARK    3  A    between atoms: C_22  and  C_24
REMARK    4  A    between atoms: N_26  and  C_30
REMARK    5  A    between atoms: C_28  and  C_29
REMARK                            x       y       z     vdW  Elec       q    Type
REMARK                         _______ _______ _______ _____ _____    ______ ____
ROOT
ATOM      1  C   UNL     1      -0.965  -1.382   3.987  0.00  0.00    +0.119 C 
ATOM      2  C   UNL     1      -1.000  -2.572   4.969  0.00  0.00    +0.028 C 
ATOM      3  C   UNL     1      -1.631  -1.952   6.244  0.00  0.00    +0.021 C 
ATOM      4  C   UNL     1      -1.041  -0.520   6.218  0.00  0.00    +0.108 C 
ATOM      5  N   UNL     1      -1.009  -0.149   4.788  0.00  0.00    -0.293 N 
ATOM      6  C   UNL     1      -1.017   1.140   4.285  0.00  0.00    +0.219 A 
ATOM      7  N   UNL     1      -1.098   1.321   2.975  0.00  0.00    -0.223 NA
ATOM      8  C   UNL     1      -1.109   2.538   2.454  0.00  0.00    +0.116 A 
ATOM      9  C   UNL     1      -1.035   3.634   3.294  0.00  0.00    +0.048 A 
ATOM     10  C   UNL     1      -0.950   3.413   4.672  0.00  0.00    +0.079 A 
ATOM     11  N   UNL     1      -0.949   2.160   5.125  0.00  0.00    -0.214 NA
ENDROOT
BRANCH   1  19
ATOM     12  C   UNL     1       1.399  -5.447   1.345  0.00  0.00    +0.046 C 
ATOM     13  C   UNL     1       2.056  -4.598   2.402  0.00  0.00    -0.025 A 
ATOM     14  C   UNL     1       3.192  -5.012   2.997  0.00  0.00    +0.005 A 
ATOM     15  C   UNL     1       3.847  -4.260   3.988  0.00  0.00    +0.002 A 
ATOM     16  C   UNL     1       3.387  -3.069   4.420  0.00  0.00    +0.027 A 
ATOM     17  C   UNL     1       2.154  -2.516   3.842  0.00  0.00    +0.060 A 
ATOM     18  N   UNL     1       1.491  -1.417   4.059  0.00  0.00    -0.362 N 
ATOM     19  C   UNL     1       0.325  -1.423   3.166  0.00  0.00    +0.195 C 
ATOM     20  N   UNL     1       0.397  -2.673   2.400  0.00  0.00    -0.362 N 
ATOM     21  C   UNL     1       1.464  -3.309   2.788  0.00  0.00    +0.063 A 
ATOM     22  H   UNL     1      -0.234  -2.970   1.726  0.00  0.00    +0.162 HD
ATOM     23  H   UNL     1       1.725  -0.721   4.693  0.00  0.00    +0.162 HD
ENDBRANCH   1  19
BRANCH  10  24
ATOM     24  C   UNL     1      -0.868   4.554   5.614  0.00  0.00    +0.041 A 
ATOM     25  C   UNL     1      -0.763   5.874   5.277  0.00  0.00    +0.118 A 
ATOM     26  N   UNL     1      -0.716   6.583   6.420  0.00  0.00    -0.274 N 
ATOM     27  N   UNL     1      -0.792   5.690   7.495  0.00  0.00    -0.176 NA
ATOM     28  C   UNL     1      -0.889   4.476   7.021  0.00  0.00    +0.069 A 
ATOM     29  C   UNL     1      -1.000   3.214   7.837  0.00  0.00    +0.068 C 
ATOM     30  C   UNL     1      -0.604   8.040   6.522  0.00  0.00    +0.172 C 
ENDBRANCH  10  24
TORSDOF 2
