REMARK  Name = ZINC27841589
REMARK  8 active torsions:
REMARK  status: ('A' for Active; 'I' for Inactive)
REMARK    1  A    between atoms: C_1  and  C_2
REMARK    2  A    between atoms: C_2  and  N_3
REMARK    3  A    between atoms: C_12  and  S_13
REMARK    4  A    between atoms: S_13  and  C_14
REMARK    5  A    between atoms: C_14  and  C_16
REMARK    6  A    between atoms: C_14  and  C_17
REMARK    7  A    between atoms: N_19  and  C_20
REMARK    8  A    between atoms: C_25  and  N_26
REMARK                            x       y       z     vdW  Elec       q    Type
REMARK                         _______ _______ _______ _____ _____    ______ ____
ROOT
ATOM      1  C   UNL     1       1.274   1.996   0.038  0.00  0.00    +0.137 C 
ATOM      2  C   UNL     1       1.648   2.341   1.481  0.00  0.00    +0.029 C 
ENDROOT
BRANCH   1   3
ATOM      3  C   UNL     1      -0.018   1.220   0.026  0.00  0.00    +0.230 C 
ATOM      4  O   UNL     1       0.003   0.007   0.005  0.00  0.00    -0.274 OA
ATOM      5  N   UNL     1      -1.196   1.874   0.033  0.00  0.00    -0.283 N 
ATOM      6  H   UNL     1      -1.217   2.970   0.125  0.00  0.00    +0.155 HD
BRANCH   5   7
ATOM      7  C   UNL     1      -2.394   1.159  -0.079  0.00  0.00    +0.064 A 
ATOM      8  C   UNL     1      -2.513  -0.095   0.506  0.00  0.00    +0.027 A 
ATOM      9  C   UNL     1      -3.696  -0.799   0.396  0.00  0.00    +0.022 A 
ATOM     10  C   UNL     1      -4.763  -0.255  -0.297  0.00  0.00    +0.043 A 
ATOM     11  C   UNL     1      -4.648   0.994  -0.881  0.00  0.00    +0.054 A 
ATOM     12  C   UNL     1      -3.468   1.704  -0.769  0.00  0.00    +0.149 A 
ATOM     13 CL   UNL     1      -6.249  -1.142  -0.435  0.00  0.00    -0.083 Cl
BRANCH  12  14
ATOM     14  N   UNL     1      -3.348   3.042  -1.389  0.00  0.00    +0.058 N 
ATOM     15  O   UNL     1      -4.318   3.563  -1.909  0.00  0.00    -0.126 OA
ATOM     16  O   UNL     1      -2.277   3.624  -1.379  0.00  0.00    -0.126 OA
ENDBRANCH  12  14
ENDBRANCH   5   7
ENDBRANCH   1   3
BRANCH   1  17
ATOM     17  S   UNL     1       2.587   0.992  -0.702  0.00  0.00    -0.075 S 
BRANCH  17  27
ATOM     18  N   UNL     1       5.118   1.780  -1.195  0.00  0.00    -0.287 N 
ATOM     19  C   UNL     1       6.140   2.669  -1.199  0.00  0.00    +0.269 A 
ATOM     20  O   UNL     1       7.237   2.360  -1.636  0.00  0.00    -0.266 OA
ATOM     21  C   UNL     1       5.907   3.945  -0.692  0.00  0.00    +0.102 A 
ATOM     22  C   UNL     1       4.649   4.317  -0.185  0.00  0.00    +0.086 A 
ATOM     23  C   UNL     1       4.556   5.632   0.293  0.00  0.00    +0.036 A 
ATOM     24  C   UNL     1       5.631   6.448   0.248  0.00  0.00    +0.048 A 
ATOM     25  S   UNL     1       6.884   5.410  -0.486  0.00  0.00    -0.090 S 
ATOM     26  N   UNL     1       3.676   3.358  -0.226  0.00  0.00    -0.222 NA
ATOM     27  C   UNL     1       3.905   2.162  -0.698  0.00  0.00    +0.173 A 
BRANCH  18  29
ATOM     28  C   UNL     1       4.983   0.402  -3.211  0.00  0.00    +0.027 C 
ATOM     29  C   UNL     1       5.312   0.425  -1.717  0.00  0.00    +0.124 C 
ENDBRANCH  18  29
ENDBRANCH  17  27
ENDBRANCH   1  17
TORSDOF 6
