REMARK  Name = ZINC18198599
REMARK  11 active torsions:
REMARK  status: ('A' for Active; 'I' for Inactive)
REMARK    1  A    between atoms: C_1  and  C_2
REMARK    2  A    between atoms: C_3  and  C_14
REMARK    3  A    between atoms: C_4  and  O_13
REMARK    4  A    between atoms: N_5  and  C_7
REMARK    5  A    between atoms: C_14  and  C_16
REMARK    6  A    between atoms: C_14  and  C_23
REMARK    7  A    between atoms: C_23  and  C_25
REMARK    8  A    between atoms: C_23  and  N_33
REMARK    9  A    between atoms: C_25  and  C_27
REMARK   10  A    between atoms: N_33  and  S_34
REMARK   11  A    between atoms: S_34  and  C_37
REMARK                            x       y       z     vdW  Elec       q    Type
REMARK                         _______ _______ _______ _____ _____    ______ ____
ROOT
ATOM      1  C   UNL     1       1.265  -0.501   0.709  0.00  0.00    +0.082 C 
ENDROOT
BRANCH   1   2
ATOM      2  C   UNL     1       2.343   0.281   0.003  0.00  0.00    -0.038 A 
ATOM      3  C   UNL     1       2.604   0.046  -1.334  0.00  0.00    +0.006 A 
ATOM      4  C   UNL     1       3.589   0.767  -1.982  0.00  0.00    +0.020 A 
ATOM      5  C   UNL     1       4.320   1.717  -1.291  0.00  0.00    +0.041 A 
ATOM      6  C   UNL     1       4.062   1.947   0.049  0.00  0.00    +0.020 A 
ATOM      7  C   UNL     1       3.073   1.230   0.695  0.00  0.00    +0.006 A 
ATOM      8 CL   UNL     1       5.562   2.617  -2.103  0.00  0.00    -0.084 Cl
ENDBRANCH   1   2
BRANCH   1  11
ATOM      9  C   UNL     1       1.704  -2.648   2.994  0.00  0.00    +0.068 C 
ATOM     10  C   UNL     1       1.520  -1.166   3.198  0.00  0.00    +0.068 A 
ATOM     11  C   UNL     1       1.326  -0.220   2.188  0.00  0.00    +0.046 A 
ATOM     12  C   UNL     1       1.209   1.001   2.776  0.00  0.00    +0.220 A 
ATOM     13  N   UNL     1       1.318   0.819   4.119  0.00  0.00    -0.200 N 
ATOM     14  N   UNL     1       1.515  -0.548   4.352  0.00  0.00    -0.168 NA
BRANCH  13  15
ATOM     15  C   UNL     1       1.251   1.822   5.096  0.00  0.00    +0.069 A 
ATOM     16  C   UNL     1       1.768   3.084   4.834  0.00  0.00    +0.028 A 
ATOM     17  C   UNL     1       1.696   4.072   5.797  0.00  0.00    +0.002 A 
ATOM     18  C   UNL     1       1.119   3.802   7.025  0.00  0.00    +0.000 A 
ATOM     19  C   UNL     1       0.608   2.544   7.290  0.00  0.00    +0.002 A 
ATOM     20  C   UNL     1       0.673   1.554   6.330  0.00  0.00    +0.028 A 
ENDBRANCH  13  15
BRANCH  12  21
ATOM     21  O   UNL     1       1.016   2.184   2.138  0.00  0.00    -0.492 OA
ATOM     22  H   UNL     1       0.086   2.415   2.011  0.00  0.00    +0.294 HD
ENDBRANCH  12  21
ENDBRANCH   1  11
BRANCH   1  23
ATOM     23  C   UNL     1      -0.104  -0.085   0.167  0.00  0.00    +0.159 C 
BRANCH  23  24
ATOM     24  C   UNL     1      -0.227  -0.516  -1.272  0.00  0.00    +0.182 C 
ATOM     25  O   UNL     1      -0.049   0.287  -2.163  0.00  0.00    -0.290 OA
BRANCH  24  26
ATOM     26  C   UNL     1      -0.563  -1.912  -1.596  0.00  0.00    +0.019 A 
ATOM     27  C   UNL     1      -0.764  -2.843  -0.572  0.00  0.00    +0.011 A 
ATOM     28  C   UNL     1      -1.082  -4.147  -0.884  0.00  0.00    +0.001 A 
ATOM     29  C   UNL     1      -1.194  -4.539  -2.206  0.00  0.00    +0.000 A 
ATOM     30  C   UNL     1      -0.993  -3.625  -3.226  0.00  0.00    +0.001 A 
ATOM     31  C   UNL     1      -0.678  -2.316  -2.930  0.00  0.00    +0.011 A 
ENDBRANCH  24  26
ENDBRANCH  23  24
BRANCH  23  32
ATOM     32  N   UNL     1      -0.243   1.370   0.254  0.00  0.00    -0.183 NA
ATOM     33  H   UNL     1       0.534   1.939   0.138  0.00  0.00    +0.148 HD
BRANCH  32  34
ATOM     34  S   UNL     1      -1.727   2.045   0.545  0.00  0.00    +0.027 S 
ATOM     35  O   UNL     1      -1.495   3.447   0.540  0.00  0.00    -0.158 OA
ATOM     36  O   UNL     1      -2.590   1.450  -0.414  0.00  0.00    -0.158 OA
ATOM     37  C   UNL     1      -2.171   1.492   2.215  0.00  0.00    +0.214 C 
ENDBRANCH  32  34
ENDBRANCH  23  32
ENDBRANCH   1  23
TORSDOF 9
