REMARK  Name = ZINC01167079
REMARK  8 active torsions:
REMARK  status: ('A' for Active; 'I' for Inactive)
REMARK    1  A    between atoms: C_1  and  C_2
REMARK    2  A    between atoms: C_2  and  O_3
REMARK    3  A    between atoms: O_3  and  C_4
REMARK    4  A    between atoms: C_6  and  C_12
REMARK    5  A    between atoms: C_9  and  O_10
REMARK    6  A    between atoms: N_16  and  C_20
REMARK    7  A    between atoms: C_20  and  C_21
REMARK    8  A    between atoms: C_25  and  N_27
REMARK                            x       y       z     vdW  Elec       q    Type
REMARK                         _______ _______ _______ _____ _____    ______ ____
ROOT
ATOM      1  C   UNL     1       2.675  -0.764  -3.757  0.00  0.00    +0.028 C 
ATOM      2  C   UNL     1       3.122  -1.197  -4.963  0.00  0.00    +0.080 C 
ATOM      3  C   UNL     1       2.622  -0.890  -6.318  0.00  0.00    +0.261 C 
ATOM      4  O   UNL     1       1.673  -0.149  -6.497  0.00  0.00    -0.269 OA
ATOM      5  N   UNL     1       3.260  -1.457  -7.328  0.00  0.00    -0.224 N 
ATOM      6  C   UNL     1       4.308  -2.282  -7.126  0.00  0.00    +0.286 C 
ATOM      7  O   UNL     1       4.977  -2.870  -7.954  0.00  0.00    -0.262 OA
ATOM      8  S   UNL     1       4.473  -2.303  -5.348  0.00  0.00    -0.026 S 
ENDROOT
BRANCH   1  11
ATOM      9  C   UNL     1      -0.335   1.191  -2.670  0.00  0.00    +0.164 A 
ATOM     10  C   UNL     1       0.628   0.203  -2.731  0.00  0.00    +0.057 A 
ATOM     11  C   UNL     1       1.647   0.282  -3.688  0.00  0.00    -0.019 A 
ATOM     12  C   UNL     1       1.683   1.362  -4.579  0.00  0.00    +0.032 A 
ATOM     13  C   UNL     1       0.717   2.343  -4.510  0.00  0.00    +0.087 A 
ATOM     14  C   UNL     1      -0.297   2.260  -3.563  0.00  0.00    +0.177 A 
ATOM     15 CL   UNL     1       0.762   3.681  -5.615  0.00  0.00    -0.080 Cl
BRANCH  14  16
ATOM     16  O   UNL     1      -1.250   3.227  -3.505  0.00  0.00    -0.502 OA
ATOM     17  H   UNL     1      -1.027   3.963  -2.919  0.00  0.00    +0.292 HD
ENDBRANCH  14  16
BRANCH   9  18
ATOM     18  O   UNL     1      -1.326   1.117  -1.741  0.00  0.00    -0.489 OA
BRANCH  18  20
ATOM     19  C   UNL     1      -2.490   0.081   0.106  0.00  0.00    +0.048 C 
ATOM     20  C   UNL     1      -1.308  -0.009  -0.861  0.00  0.00    +0.226 C 
ENDBRANCH  18  20
ENDBRANCH   9  18
ENDBRANCH   1  11
BRANCH   5  21
ATOM     21  C   UNL     1       2.816  -1.187  -8.698  0.00  0.00    +0.152 C 
BRANCH  21  22
ATOM     22  C   UNL     1       1.777  -2.203  -9.098  0.00  0.00    -0.027 A 
ATOM     23  C   UNL     1       0.438  -1.953  -8.861  0.00  0.00    +0.005 A 
ATOM     24  C   UNL     1      -0.514  -2.884  -9.228  0.00  0.00    +0.003 A 
ATOM     25  C   UNL     1      -0.129  -4.066  -9.833  0.00  0.00    +0.033 A 
ATOM     26  C   UNL     1       1.210  -4.316 -10.071  0.00  0.00    +0.127 A 
ATOM     27  C   UNL     1       2.163  -3.382  -9.707  0.00  0.00    +0.038 A 
BRANCH  26  28
ATOM     28  N   UNL     1       1.623  -5.580 -10.719  0.00  0.00    +0.056 N 
ATOM     29  O   UNL     1       0.783  -6.401 -11.043  0.00  0.00    -0.126 OA
ATOM     30  O   UNL     1       2.803  -5.800 -10.929  0.00  0.00    -0.126 OA
ENDBRANCH  26  28
ENDBRANCH  21  22
ENDBRANCH   5  21
TORSDOF 7
