REMARK  Name = ZINC35270688
REMARK  7 active torsions:
REMARK  status: ('A' for Active; 'I' for Inactive)
REMARK    1  A    between atoms: C_1  and  C_2
REMARK    2  A    between atoms: C_2  and  C_35
REMARK    3  A    between atoms: C_13  and  C_30
REMARK    4  A    between atoms: C_14  and  O_29
REMARK    5  A    between atoms: C_30  and  C_31
REMARK    6  A    between atoms: C_30  and  C_32
REMARK    7  A    between atoms: C_30  and  C_33
REMARK                            x       y       z     vdW  Elec       q    Type
REMARK                         _______ _______ _______ _____ _____    ______ ____
ROOT
ATOM      1  C   UNK A   1       0.649   1.447  -0.331  0.00  0.00    +0.060 C 
ATOM      2  C   UNK A   1       0.698  -0.083  -0.322  0.00  0.00    +0.124 C 
ATOM      3  C   UNK A   1      -0.689  -0.625  -0.546  0.00  0.00    +0.020 C 
ATOM      4  C   UNK A   1      -1.037  -1.801  -0.035  0.00  0.00    +0.011 C 
ATOM      5  C   UNK A   1      -0.045  -2.533   0.782  0.00  0.00    +0.018 A 
ATOM      6  C   UNK A   1      -0.225  -3.873   1.112  0.00  0.00    +0.012 A 
ATOM      7  C   UNK A   1       0.732  -4.529   1.857  0.00  0.00    +0.009 A 
ATOM      8  C   UNK A   1       1.875  -3.877   2.283  0.00  0.00    +0.012 A 
ATOM      9  C   UNK A   1       2.051  -2.510   1.974  0.00  0.00    +0.078 A 
ATOM     10  C   UNK A   1       1.092  -1.850   1.225  0.00  0.00    +0.150 A 
ATOM     11  O   UNK A   1       1.219  -0.528   0.929  0.00  0.00    -0.480 OA
ATOM     12  N   UNK A   1       3.262  -2.033   2.558  0.00  0.00    -0.317 N 
ATOM     13  C   UNK A   1       3.405  -2.865   3.751  0.00  0.00    +0.144 C 
ATOM     14  C   UNK A   1       3.075  -4.237   3.033  0.00  0.00    +0.133 C 
ATOM     15  C   UNK A   1       3.330  -5.226   4.115  0.00  0.00    +0.075 C 
ATOM     16  C   UNK A   1       4.471  -4.551   4.928  0.00  0.00    +0.167 C 
ATOM     17  N   UNK A   1       4.698  -3.220   4.298  0.00  0.00    -0.263 N 
ATOM     18  C   PRO A   2       5.876  -2.571   4.279  0.00  0.00    +0.238 C 
ATOM     19  O   PRO A   2       5.975  -1.463   3.796  0.00  0.00    -0.273 OA
ATOM     20  CA  PRO A   2       7.058  -3.260   4.876  0.00  0.00    +0.162 C 
ATOM     21  CB  PRO A   2       8.388  -2.923   4.206  0.00  0.00    +0.033 C 
ATOM     22  CG  PRO A   2       9.257  -4.151   4.603  0.00  0.00    +0.021 C 
ATOM     23  CD  PRO A   2       8.236  -5.311   4.631  0.00  0.00    +0.109 C 
ATOM     24  N   PRO A   2       6.914  -4.715   4.787  0.00  0.00    -0.288 N 
ATOM     25  C   UNK A   1       5.726  -5.375   4.840  0.00  0.00    +0.237 C 
ATOM     26  O   UNK A   1       5.673  -6.586   4.806  0.00  0.00    -0.274 OA
ATOM     27  C   UNK A   1       1.614  -0.563  -1.449  0.00  0.00    +0.060 C 
ATOM     28  H   UNK A   1       3.849  -1.328   2.240  0.00  0.00    +0.148 HD
ENDROOT
BRANCH  13  29
ATOM     29  C   UNK A   1       2.403  -2.483   4.843  0.00  0.00    +0.024 C 
ATOM     30  C   UNK A   1       2.530  -0.991   5.152  0.00  0.00    +0.019 C 
ATOM     31  C   UNK A   1       0.983  -2.785   4.361  0.00  0.00    +0.019 C 
BRANCH  29  32
ATOM     32  C   UNK A   1       2.690  -3.281   6.089  0.00  0.00    -0.024 C 
ATOM     33  C   UNK A   1       3.131  -2.678   7.165  0.00  0.00    +0.004 C 
ENDBRANCH  29  32
ENDBRANCH  13  29
BRANCH  14  34
ATOM     34  O   UNK A   1       4.127  -4.402   2.080  0.00  0.00    -0.380 OA
ATOM     35  H   UNK A   1       3.965  -5.100   1.431  0.00  0.00    +0.211 HD
ENDBRANCH  14  34
TORSDOF 3
