REMARK  Name = ZINC39674389
REMARK  11 active torsions:
REMARK  status: ('A' for Active; 'I' for Inactive)
REMARK    1  A    between atoms: C_1  and  C_2
REMARK    2  A    between atoms: C_3  and  C_12
REMARK    3  A    between atoms: C_7  and  O_8
REMARK    4  A    between atoms: O_8  and  C_9
REMARK    5  A    between atoms: C_9  and  C_11
REMARK    6  A    between atoms: C_16  and  C_25
REMARK    7  A    between atoms: N_27  and  C_28
REMARK    8  A    between atoms: C_28  and  C_30
REMARK    9  A    between atoms: C_28  and  C_31
REMARK   10  A    between atoms: C_32  and  C_38
REMARK   11  A    between atoms: C_35  and  C_37
REMARK                            x       y       z     vdW  Elec       q    Type
REMARK                         _______ _______ _______ _____ _____    ______ ____
ROOT
ATOM      1  C   UNL     1       0.291  -0.187  -3.495  0.00  0.00    +0.247 C 
ATOM      2  O   UNL     1       0.288   0.957  -3.908  0.00  0.00    -0.270 OA
ATOM      3  N   UNL     1       0.214  -1.216  -4.362  0.00  0.00    -0.296 N 
ATOM      4  C   UNL     1       0.092  -2.659  -4.050  0.00  0.00    +0.121 C 
ATOM      5  C   UNL     1      -0.893  -3.205  -5.107  0.00  0.00    +0.100 C 
ATOM      6  C   UNL     1      -0.795  -2.218  -6.282  0.00  0.00    -0.004 C 
ATOM      7  C   UNL     1       0.227  -1.159  -5.844  0.00  0.00    +0.115 C 
ATOM      8  C   UNL     1      -0.307  -2.937  -7.537  0.00  0.00    -0.010 C 
ATOM      9  C   UNL     1      -0.273  -1.948  -8.705  0.00  0.00    -0.082 C 
ATOM     10  N   UNL     1      -1.616  -1.398  -8.923  0.00  0.00    +0.379 N 
ATOM     11  C   UNL     1      -2.040  -0.630  -7.746  0.00  0.00    -0.082 C 
ATOM     12  C   UNL     1      -2.149  -1.563  -6.537  0.00  0.00    -0.010 C 
ATOM     13  H   UNL     1      -1.604  -0.793  -9.731  0.00  0.00    -0.086 HD
ATOM     14  H   UNL     1      -2.266  -2.153  -9.082  0.00  0.00    -0.086 HD
ENDROOT
BRANCH   1  17
ATOM     15  C   UNL     1      -1.053   1.580  -1.640  0.00  0.00    +0.048 C 
ATOM     16  C   UNL     1      -0.266   0.396  -1.139  0.00  0.00    +0.004 A 
ATOM     17  C   UNL     1       0.379  -0.449  -2.043  0.00  0.00    +0.043 A 
ATOM     18  C   UNL     1       1.107  -1.542  -1.571  0.00  0.00    +0.013 A 
ATOM     19  C   UNL     1       1.186  -1.784  -0.215  0.00  0.00    +0.004 A 
ATOM     20  C   UNL     1       0.547  -0.946   0.680  0.00  0.00    +0.047 A 
ATOM     21  C   UNL     1      -0.175   0.148   0.220  0.00  0.00    +0.135 A 
BRANCH  21  22
ATOM     22  O   UNL     1      -0.798   0.971   1.104  0.00  0.00    -0.426 OA
BRANCH  22  23
ATOM     23  C   UNL     1      -0.212   2.144   1.393  0.00  0.00    +0.309 C 
ATOM     24  O   UNL     1       0.881   2.400   0.946  0.00  0.00    -0.251 OA
ATOM     25  C   UNL     1      -0.918   3.143   2.273  0.00  0.00    +0.136 C 
ENDBRANCH  22  23
ENDBRANCH  21  22
ENDBRANCH   1  17
BRANCH   5  26
ATOM     26  C   UNL     1      -2.296  -3.229  -4.555  0.00  0.00    +0.219 C 
ATOM     27  O   UNL     1      -2.657  -2.368  -3.781  0.00  0.00    -0.275 OA
ATOM     28  N   UNL     1      -3.148  -4.206  -4.922  0.00  0.00    -0.309 N 
ATOM     29  H   UNL     1      -2.859  -4.895  -5.541  0.00  0.00    +0.149 HD
BRANCH  28  30
ATOM     30  C   UNL     1      -4.511  -4.229  -4.385  0.00  0.00    +0.100 C 
ATOM     31  C   UNL     1      -4.513  -4.938  -3.029  0.00  0.00    +0.033 C 
BRANCH  30  32
ATOM     32  C   UNL     1      -5.414  -4.968  -5.339  0.00  0.00    -0.001 C 
ATOM     33  C   UNL     1      -6.572  -4.557  -5.860  0.00  0.00    +0.063 C 
ATOM     34  N   UNL     1      -7.092  -5.500  -6.677  0.00  0.00    -0.159 NA
ATOM     35  N   UNL     1      -6.412  -6.524  -6.775  0.00  0.00    -0.180 NA
ATOM     36  C   UNL     1      -5.215  -6.350  -5.935  0.00  0.00    +0.154 C 
ATOM     37  C   UNL     1      -5.170  -7.413  -4.835  0.00  0.00    +0.039 C 
ATOM     38  C   UNL     1      -7.212  -3.222  -5.577  0.00  0.00    +0.067 C 
ENDBRANCH  30  32
ENDBRANCH  28  30
ENDBRANCH   5  26
TORSDOF 6
