REMARK  Name = ZINC02822655
REMARK  8 active torsions:
REMARK  status: ('A' for Active; 'I' for Inactive)
REMARK    1  A    between atoms: C_1  and  C_2
REMARK    2  A    between atoms: C_5  and  O_9
REMARK    3  A    between atoms: O_9  and  C_10
REMARK    4  A    between atoms: C_10  and  C_11
REMARK    5  A    between atoms: C_11  and  C_12
REMARK    6  A    between atoms: C_12  and  N_44
REMARK    7  A    between atoms: C_14  and  C_21
REMARK    8  A    between atoms: C_17  and  C_20
REMARK                            x       y       z     vdW  Elec       q    Type
REMARK                         _______ _______ _______ _____ _____    ______ ____
ROOT
ATOM      1  C   UNL     1       2.913   1.472  -1.291  0.00  0.00    +0.227 C 
ENDROOT
BRANCH   1   2
ATOM      2  O   UNL     1       2.358   1.781  -0.011  0.00  0.00    -0.489 OA
BRANCH   2   7
ATOM      3  C   UNL     1      -2.563   4.524   0.050  0.00  0.00    +0.044 C 
ATOM      4  C   UNL     1      -1.247   3.790   0.034  0.00  0.00    -0.048 A 
ATOM      5  C   UNL     1      -1.228   2.407   0.021  0.00  0.00    +0.027 A 
ATOM      6  C   UNL     1      -0.021   1.732   0.012  0.00  0.00    +0.084 A 
ATOM      7  C   UNL     1       1.171   2.443   0.004  0.00  0.00    +0.153 A 
ATOM      8  C   UNL     1       1.148   3.830   0.011  0.00  0.00    +0.061 A 
ATOM      9  C   UNL     1      -0.061   4.500   0.026  0.00  0.00    +0.022 A 
ATOM     10 BR   UNL     1       2.769   4.803   0.000  0.00  0.00    -0.046 Br
ATOM     11 CL   UNL     1       0.002  -0.004   0.002  0.00  0.00    -0.080 Cl
ENDBRANCH   2   7
ENDBRANCH   1   2
BRANCH   1  12
ATOM     12  C   UNL     1       4.240   0.733  -1.107  0.00  0.00    +0.022 C 
BRANCH  12  13
ATOM     13  C   UNL     1       4.833   0.402  -2.478  0.00  0.00    -0.075 C 
BRANCH  13  21
ATOM     14  C   UNL     1       7.118   0.568  -1.692  0.00  0.00    -0.047 C 
ATOM     15  C   UNL     1       8.408  -0.226  -1.472  0.00  0.00    +0.099 C 
ATOM     16  O   UNL     1       8.845  -0.771  -2.720  0.00  0.00    -0.378 OA
ATOM     17  C   UNL     1       7.885  -1.630  -3.341  0.00  0.00    +0.099 C 
ATOM     18  C   UNL     1       6.590  -0.849  -3.580  0.00  0.00    -0.047 C 
ATOM     19  C   UNL     1       8.435  -2.130  -4.678  0.00  0.00    +0.036 C 
ATOM     20  C   UNL     1       8.146  -1.363  -0.481  0.00  0.00    +0.036 C 
ATOM     21  N   UNL     1       6.104  -0.329  -2.284  0.00  0.00    +0.383 N 
ATOM     22  H   UNL     1       5.942  -1.117  -1.647  0.00  0.00    -0.082 HD
ENDBRANCH  13  21
ENDBRANCH  12  13
ENDBRANCH   1  12
TORSDOF 5
