REMARK  Name = ZINC09846714
REMARK  10 active torsions:
REMARK  status: ('A' for Active; 'I' for Inactive)
REMARK    1  A    between atoms: C_1  and  C_2
REMARK    2  A    between atoms: C_2  and  O_3
REMARK    3  A    between atoms: O_3  and  C_4
REMARK    4  A    between atoms: C_7  and  N_8
REMARK    5  A    between atoms: N_8  and  N_9
REMARK    6  A    between atoms: C_10  and  C_12
REMARK    7  A    between atoms: C_12  and  O_13
REMARK    8  A    between atoms: O_13  and  C_14
REMARK    9  A    between atoms: C_18  and  C_21
REMARK   10  A    between atoms: C_19  and  C_20
REMARK                            x       y       z     vdW  Elec       q    Type
REMARK                         _______ _______ _______ _____ _____    ______ ____
ROOT
ATOM      1  N   UNL     1      -0.157  -6.243   0.169  0.00  0.00    -0.271 N 
ATOM      2  H   UNL     1       0.292  -6.605  -0.611  0.00  0.00    +0.169 HD
ENDROOT
BRANCH   1   6
ATOM      3  C   UNL     1       0.926  -1.897  -1.398  0.00  0.00    +0.169 C 
ATOM      4  C   UNL     1       0.194  -2.719  -0.600  0.00  0.00    +0.060 C 
ATOM      5  C   UNL     1       0.577  -4.070  -0.439  0.00  0.00    +0.009 C 
ATOM      6  C   UNL     1      -0.174  -4.918   0.380  0.00  0.00    +0.096 C 
ATOM      7  C   UNL     1       1.720  -4.562  -1.108  0.00  0.00    +0.044 C 
ATOM      8  C   UNL     1       2.450  -3.736  -1.905  0.00  0.00    +0.083 C 
ATOM      9  C   UNL     1       2.064  -2.394  -2.070  0.00  0.00    +0.235 C 
ATOM     10  O   UNL     1       2.720  -1.654  -2.792  0.00  0.00    -0.283 OA
ATOM     11 BR   UNL     1       3.979  -4.396  -2.800  0.00  0.00    -0.045 Br
ATOM     12 BR   UNL     1       2.236  -6.369  -0.895  0.00  0.00    -0.048 Br
BRANCH   3  13
ATOM     13  O   UNL     1       0.559  -0.596  -1.554  0.00  0.00    -0.488 OA
BRANCH  13  15
ATOM     14  C   UNL     1      -0.857   1.319  -1.143  0.00  0.00    +0.048 C 
ATOM     15  C   UNL     1      -0.603  -0.161  -0.846  0.00  0.00    +0.226 C 
ENDBRANCH  13  15
ENDBRANCH   3  13
ENDBRANCH   1   6
BRANCH   1  16
ATOM     16  N   UNL     1      -0.788  -7.105   1.075  0.00  0.00    -0.234 N 
ATOM     17  C   UNL     1      -0.771  -8.436   0.864  0.00  0.00    +0.267 C 
ATOM     18  O   UNL     1      -0.210  -8.888  -0.112  0.00  0.00    -0.271 OA
ATOM     19  H   UNL     1      -1.238  -6.744   1.856  0.00  0.00    +0.173 HD
BRANCH  17  20
ATOM     20  C   UNL     1      -1.451  -9.363   1.839  0.00  0.00    +0.326 C 
BRANCH  20  21
ATOM     21  O   UNL     1      -1.295 -10.714   1.399  0.00  0.00    -0.482 OA
BRANCH  21  22
ATOM     22  C   UNL     1      -1.854 -11.682   2.172  0.00  0.00    +0.124 A 
ATOM     23  C   UNL     1      -2.542 -11.339   3.327  0.00  0.00    +0.046 A 
ATOM     24  C   UNL     1      -3.109 -12.325   4.110  0.00  0.00    +0.004 A 
ATOM     25  C   UNL     1      -2.991 -13.654   3.744  0.00  0.00    +0.004 A 
ATOM     26  C   UNL     1      -2.305 -13.998   2.594  0.00  0.00    -0.044 A 
ATOM     27  C   UNL     1      -1.741 -13.015   1.804  0.00  0.00    -0.006 A 
ATOM     28  C   UNL     1      -0.999 -13.391   0.547  0.00  0.00    +0.048 C 
ATOM     29  C   UNL     1      -2.178 -15.447   2.199  0.00  0.00    +0.044 C 
ENDBRANCH  21  22
ENDBRANCH  20  21
ENDBRANCH  17  20
ENDBRANCH   1  16
TORSDOF 7
