REMARK  Name = ZINC40686998
REMARK  7 active torsions:
REMARK  status: ('A' for Active; 'I' for Inactive)
REMARK    1  A    between atoms: C_4  and  N_7
REMARK    2  A    between atoms: N_7  and  C_8
REMARK    3  A    between atoms: N_7  and  N_14
REMARK    4  A    between atoms: C_16  and  N_29
REMARK    5  A    between atoms: C_17  and  N_21
REMARK    6  A    between atoms: N_21  and  C_22
REMARK    7  A    between atoms: C_22  and  C_23
REMARK                            x       y       z     vdW  Elec       q    Type
REMARK                         _______ _______ _______ _____ _____    ______ ____
ROOT
ATOM      1  N   UNL     1       4.755   0.042  -0.482  0.00  0.00    -0.243 N 
ATOM      2  C   UNL     1       5.848   0.198   0.362  0.00  0.00    +0.139 A 
ATOM      3  C   UNL     1       6.982   0.889  -0.068  0.00  0.00    +0.105 A 
ATOM      4  C   UNL     1       8.052   1.016   0.819  0.00  0.00    +0.145 A 
ATOM      5  N   UNL     1       7.951   0.478   2.032  0.00  0.00    -0.221 NA
ATOM      6  C   UNL     1       6.862  -0.167   2.399  0.00  0.00    +0.200 A 
ATOM      7  N   UNL     1       5.828  -0.305   1.594  0.00  0.00    -0.332 N 
ATOM      8  H   UNL     1       4.778   0.411  -1.379  0.00  0.00    +0.172 HD
ATOM      9  H   UNL     1       5.043  -0.783   1.902  0.00  0.00    +0.168 HD
ENDROOT
BRANCH   3  10
ATOM     10  N   UNL     1       7.045   1.441  -1.358  0.00  0.00    -0.353 N 
ATOM     11  H   UNL     1       6.294   1.344  -1.964  0.00  0.00    +0.143 HD
ATOM     12  H   UNL     1       7.840   1.919  -1.643  0.00  0.00    +0.143 HD
ENDBRANCH   3  10
BRANCH   4  13
ATOM     13  N   UNL     1       9.205   1.695   0.442  0.00  0.00    -0.325 N 
ATOM     14  H   UNL     1       9.271   2.084  -0.445  0.00  0.00    +0.148 HD
BRANCH  13  15
ATOM     15  C   UNL     1      10.321   1.822   1.382  0.00  0.00    +0.134 C 
BRANCH  15  16
ATOM     16  C   UNL     1      11.457   2.607   0.722  0.00  0.00    +0.135 C 
ATOM     17  C   UNL     1      12.663   2.723   1.689  0.00  0.00    +0.035 C 
ATOM     18  C   UNL     1      13.829   2.923   0.683  0.00  0.00    +0.031 C 
ATOM     19  C   UNL     1      13.377   2.063  -0.517  0.00  0.00    +0.160 C 
ATOM     20  O   UNL     1      11.957   1.894  -0.421  0.00  0.00    -0.375 OA
ENDBRANCH  15  16
ENDBRANCH  13  15
ENDBRANCH   4  13
BRANCH   1  21
ATOM     21  N   UNL     1       3.620  -0.649  -0.037  0.00  0.00    -0.221 N 
BRANCH  21  25
ATOM     22  C   UNL     1       0.175   1.452   0.991  0.00  0.00    +0.000 A 
ATOM     23  C   UNL     1       1.382   1.772   1.586  0.00  0.00    +0.002 A 
ATOM     24  C   UNL     1       2.526   1.077   1.248  0.00  0.00    +0.025 A 
ATOM     25  C   UNL     1       2.464   0.055   0.308  0.00  0.00    +0.053 A 
ATOM     26  C   UNL     1       1.250  -0.264  -0.287  0.00  0.00    +0.025 A 
ATOM     27  C   UNL     1       0.110   0.435   0.056  0.00  0.00    +0.002 A 
ENDBRANCH  21  25
BRANCH  21  28
ATOM     28  C   UNL     1       3.644  -2.043   0.060  0.00  0.00    +0.053 A 
ATOM     29  C   UNL     1       4.720  -2.758  -0.451  0.00  0.00    +0.025 A 
ATOM     30  C   UNL     1       4.741  -4.135  -0.352  0.00  0.00    +0.002 A 
ATOM     31  C   UNL     1       3.692  -4.803   0.254  0.00  0.00    +0.000 A 
ATOM     32  C   UNL     1       2.619  -4.094   0.763  0.00  0.00    +0.002 A 
ATOM     33  C   UNL     1       2.595  -2.716   0.674  0.00  0.00    +0.025 A 
ENDBRANCH  21  28
ENDBRANCH   1  21
TORSDOF 7
