REMARK  Name = ZINC12896406
REMARK  5 active torsions:
REMARK  status: ('A' for Active; 'I' for Inactive)
REMARK    1  A    between atoms: C_12  and  C_14
REMARK    2  A    between atoms: C_17  and  C_20
REMARK    3  A    between atoms: C_20  and  N_21
REMARK    4  A    between atoms: N_21  and  S_22
REMARK    5  A    between atoms: S_22  and  C_25
REMARK                            x       y       z     vdW  Elec       q    Type
REMARK                         _______ _______ _______ _____ _____    ______ ____
ROOT
ATOM      1  C   UNL     1       1.200  -0.683  -0.044  0.00  0.00    +0.037 A 
ATOM      2  C   UNL     1      -0.014  -0.025  -0.249  0.00  0.00    +0.013 A 
ATOM      3  C   UNL     1      -0.053   1.353  -0.269  0.00  0.00    +0.006 A 
ATOM      4  C   UNL     1       1.108   2.084  -0.087  0.00  0.00    -0.032 A 
ATOM      5  C   UNL     1       2.314   1.439   0.116  0.00  0.00    +0.006 A 
ATOM      6  C   UNL     1       2.368   0.060   0.139  0.00  0.00    +0.013 A 
ENDROOT
BRANCH   1  18
ATOM      7  C   UNL     1       0.467  -7.007   0.982  0.00  0.00    +0.002 A 
ATOM      8  C   UNL     1       1.002  -6.389  -0.133  0.00  0.00    +0.002 A 
ATOM      9  C   UNL     1       0.958  -5.011  -0.253  0.00  0.00    +0.025 A 
ATOM     10  C   UNL     1       0.374  -4.254   0.744  0.00  0.00    +0.058 A 
ATOM     11  C   UNL     1      -0.162  -4.875   1.876  0.00  0.00    +0.055 A 
ATOM     12  C   UNL     1      -0.115  -6.256   1.986  0.00  0.00    +0.025 A 
ATOM     13  N   UNL     1      -0.742  -4.096   2.883  0.00  0.00    -0.283 N 
ATOM     14  C   UNL     1      -1.041  -2.801   2.665  0.00  0.00    +0.235 C 
ATOM     15  O   UNL     1      -1.502  -2.133   3.567  0.00  0.00    -0.274 OA
ATOM     16  C   UNL     1      -0.809  -2.172   1.315  0.00  0.00    +0.210 C 
ATOM     17  N   UNL     1       0.313  -2.855   0.654  0.00  0.00    -0.257 N 
ATOM     18  C   UNL     1       1.250  -2.160  -0.021  0.00  0.00    +0.251 C 
ATOM     19  O   UNL     1       2.135  -2.748  -0.611  0.00  0.00    -0.270 OA
ATOM     20  H   UNL     1      -0.930  -4.493   3.748  0.00  0.00    +0.155 HD
ENDBRANCH   1  18
BRANCH   4  21
ATOM     21  C   UNL     1       1.057   3.590  -0.110  0.00  0.00    +0.141 C 
BRANCH  21  22
ATOM     22  N   UNL     1       0.819   4.092   1.246  0.00  0.00    -0.186 NA
ATOM     23  H   UNL     1       0.507   3.488   1.938  0.00  0.00    +0.148 HD
BRANCH  22  24
ATOM     24  S   UNL     1       1.081   5.689   1.596  0.00  0.00    +0.059 S 
ATOM     25  O   UNL     1       0.739   5.867   2.963  0.00  0.00    -0.153 OA
ATOM     26  O   UNL     1       2.366   6.012   1.084  0.00  0.00    -0.153 OA
BRANCH  24  27
ATOM     27  C   UNL     1      -0.083   6.625   0.660  0.00  0.00    +0.107 A 
ATOM     28  C   UNL     1       0.245   7.066  -0.608  0.00  0.00    +0.031 A 
ATOM     29  C   UNL     1      -0.668   7.796  -1.345  0.00  0.00    +0.042 A 
ATOM     30  C   UNL     1      -1.909   8.095  -0.809  0.00  0.00    +0.142 A 
ATOM     31  C   UNL     1      -2.236   7.657   0.464  0.00  0.00    +0.078 A 
ATOM     32  C   UNL     1      -1.321   6.922   1.198  0.00  0.00    +0.051 A 
ATOM     33 CL   UNL     1      -3.791   8.030   1.139  0.00  0.00    -0.081 Cl
ATOM     34  F   UNL     1      -2.801   8.812  -1.527  0.00  0.00    -0.204 F 
ENDBRANCH  24  27
ENDBRANCH  22  24
ENDBRANCH  21  22
ENDBRANCH   4  21
TORSDOF 5
