REMARK  Name = ZINC67240828
REMARK  8 active torsions:
REMARK  status: ('A' for Active; 'I' for Inactive)
REMARK    1  A    between atoms: C_1  and  C_2
REMARK    2  A    between atoms: C_2  and  C_3
REMARK    3  A    between atoms: C_6  and  N_9
REMARK    4  A    between atoms: N_18  and  C_21
REMARK    5  A    between atoms: C_21  and  C_22
REMARK    6  A    between atoms: N_24  and  C_25
REMARK    7  A    between atoms: C_27  and  C_32
REMARK    8  A    between atoms: C_30  and  C_31
REMARK                            x       y       z     vdW  Elec       q    Type
REMARK                         _______ _______ _______ _____ _____    ______ ____
ROOT
ATOM      1  N   UNL     1       2.762  -1.925   4.604  0.00  0.00    -0.207 N 
ATOM      2  C   UNL     1       4.072  -2.199   4.598  0.00  0.00    +0.255 C 
ATOM      3  O   UNL     1       4.802  -2.107   3.635  0.00  0.00    -0.272 OA
ATOM      4  C   UNL     1       4.499  -2.639   5.980  0.00  0.00    +0.246 C 
ATOM      5  C   UNL     1       3.181  -2.580   6.799  0.00  0.00    +0.216 C 
ATOM      6  C   UNL     1       2.164  -2.098   5.789  0.00  0.00    +0.251 C 
ATOM      7  O   UNL     1       0.990  -1.901   6.016  0.00  0.00    -0.273 OA
ATOM      8  N   UNL     1       3.461  -1.499   7.761  0.00  0.00    -0.214 N 
ATOM      9  N   UNL     1       4.753  -1.038   7.512  0.00  0.00    -0.082 NA
ATOM     10  N   UNL     1       5.351  -1.609   6.586  0.00  0.00    -0.156 NA
ENDROOT
BRANCH   1  14
ATOM     11  C   UNL     1       0.713  -0.625   1.214  0.00  0.00    -0.048 A 
ATOM     12  C   UNL     1       1.425  -1.810   1.178  0.00  0.00    +0.005 A 
ATOM     13  C   UNL     1       2.105  -2.243   2.300  0.00  0.00    +0.024 A 
ATOM     14  C   UNL     1       2.073  -1.488   3.464  0.00  0.00    +0.044 A 
ATOM     15  C   UNL     1       1.358  -0.299   3.497  0.00  0.00    +0.024 A 
ATOM     16  C   UNL     1       0.684   0.132   2.371  0.00  0.00    +0.005 A 
BRANCH  11  18
ATOM     17  C   UNL     1       0.897   0.716  -0.863  0.00  0.00    +0.009 C 
ATOM     18  C   UNL     1      -0.028  -0.156  -0.011  0.00  0.00    +0.032 C 
ENDBRANCH  11  18
ENDBRANCH   1  14
BRANCH   8  19
ATOM     19  C   UNL     1       2.548  -1.001   8.793  0.00  0.00    +0.224 C 
BRANCH  19  20
ATOM     20  C   UNL     1       2.753  -1.783  10.065  0.00  0.00    +0.236 C 
ATOM     21  O   UNL     1       3.580  -2.669  10.106  0.00  0.00    -0.274 OA
ATOM     22  N   UNL     1       2.017  -1.497  11.158  0.00  0.00    -0.284 N 
ATOM     23  H   UNL     1       1.317  -0.827  11.109  0.00  0.00    +0.155 HD
BRANCH  22  24
ATOM     24  C   UNL     1       2.262  -2.167  12.361  0.00  0.00    +0.037 A 
ATOM     25  C   UNL     1       2.835  -3.432  12.349  0.00  0.00    +0.027 A 
ATOM     26  C   UNL     1       3.076  -4.091  13.539  0.00  0.00    -0.049 A 
ATOM     27  C   UNL     1       2.747  -3.493  14.741  0.00  0.00    +0.004 A 
ATOM     28  C   UNL     1       2.175  -2.234  14.757  0.00  0.00    +0.005 A 
ATOM     29  C   UNL     1       1.938  -1.567  13.570  0.00  0.00    -0.029 A 
ATOM     30  C   UNL     1       1.322  -0.192  13.588  0.00  0.00    +0.045 C 
ATOM     31  C   UNL     1       3.698  -5.464  13.527  0.00  0.00    +0.044 C 
ENDBRANCH  22  24
ENDBRANCH  19  20
ENDBRANCH   8  19
TORSDOF 5
