REMARK  Name = ZINC04296233
REMARK  8 active torsions:
REMARK  status: ('A' for Active; 'I' for Inactive)
REMARK    1  A    between atoms: C_5  and  C_7
REMARK    2  A    between atoms: N_9  and  C_10
REMARK    3  A    between atoms: C_10  and  C_11
REMARK    4  A    between atoms: N_13  and  N_14
REMARK    5  A    between atoms: C_15  and  C_16
REMARK    6  A    between atoms: C_19  and  O_22
REMARK    7  A    between atoms: O_22  and  C_23
REMARK    8  A    between atoms: C_23  and  C_25
REMARK                            x       y       z     vdW  Elec       q    Type
REMARK                         _______ _______ _______ _____ _____    ______ ____
ROOT
ATOM      1  N   UNL     1       1.037  -4.911   0.024  0.00  0.00    -0.188 NA
ATOM      2  C   UNL     1      -0.075  -4.248   0.113  0.00  0.00    +0.138 C 
ENDROOT
BRANCH   2   3
ATOM      3  C   UNL     1      -0.060  -2.775   0.086  0.00  0.00    -0.005 A 
ATOM      4  C   UNL     1      -1.256  -2.059   0.182  0.00  0.00    +0.013 A 
ATOM      5  C   UNL     1      -1.237  -0.682   0.156  0.00  0.00    +0.047 A 
ATOM      6  C   UNL     1      -0.031  -0.004   0.035  0.00  0.00    +0.132 A 
ATOM      7  C   UNL     1       1.161  -0.711  -0.066  0.00  0.00    +0.047 A 
ATOM      8  C   UNL     1       1.152  -2.088  -0.036  0.00  0.00    +0.013 A 
BRANCH   6   9
ATOM      9  O   UNL     1      -0.016   1.354   0.009  0.00  0.00    -0.422 OA
BRANCH   9  10
ATOM     10  C   UNL     1      -0.336   1.991   1.153  0.00  0.00    +0.346 C 
ATOM     11  O   UNL     1      -0.518   1.355   2.172  0.00  0.00    -0.244 OA
BRANCH  10  12
ATOM     12  C   UNL     1      -0.467   3.462   1.168  0.00  0.00    +0.073 A 
ATOM     13  C   UNL     1      -0.253   4.197  -0.000  0.00  0.00    +0.016 A 
ATOM     14  C   UNL     1      -0.382   5.569   0.019  0.00  0.00    +0.001 A 
ATOM     15  C   UNL     1      -0.711   6.221   1.196  0.00  0.00    +0.001 A 
ATOM     16  C   UNL     1      -0.918   5.501   2.358  0.00  0.00    +0.016 A 
ATOM     17  C   UNL     1      -0.798   4.125   2.352  0.00  0.00    +0.032 A 
ATOM     18 BR   UNL     1      -1.081   3.142   3.942  0.00  0.00    -0.049 Br
ENDBRANCH  10  12
ENDBRANCH   9  10
ENDBRANCH   6   9
ENDBRANCH   2   3
BRANCH   1  21
ATOM     19  C   UNL     1       2.178  -6.999  -0.043  0.00  0.00    +0.249 C 
ATOM     20  O   UNL     1       3.231  -6.406  -0.149  0.00  0.00    -0.272 OA
ATOM     21  N   UNL     1       1.023  -6.311   0.050  0.00  0.00    -0.206 N 
ATOM     22  H   UNL     1       0.181  -6.786   0.135  0.00  0.00    +0.177 HD
BRANCH  19  23
ATOM     23  C   UNL     1       2.162  -8.506  -0.015  0.00  0.00    +0.202 C 
BRANCH  23  26
ATOM     24  C   UNL     1       3.764 -10.339  -0.128  0.00  0.00    +0.246 C 
ATOM     25  O   UNL     1       2.836 -11.117  -0.030  0.00  0.00    -0.270 OA
ATOM     26  N   UNL     1       3.533  -9.011  -0.131  0.00  0.00    -0.303 N 
ATOM     27  H   UNL     1       4.273  -8.390  -0.209  0.00  0.00    +0.150 HD
BRANCH  24  32
ATOM     28  C   UNL     1       7.503 -10.438  -0.467  0.00  0.00    +0.001 A 
ATOM     29  C   UNL     1       7.738 -11.803  -0.464  0.00  0.00    +0.001 A 
ATOM     30  C   UNL     1       6.685 -12.692  -0.352  0.00  0.00    +0.021 A 
ATOM     31  C   UNL     1       5.390 -12.223  -0.243  0.00  0.00    +0.053 A 
ATOM     32  C   UNL     1       5.146 -10.848  -0.245  0.00  0.00    +0.055 A 
ATOM     33  C   UNL     1       6.215  -9.957  -0.364  0.00  0.00    +0.014 A 
ATOM     34 CL   UNL     1       4.069 -13.341  -0.104  0.00  0.00    -0.083 Cl
ENDBRANCH  24  32
ENDBRANCH  23  26
ENDBRANCH  19  23
ENDBRANCH   1  21
TORSDOF 8
