REMARK  Name = ZINC16080643
REMARK  4 active torsions:
REMARK  status: ('A' for Active; 'I' for Inactive)
REMARK    1  A    between atoms: C_1  and  N_2
REMARK    2  A    between atoms: C_3  and  C_21
REMARK    3  A    between atoms: N_5  and  C_8
REMARK    4  A    between atoms: C_8  and  N_9
REMARK                            x       y       z     vdW  Elec       q    Type
REMARK                         _______ _______ _______ _____ _____    ______ ____
ROOT
ATOM      1  C   UNL     1      -0.018   1.461   0.010  0.00  0.00    +0.153 C 
ATOM      2  N   UNL     1       0.002  -0.004   0.002  0.00  0.00    -0.307 N 
ATOM      3  C   UNL     1      -1.100  -0.823   0.003  0.00  0.00    +0.176 A 
ATOM      4  N   UNL     1      -0.705  -2.055  -0.006  0.00  0.00    -0.151 NA
ATOM      5  N   UNL     1       0.696  -2.064  -0.012  0.00  0.00    -0.226 N 
ATOM      6  C   UNL     1       1.106  -0.778  -0.013  0.00  0.00    +0.179 A 
ATOM      7  S   UNL     1       2.728  -0.231  -0.026  0.00  0.00    -0.011 S 
ENDROOT
BRANCH   3   8
ATOM      8  C   UNL     1      -2.535  -0.362   0.012  0.00  0.00    +0.278 C 
ATOM      9  C   UNL     1      -3.454  -1.538   0.370  0.00  0.00    +0.281 C 
ATOM     10  O   UNL     1      -4.807  -1.070   0.356  0.00  0.00    -0.484 OA
ATOM     11  C   UNL     1      -5.180  -0.310  -0.710  0.00  0.00    +0.162 A 
ATOM     12  C   UNL     1      -6.529  -0.129  -0.978  0.00  0.00    +0.049 A 
ATOM     13  C   UNL     1      -6.924   0.643  -2.054  0.00  0.00    +0.004 A 
ATOM     14  C   UNL     1      -5.976   1.236  -2.867  0.00  0.00    +0.004 A 
ATOM     15  C   UNL     1      -4.630   1.059  -2.606  0.00  0.00    +0.049 A 
ATOM     16  C   UNL     1      -4.227   0.284  -1.528  0.00  0.00    +0.163 A 
ATOM     17  O   UNL     1      -2.898   0.113  -1.289  0.00  0.00    -0.474 OA
ENDBRANCH   3   8
BRANCH   5  18
ATOM     18  C   UNL     1       1.557  -3.249  -0.022  0.00  0.00    +0.233 C 
BRANCH  18  19
ATOM     19  N   UNL     1       1.549  -3.849  -1.363  0.00  0.00    -0.281 NA
ATOM     20  C   UNL     1       0.352  -4.676  -1.563  0.00  0.00    +0.105 C 
ATOM     21  C   UNL     1       0.289  -5.133  -3.024  0.00  0.00    +0.123 C 
ATOM     22  N   UNL     1       1.561  -5.789  -3.364  0.00  0.00    -0.297 N 
ATOM     23  C   UNL     1       2.812  -5.077  -3.065  0.00  0.00    +0.123 C 
ATOM     24  C   UNL     1       2.776  -4.622  -1.602  0.00  0.00    +0.105 C 
ATOM     25  C   UNL     1       1.580  -7.043  -3.949  0.00  0.00    +0.218 A 
ATOM     26  N   UNL     1       0.432  -7.653  -4.209  0.00  0.00    -0.223 NA
ATOM     27  C   UNL     1       0.415  -8.851  -4.769  0.00  0.00    +0.116 A 
ATOM     28  C   UNL     1       1.616  -9.468  -5.082  0.00  0.00    +0.039 A 
ATOM     29  C   UNL     1       2.797  -8.803  -4.797  0.00  0.00    +0.116 A 
ATOM     30  N   UNL     1       2.744  -7.603  -4.241  0.00  0.00    -0.223 NA
ENDBRANCH  18  19
ENDBRANCH   5  18
TORSDOF 3
