REMARK  Name = ZINC21653293
REMARK  4 active torsions:
REMARK  status: ('A' for Active; 'I' for Inactive)
REMARK    1  A    between atoms: C_1  and  O_2
REMARK    2  A    between atoms: O_2  and  C_3
REMARK    3  A    between atoms: C_8  and  C_9
REMARK    4  A    between atoms: C_12  and  C_20
REMARK                            x       y       z     vdW  Elec       q    Type
REMARK                         _______ _______ _______ _____ _____    ______ ____
ROOT
ATOM      1  C   UNL     1      -2.557   3.865   0.047  0.00  0.00    +0.148 C 
ATOM      2  C   UNL     1      -3.373   3.484  -1.196  0.00  0.00    +0.059 C 
ATOM      3  C   UNL     1      -4.810   3.999  -1.050  0.00  0.00    +0.107 C 
ATOM      4  N   UNL     1      -5.433   3.341   0.115  0.00  0.00    -0.305 N 
ATOM      5  C   UNL     1      -4.648   3.246   1.256  0.00  0.00    +0.236 A 
ATOM      6  N   UNL     1      -3.311   3.491   1.240  0.00  0.00    -0.206 N 
ATOM      7  N   UNL     1      -2.879   3.305   2.553  0.00  0.00    -0.042 NA
ATOM      8  N   UNL     1      -3.924   2.977   3.242  0.00  0.00    -0.021 NA
ATOM      9  N   UNL     1      -4.970   2.936   2.480  0.00  0.00    -0.092 NA
ATOM     10  H   UNL     1      -6.462   2.960   0.046  0.00  0.00    +0.150 HD
ENDROOT
BRANCH   1  16
ATOM     11  C   UNL     1      -0.050   3.842   0.023  0.00  0.00    +0.125 A 
ATOM     12  C   UNL     1       1.160   3.163   0.007  0.00  0.00    +0.046 A 
ATOM     13  C   UNL     1       1.176   1.782   0.000  0.00  0.00    +0.004 A 
ATOM     14  C   UNL     1      -0.013   1.076   0.008  0.00  0.00    +0.001 A 
ATOM     15  C   UNL     1      -1.220   1.750   0.017  0.00  0.00    +0.009 A 
ATOM     16  C   UNL     1      -1.241   3.131   0.031  0.00  0.00    +0.019 A 
BRANCH  11  18
ATOM     17  C   UNL     1       1.196   5.867   0.020  0.00  0.00    +0.277 C 
ATOM     18  O   UNL     1      -0.069   5.201   0.029  0.00  0.00    -0.495 OA
ENDBRANCH  11  18
ENDBRANCH   1  16
BRANCH   3  19
ATOM     19  C   UNL     1      -4.793   5.492  -0.843  0.00  0.00    -0.009 A 
ATOM     20  C   UNL     1      -5.046   6.351  -1.902  0.00  0.00    +0.008 A 
ATOM     21  C   UNL     1      -5.025   7.716  -1.664  0.00  0.00    +0.020 A 
ATOM     22  C   UNL     1      -4.743   8.173  -0.390  0.00  0.00    +0.111 A 
ATOM     23  N   UNL     1      -4.502   7.327   0.592  0.00  0.00    -0.263 NA
ATOM     24  C   UNL     1      -4.519   6.022   0.403  0.00  0.00    +0.116 A 
ENDBRANCH   3  19
TORSDOF 3
