REMARK  Name = ZINC64087678
REMARK  8 active torsions:
REMARK  status: ('A' for Active; 'I' for Inactive)
REMARK    1  A    between atoms: C_1  and  C_2
REMARK    2  A    between atoms: C_2  and  C_3
REMARK    3  A    between atoms: C_3  and  C_4
REMARK    4  A    between atoms: C_4  and  C_5
REMARK    5  A    between atoms: C_5  and  C_7
REMARK    6  A    between atoms: C_5  and  N_25
REMARK    7  A    between atoms: C_12  and  C_15
REMARK    8  A    between atoms: C_17  and  C_24
REMARK                            x       y       z     vdW  Elec       q    Type
REMARK                         _______ _______ _______ _____ _____    ______ ____
ROOT
ATOM      1  C   UNL     1       1.504  -4.859  -2.959  0.00  0.00    +0.236 C 
ATOM      2  O   UNL     1       0.992  -5.686  -3.684  0.00  0.00    -0.274 OA
ATOM      3  N   UNL     1       2.197  -5.253  -1.872  0.00  0.00    -0.296 N 
ATOM      4  C   UNL     1       2.356  -6.679  -1.542  0.00  0.00    +0.113 C 
ATOM      5  C   UNL     1       3.848  -7.016  -1.604  0.00  0.00    +0.054 C 
ATOM      6  C   UNL     1       4.651  -5.967  -0.893  0.00  0.00    -0.043 C 
ATOM      7  C   UNL     1       4.206  -4.748  -0.615  0.00  0.00    -0.004 C 
ATOM      8  C   UNL     1       2.828  -4.275  -0.974  0.00  0.00    +0.135 C 
ENDROOT
BRANCH   6   9
ATOM      9  C   UNL     1       5.962  -6.298  -0.493  0.00  0.00    -0.016 C 
ATOM     10  C   UNL     1       6.346  -6.938   0.679  0.00  0.00    +0.006 A 
ATOM     11  C   UNL     1       5.612  -7.436   1.780  0.00  0.00    -0.041 A 
ATOM     12  C   UNL     1       6.265  -8.028   2.810  0.00  0.00    +0.004 A 
ATOM     13  C   UNL     1       7.657  -8.164   2.816  0.00  0.00    +0.002 A 
ATOM     14  C   UNL     1       8.424  -7.712   1.796  0.00  0.00    +0.026 A 
ATOM     15  C   UNL     1       7.814  -7.079   0.680  0.00  0.00    +0.043 A 
ATOM     16  N   UNL     1       8.326  -6.562  -0.416  0.00  0.00    -0.380 N 
ATOM     17  C   UNL     1       7.243  -6.036  -1.253  0.00  0.00    +0.149 C 
ATOM     18  C   UNL     1       4.111  -7.307   1.810  0.00  0.00    +0.044 C 
ATOM     19  H   UNL     1       9.270  -6.538  -0.638  0.00  0.00    +0.160 HD
ENDBRANCH   6   9
BRANCH   1  20
ATOM     20  C   UNL     1       1.364  -3.392  -3.273  0.00  0.00    +0.158 C 
BRANCH  20  21
ATOM     21  N   UNL     1       0.573  -3.227  -4.495  0.00  0.00    -0.316 N 
ATOM     22  C   UNL     1       0.722  -2.095  -5.265  0.00  0.00    +0.150 C 
ATOM     23  N   UNL     1       1.565  -1.174  -4.919  0.00  0.00    -0.113 NA
ATOM     24  S   UNL     1       1.452   0.013  -6.093  0.00  0.00    +0.101 S 
ATOM     25  O   UNL     1       2.676   0.027  -6.814  0.00  0.00    -0.146 OA
ATOM     26  O   UNL     1       0.886   1.168  -5.488  0.00  0.00    -0.146 OA
ATOM     27  C   UNL     1       0.217  -0.709  -7.139  0.00  0.00    +0.123 A 
ATOM     28  C   UNL     1      -0.068  -1.921  -6.494  0.00  0.00    +0.043 A 
ATOM     29  C   UNL     1      -1.029  -2.756  -7.084  0.00  0.00    +0.013 A 
ATOM     30  C   UNL     1      -1.650  -2.381  -8.255  0.00  0.00    +0.001 A 
ATOM     31  C   UNL     1      -1.344  -1.181  -8.871  0.00  0.00    +0.002 A 
ATOM     32  C   UNL     1      -0.402  -0.338  -8.296  0.00  0.00    +0.030 A 
ATOM     33  H   UNL     1      -0.057  -3.915  -4.761  0.00  0.00    +0.148 HD
ENDBRANCH  20  21
BRANCH  20  34
ATOM     34  C   UNL     1       0.662  -2.686  -2.111  0.00  0.00    +0.032 C 
BRANCH  34  35
ATOM     35  C   UNL     1       0.631  -1.179  -2.374  0.00  0.00    +0.002 C 
BRANCH  35  37
ATOM     36  C   UNL     1      -0.102   1.034  -1.474  0.00  0.00    +0.004 C 
ATOM     37  C   UNL     1      -0.071  -0.473  -1.212  0.00  0.00    -0.003 C 
ENDBRANCH  35  37
ENDBRANCH  34  35
ENDBRANCH  20  34
ENDBRANCH   1  20
TORSDOF 6
