REMARK  Name = ZINC38713666
REMARK  13 active torsions:
REMARK  status: ('A' for Active; 'I' for Inactive)
REMARK    1  A    between atoms: C_1  and  C_2
REMARK    2  A    between atoms: C_2  and  C_3
REMARK    3  A    between atoms: C_3  and  O_4
REMARK    4  A    between atoms: O_4  and  C_5
REMARK    5  A    between atoms: C_8  and  C_11
REMARK    6  A    between atoms: N_30  and  C_31
REMARK    7  A    between atoms: C_31  and  C_32
REMARK    8  A    between atoms: C_32  and  C_33
REMARK    9  A    between atoms: C_33  and  N_34
REMARK   10  A    between atoms: N_34  and  C_35
REMARK   11  A    between atoms: N_34  and  C_37
REMARK   12  A    between atoms: C_35  and  C_36
REMARK   13  A    between atoms: C_37  and  C_38
REMARK                            x       y       z     vdW  Elec       q    Type
REMARK                         _______ _______ _______ _____ _____    ______ ____
ROOT
ATOM      1  C   UNL     1      -6.670  -4.593  -0.045  0.00  0.00    +0.144 C 
ATOM      2  C   UNL     1      -6.970  -5.190  -1.381  0.00  0.00    +0.072 A 
ATOM      3  C   UNL     1      -7.287  -4.569  -2.670  0.00  0.00    +0.199 A 
ATOM      4  O   UNL     1      -7.177  -3.373  -2.879  0.00  0.00    -0.287 OA
ATOM      5  C   UNL     1      -7.754  -5.532  -3.697  0.00  0.00    +0.065 A 
ATOM      6  C   UNL     1      -8.290  -5.063  -4.909  0.00  0.00    +0.016 A 
ATOM      7  C   UNL     1      -8.728  -5.929  -5.854  0.00  0.00    +0.009 A 
ATOM      8  C   UNL     1      -8.649  -7.320  -5.631  0.00  0.00    -0.014 A 
ATOM      9  C   UNL     1      -9.103  -8.230  -6.599  0.00  0.00    +0.008 A 
ATOM     10  C   UNL     1      -9.014  -9.569  -6.362  0.00  0.00    +0.001 A 
ATOM     11  C   UNL     1      -8.478 -10.051  -5.171  0.00  0.00    +0.001 A 
ATOM     12  C   UNL     1      -8.029  -9.196  -4.210  0.00  0.00    +0.012 A 
ATOM     13  C   UNL     1      -8.108  -7.811  -4.420  0.00  0.00    +0.025 A 
ATOM     14  C   UNL     1      -7.652  -6.901  -3.435  0.00  0.00    +0.147 A 
ATOM     15  O   UNL     1      -7.134  -7.383  -2.286  0.00  0.00    -0.449 OA
ATOM     16  C   UNL     1      -6.916  -6.549  -1.251  0.00  0.00    +0.199 A 
ATOM     17  C   UNL     1      -6.592  -6.867   0.149  0.00  0.00    +0.283 C 
ATOM     18  O   UNL     1      -6.474  -7.990   0.599  0.00  0.00    -0.267 OA
ATOM     19  N   UNL     1      -6.447  -5.730   0.863  0.00  0.00    -0.284 N 
ENDROOT
BRANCH   1  23
ATOM     20  C   UNL     1      -3.156  -2.172  -0.268  0.00  0.00    +0.121 A 
ATOM     21  C   UNL     1      -4.409  -1.577  -0.248  0.00  0.00    +0.046 A 
ATOM     22  C   UNL     1      -5.544  -2.362  -0.176  0.00  0.00    +0.009 A 
ATOM     23  C   UNL     1      -5.431  -3.739  -0.124  0.00  0.00    -0.022 A 
ATOM     24  C   UNL     1      -4.183  -4.334  -0.143  0.00  0.00    +0.009 A 
ATOM     25  C   UNL     1      -3.046  -3.554  -0.221  0.00  0.00    +0.046 A 
BRANCH  20  26
ATOM     26  O   UNL     1      -2.038  -1.402  -0.339  0.00  0.00    -0.492 OA
BRANCH  26  27
ATOM     27  C   UNL     1      -2.228   0.014  -0.384  0.00  0.00    +0.229 C 
BRANCH  27  29
ATOM     28  C   UNL     1      -1.069   2.224  -0.510  0.00  0.00    +0.007 C 
ATOM     29  C   UNL     1      -0.867   0.708  -0.461  0.00  0.00    +0.038 C 
ENDBRANCH  27  29
ENDBRANCH  26  27
ENDBRANCH  20  26
ENDBRANCH   1  23
BRANCH  19  30
ATOM     30  C   UNL     1      -6.123  -5.642   2.289  0.00  0.00    +0.107 C 
BRANCH  30  31
ATOM     31  C   UNL     1      -7.417  -5.631   3.106  0.00  0.00    +0.000 C 
BRANCH  31  32
ATOM     32  C   UNL     1      -7.078  -5.539   4.595  0.00  0.00    -0.077 C 
BRANCH  32  33
ATOM     33  N   UNL     1      -8.318  -5.397   5.371  0.00  0.00    +0.379 N 
ATOM     34  H   UNL     1      -8.847  -4.613   5.019  0.00  0.00    -0.082 HD
BRANCH  33  35
ATOM     35  C   UNL     1      -9.117  -6.623   5.246  0.00  0.00    -0.082 C 
ATOM     36  C   UNL     1     -10.462  -6.429   5.949  0.00  0.00    -0.017 C 
ENDBRANCH  33  35
BRANCH  33  37
ATOM     37  C   UNL     1      -7.987  -5.170   6.784  0.00  0.00    -0.082 C 
ATOM     38  C   UNL     1      -7.279  -3.821   6.932  0.00  0.00    -0.017 C 
ENDBRANCH  33  37
ENDBRANCH  32  33
ENDBRANCH  31  32
ENDBRANCH  30  31
ENDBRANCH  19  30
TORSDOF 10
