REMARK  Name = ZINC54426392
REMARK  6 active torsions:
REMARK  status: ('A' for Active; 'I' for Inactive)
REMARK    1  A    between atoms: C_1  and  C_2
REMARK    2  A    between atoms: C_2  and  C_3
REMARK    3  A    between atoms: C_2  and  C_4
REMARK    4  A    between atoms: C_5  and  C_11
REMARK    5  A    between atoms: N_7  and  C_9
REMARK    6  A    between atoms: N_22  and  C_23
REMARK                            x       y       z     vdW  Elec       q    Type
REMARK                         _______ _______ _______ _____ _____    ______ ____
ROOT
ATOM      1  C   UNL     1      -1.276  -1.853  -2.266  0.00  0.00    +0.197 C 
ATOM      2  N   UNL     1       0.173  -1.926  -2.041  0.00  0.00    -0.321 N 
ATOM      3  C   UNL     1       0.668  -2.931  -1.218  0.00  0.00    +0.041 A 
ATOM      4  C   UNL     1       1.823  -2.766  -0.473  0.00  0.00    +0.024 A 
ATOM      5  C   UNL     1       2.270  -3.796   0.333  0.00  0.00    +0.002 A 
ATOM      6  C   UNL     1       1.570  -4.991   0.402  0.00  0.00    +0.001 A 
ATOM      7  C   UNL     1       0.418  -5.172  -0.335  0.00  0.00    +0.015 A 
ATOM      8  C   UNL     1      -0.042  -4.143  -1.153  0.00  0.00    +0.058 A 
ATOM      9  C   UNL     1      -1.263  -4.285  -1.967  0.00  0.00    +0.250 C 
ATOM     10  O   UNL     1      -1.765  -5.380  -2.136  0.00  0.00    -0.270 OA
ATOM     11  N   UNL     1      -1.814  -3.189  -2.520  0.00  0.00    -0.278 N 
ATOM     12  C   UNL     1      -2.979  -3.340  -3.395  0.00  0.00    +0.134 C 
ATOM     13  H   UNL     1       0.772  -1.287  -2.458  0.00  0.00    +0.148 HD
ENDROOT
BRANCH   1  15
ATOM     14  C   UNL     1      -1.540  -0.121  -0.358  0.00  0.00    +0.074 A 
ATOM     15  C   UNL     1      -1.941  -1.271  -1.045  0.00  0.00    +0.050 A 
ATOM     16  C   UNL     1      -3.034  -1.770  -0.419  0.00  0.00    +0.134 A 
ATOM     17  N   UNL     1      -3.313  -0.962   0.626  0.00  0.00    -0.255 N 
ATOM     18  N   UNL     1      -2.358   0.063   0.646  0.00  0.00    -0.174 NA
ATOM     19  C   UNL     1      -4.417  -1.130   1.574  0.00  0.00    +0.174 C 
ATOM     20 CL   UNL     1      -3.918  -3.192  -0.879  0.00  0.00    -0.062 Cl
BRANCH  14  22
ATOM     21  C   UNL     1      -0.852   2.175  -0.997  0.00  0.00    +0.014 C 
ATOM     22  C   UNL     1      -0.364   0.753  -0.711  0.00  0.00    +0.034 C 
ATOM     23  C   UNL     1       0.621   0.779   0.460  0.00  0.00    +0.014 C 
ENDBRANCH  14  22
ENDBRANCH   1  15
TORSDOF 2
