REMARK  Name = ZINC38857834
REMARK  8 active torsions:
REMARK  status: ('A' for Active; 'I' for Inactive)
REMARK    1  A    between atoms: C_1  and  C_2
REMARK    2  A    between atoms: C_2  and  O_3
REMARK    3  A    between atoms: O_3  and  C_4
REMARK    4  A    between atoms: C_4  and  C_6
REMARK    5  A    between atoms: C_10  and  N_11
REMARK    6  A    between atoms: C_12  and  C_14
REMARK    7  A    between atoms: N_17  and  C_20
REMARK    8  A    between atoms: C_20  and  C_21
REMARK                            x       y       z     vdW  Elec       q    Type
REMARK                         _______ _______ _______ _____ _____    ______ ____
ROOT
ATOM      1  N   UNL     1      -0.894  -3.185  -3.841  0.00  0.00    -0.279 N 
ATOM      2  C   UNL     1      -1.397  -3.396  -5.074  0.00  0.00    +0.221 C 
ATOM      3  O   UNL     1      -0.695  -3.867  -5.943  0.00  0.00    -0.275 OA
ATOM      4  H   UNL     1      -1.456  -2.808  -3.146  0.00  0.00    +0.155 HD
ENDROOT
BRANCH   1   9
ATOM      5  C   UNL     1       1.108  -3.358  -2.369  0.00  0.00    +0.091 A 
ATOM      6  C   UNL     1       2.498  -3.780  -2.340  0.00  0.00    -0.021 A 
ATOM      7  C   UNL     1       2.953  -4.265  -3.516  0.00  0.00    -0.004 A 
ATOM      8  S   UNL     1       1.568  -4.158  -4.611  0.00  0.00    -0.077 S 
ATOM      9  C   UNL     1       0.426  -3.505  -3.567  0.00  0.00    +0.086 A 
ATOM     10  C   UNL     1       4.331  -4.774  -3.806  0.00  0.00    +0.043 C 
ATOM     11  C   UNL     1       5.263  -4.316  -2.675  0.00  0.00    +0.005 C 
ATOM     12  C   UNL     1       4.599  -4.625  -1.330  0.00  0.00    +0.005 C 
ATOM     13  C   UNL     1       3.399  -3.700  -1.116  0.00  0.00    +0.037 C 
BRANCH   5  14
ATOM     14  C   UNL     1       0.454  -2.807  -1.181  0.00  0.00    +0.342 C 
ATOM     15  O   UNL     1      -0.114  -3.547  -0.400  0.00  0.00    -0.245 OA
BRANCH  14  16
ATOM     16  O   UNL     1       0.480  -1.478  -0.952  0.00  0.00    -0.461 OA
BRANCH  16  18
ATOM     17  C   UNL     1      -0.043   0.512   0.316  0.00  0.00    +0.048 C 
ATOM     18  C   UNL     1      -0.179  -1.009   0.227  0.00  0.00    +0.229 C 
ENDBRANCH  16  18
ENDBRANCH  14  16
ENDBRANCH   5  14
ENDBRANCH   1   9
BRANCH   2  19
ATOM     19  C   UNL     1      -2.833  -3.048  -5.371  0.00  0.00    +0.072 C 
ATOM     20  C   UNL     1      -3.054  -1.550  -5.143  0.00  0.00    -0.006 C 
ATOM     21  C   UNL     1      -4.492  -1.189  -5.523  0.00  0.00    -0.078 C 
ATOM     22  N   UNL     1      -4.723  -1.509  -6.937  0.00  0.00    +0.382 N 
ATOM     23  C   UNL     1      -4.583  -2.955  -7.149  0.00  0.00    -0.078 C 
ATOM     24  C   UNL     1      -3.149  -3.384  -6.832  0.00  0.00    -0.006 C 
ATOM     25  H   UNL     1      -4.050  -1.020  -7.506  0.00  0.00    -0.081 HD
BRANCH  22  26
ATOM     26  C   UNL     1      -6.079  -1.089  -7.317  0.00  0.00    -0.042 C 
BRANCH  26  27
ATOM     27  C   UNL     1      -6.268  -1.284  -8.799  0.00  0.00    -0.056 A 
ATOM     28  C   UNL     1      -6.982  -2.345  -9.265  0.00  0.00    +0.002 A 
ATOM     29  C   UNL     1      -7.168  -2.541 -10.632  0.00  0.00    +0.001 A 
ATOM     30  C   UNL     1      -6.639  -1.677 -11.542  0.00  0.00    +0.008 A 
ATOM     31  C   UNL     1      -5.895  -0.571 -11.099  0.00  0.00    -0.018 A 
ATOM     32  C   UNL     1      -5.712  -0.367  -9.708  0.00  0.00    -0.017 A 
ATOM     33  C   UNL     1      -4.973   0.743  -9.265  0.00  0.00    +0.009 A 
ATOM     34  C   UNL     1      -4.449   1.609 -10.175  0.00  0.00    +0.001 A 
ATOM     35  C   UNL     1      -4.634   1.413 -11.543  0.00  0.00    +0.001 A 
ATOM     36  C   UNL     1      -5.333   0.342 -12.008  0.00  0.00    +0.008 A 
ENDBRANCH  26  27
ENDBRANCH  22  26
ENDBRANCH   2  19
TORSDOF 7
