REMARK  Name = ZINC55176288
REMARK  5 active torsions:
REMARK  status: ('A' for Active; 'I' for Inactive)
REMARK    1  A    between atoms: C_1  and  C_2
REMARK    2  A    between atoms: C_3  and  C_8
REMARK    3  A    between atoms: N_10  and  C_11
REMARK    4  A    between atoms: C_11  and  C_17
REMARK    5  A    between atoms: C_17  and  O_18
REMARK                            x       y       z     vdW  Elec       q    Type
REMARK                         _______ _______ _______ _____ _____    ______ ____
ROOT
ATOM      1  C   UNL     1       1.064  -2.056  -3.286  0.00  0.00    +0.253 C 
ATOM      2  O   UNL     1       1.919  -2.333  -4.107  0.00  0.00    -0.270 OA
ATOM      3  N   UNL     1       0.050  -1.234  -3.619  0.00  0.00    -0.303 N 
ATOM      4  H   UNL     1      -0.672  -1.073  -2.991  0.00  0.00    +0.150 HD
ENDROOT
BRANCH   1   7
ATOM      5  C   UNL     1       3.254  -3.982  -2.177  0.00  0.00    +0.067 C 
ATOM      6  C   UNL     1       2.078  -3.473  -1.383  0.00  0.00    +0.060 A 
ATOM      7  C   UNL     1       1.137  -2.616  -1.937  0.00  0.00    +0.098 A 
ATOM      8  S   UNL     1       0.041  -2.388  -0.546  0.00  0.00    -0.048 S 
ATOM      9  C   UNL     1       0.856  -3.364   0.557  0.00  0.00    +0.156 A 
ATOM     10  N   UNL     1       1.887  -3.818  -0.135  0.00  0.00    -0.230 NA
ATOM     11  N   UNL     1       0.524  -3.630   1.868  0.00  0.00    -0.337 N 
ATOM     12  H   UNL     1      -0.270  -3.232   2.258  0.00  0.00    +0.144 HD
ATOM     13  H   UNL     1       1.085  -4.216   2.400  0.00  0.00    +0.144 HD
ENDBRANCH   1   7
BRANCH   3  14
ATOM     14  C   UNL     1       0.037  -0.582  -4.931  0.00  0.00    +0.058 C 
ATOM     15  C   UNL     1      -1.174   0.349  -5.026  0.00  0.00    +0.028 C 
ATOM     16  C   UNL     1      -2.458  -0.464  -4.848  0.00  0.00    +0.002 C 
ATOM     17  C   UNL     1      -2.544  -1.527  -5.945  0.00  0.00    +0.000 C 
ATOM     18  C   UNL     1      -1.334  -2.458  -5.850  0.00  0.00    +0.002 C 
ATOM     19  C   UNL     1      -0.050  -1.645  -6.028  0.00  0.00    +0.028 C 
BRANCH  14  20
ATOM     20  C   UNL     1       1.321   0.231  -5.109  0.00  0.00    +0.181 C 
BRANCH  20  21
ATOM     21  O   UNL     1       1.466   1.138  -4.014  0.00  0.00    -0.393 OA
ATOM     22  H   UNL     1       2.260   1.687  -4.061  0.00  0.00    +0.209 HD
ENDBRANCH  20  21
ENDBRANCH  14  20
ENDBRANCH   3  14
TORSDOF 4
