REMARK  Name = ZINC08790629
REMARK  6 active torsions:
REMARK  status: ('A' for Active; 'I' for Inactive)
REMARK    1  A    between atoms: C_1  and  C_2
REMARK    2  A    between atoms: C_2  and  C_3
REMARK    3  A    between atoms: C_14  and  C_16
REMARK    4  A    between atoms: C_16  and  C_17
REMARK    5  A    between atoms: N_22  and  C_25
REMARK    6  A    between atoms: C_25  and  C_26
REMARK                            x       y       z     vdW  Elec       q    Type
REMARK                         _______ _______ _______ _____ _____    ______ ____
ROOT
ATOM      1  C   UNL     1       0.990   6.323  -0.758  0.00  0.00    -0.047 A 
ATOM      2  C   UNL     1       2.213   6.783  -1.213  0.00  0.00    +0.005 A 
ATOM      3  C   UNL     1       3.165   5.895  -1.669  0.00  0.00    +0.024 A 
ATOM      4  C   UNL     1       2.901   4.527  -1.675  0.00  0.00    +0.036 A 
ATOM      5  C   UNL     1       1.667   4.076  -1.216  0.00  0.00    -0.027 A 
ATOM      6  C   UNL     1       0.720   4.966  -0.761  0.00  0.00    +0.008 A 
ATOM      7  C   UNL     1       1.700   2.581  -1.353  0.00  0.00    +0.050 C 
ATOM      8  C   UNL     1       1.489   1.887  -0.002  0.00  0.00    +0.088 C 
ATOM      9  C   UNL     1      -0.018   1.507   0.010  0.00  0.00    +0.073 C 
ATOM     10  C   UNL     1      -0.568   2.018  -1.338  0.00  0.00    -0.049 C 
ATOM     11  C   UNL     1       0.002  -0.004   0.002  0.00  0.00    +0.224 C 
ATOM     12  O   UNL     1      -0.978  -0.718   0.001  0.00  0.00    -0.275 OA
ATOM     13  N   UNL     1       1.270  -0.431  -0.005  0.00  0.00    -0.237 N 
ATOM     14  C   UNL     1       2.185   0.545  -0.006  0.00  0.00    +0.225 C 
ATOM     15  O   UNL     1       3.386   0.379  -0.011  0.00  0.00    -0.275 OA
ATOM     16  C   UNL     1       3.056   2.269  -1.925  0.00  0.00    +0.211 C 
ATOM     17  O   UNL     1       3.494   1.171  -2.193  0.00  0.00    -0.277 OA
ATOM     18  N   UNL     1       3.689   3.448  -2.081  0.00  0.00    -0.286 N 
ATOM     19  H   UNL     1       4.589   3.537  -2.434  0.00  0.00    +0.155 HD
ATOM     20  N   UNL     1       0.617   2.102  -2.195  0.00  0.00    +0.394 N 
ATOM     21  H   UNL     1       0.846   1.177  -2.576  0.00  0.00    -0.083 HD
ATOM     22  H   UNL     1       0.451   2.758  -2.967  0.00  0.00    -0.083 HD
ENDROOT
BRANCH   1  24
ATOM     23  C   UNL     1      -0.934   7.738  -1.426  0.00  0.00    +0.009 C 
ATOM     24  C   UNL     1      -0.046   7.298  -0.261  0.00  0.00    +0.032 C 
ENDBRANCH   1  24
BRANCH  10  25
ATOM     25  C   UNL     1      -1.595   1.035  -1.902  0.00  0.00    +0.080 C 
BRANCH  25  26
ATOM     26  C   UNL     1      -2.208   1.609  -3.153  0.00  0.00    +0.209 C 
ATOM     27  O   UNL     1      -1.857   2.699  -3.554  0.00  0.00    -0.276 OA
ATOM     28  N   UNL     1      -3.145   0.913  -3.825  0.00  0.00    -0.329 N 
ATOM     29  H   UNL     1      -3.426   0.042  -3.504  0.00  0.00    +0.145 HD
ATOM     30  H   UNL     1      -3.539   1.283  -4.631  0.00  0.00    +0.145 HD
ENDBRANCH  25  26
ENDBRANCH  10  25
BRANCH  13  31
ATOM     31  C   UNL     1       1.627  -1.852  -0.011  0.00  0.00    +0.151 C 
BRANCH  31  32
ATOM     32  C   UNL     1       1.742  -2.335  -1.434  0.00  0.00    -0.026 A 
ATOM     33  C   UNL     1       0.634  -2.854  -2.078  0.00  0.00    +0.009 A 
ATOM     34  C   UNL     1       0.734  -3.294  -3.385  0.00  0.00    +0.050 A 
ATOM     35  C   UNL     1       1.948  -3.226  -4.049  0.00  0.00    +0.166 A 
ATOM     36  C   UNL     1       3.066  -2.708  -3.398  0.00  0.00    +0.167 A 
ATOM     37  C   UNL     1       2.957  -2.264  -2.090  0.00  0.00    +0.054 A 
ATOM     38  O   UNL     1       4.127  -2.749  -4.255  0.00  0.00    -0.453 OA
ATOM     39  C   UNL     1       3.557  -2.916  -5.566  0.00  0.00    +0.466 C 
ATOM     40  O   UNL     1       2.310  -3.591  -5.313  0.00  0.00    -0.453 OA
ENDBRANCH  31  32
ENDBRANCH  13  31
TORSDOF 5
