REMARK  Name = ZINC12217912
REMARK  10 active torsions:
REMARK  status: ('A' for Active; 'I' for Inactive)
REMARK    1  A    between atoms: C_1  and  C_2
REMARK    2  A    between atoms: C_4  and  C_37
REMARK    3  A    between atoms: N_5  and  C_7
REMARK    4  A    between atoms: C_7  and  C_8
REMARK    5  A    between atoms: C_8  and  C_9
REMARK    6  A    between atoms: N_11  and  C_12
REMARK    7  A    between atoms: N_11  and  C_18
REMARK    8  A    between atoms: C_12  and  C_13
REMARK    9  A    between atoms: C_18  and  C_19
REMARK   10  A    between atoms: C_27  and  N_28
REMARK                            x       y       z     vdW  Elec       q    Type
REMARK                         _______ _______ _______ _____ _____    ______ ____
ROOT
ATOM      1  C   UNL     1      -0.236  -4.820  -0.040  0.00  0.00    +0.008 A 
ATOM      2  C   UNL     1      -0.501  -4.356  -1.293  0.00  0.00    +0.018 A 
ATOM      3  C   UNL     1      -0.518  -2.962  -1.500  0.00  0.00    -0.001 A 
ATOM      4  C   UNL     1      -0.785  -2.414  -2.763  0.00  0.00    +0.014 A 
ATOM      5  C   UNL     1      -0.792  -1.060  -2.932  0.00  0.00    -0.043 A 
ATOM      6  C   UNL     1      -0.536  -0.208  -1.857  0.00  0.00    -0.042 A 
ATOM      7  C   UNL     1      -0.275  -0.711  -0.616  0.00  0.00    +0.030 A 
ATOM      8  C   UNL     1      -0.260  -2.099  -0.406  0.00  0.00    +0.048 A 
ATOM      9  C   UNL     1       0.010  -3.915   1.002  0.00  0.00    +0.104 A 
ATOM     10  C   UNL     1      -0.606   1.231  -2.325  0.00  0.00    +0.036 C 
ATOM     11  C   UNL     1      -0.492   1.164  -3.862  0.00  0.00    +0.009 C 
ATOM     12  C   UNL     1      -1.049  -0.239  -4.179  0.00  0.00    +0.036 C 
ATOM     13  N   UNL     1       0.007  -2.566   0.862  0.00  0.00    -0.343 N 
ATOM     14  H   UNL     1       0.191  -1.934   1.650  0.00  0.00    +0.167 HD
ENDROOT
BRANCH   9  15
ATOM     15  N   UNL     1       0.277  -4.402   2.273  0.00  0.00    -0.312 N 
ATOM     16  C   UNL     1      -0.817  -4.082   3.201  0.00  0.00    +0.134 C 
ATOM     17  C   UNL     1      -0.510  -4.688   4.573  0.00  0.00    +0.178 C 
ATOM     18  O   UNL     1       0.752  -4.196   5.034  0.00  0.00    -0.377 OA
ATOM     19  C   UNL     1       1.840  -4.490   4.154  0.00  0.00    +0.178 C 
ATOM     20  C   UNL     1       1.557  -3.882   2.778  0.00  0.00    +0.134 C 
ENDBRANCH   9  15
BRANCH   1  21
ATOM     21  C   UNL     1      -0.207  -6.303   0.226  0.00  0.00    +0.146 C 
BRANCH  21  24
ATOM     22  C   UNL     1       0.243  -7.295  -1.954  0.00  0.00    +0.218 C 
ATOM     23  O   UNL     1       1.399  -6.945  -1.843  0.00  0.00    -0.276 OA
ATOM     24  N   UNL     1      -0.641  -7.023  -0.974  0.00  0.00    -0.290 N 
BRANCH  22  25
ATOM     25  C   UNL     1      -0.204  -8.035  -3.188  0.00  0.00    +0.119 C 
BRANCH  25  26
ATOM     26  C   UNL     1       0.985  -8.213  -4.135  0.00  0.00    +0.153 C 
BRANCH  26  31
ATOM     27  C   UNL     1      -0.782  -9.134  -8.742  0.00  0.00    +0.067 C 
ATOM     28  C   UNL     1      -0.225  -9.313  -7.353  0.00  0.00    +0.060 A 
ATOM     29  C   UNL     1       0.081 -10.534  -6.743  0.00  0.00    +0.047 A 
ATOM     30  C   UNL     1       0.561 -10.271  -5.505  0.00  0.00    +0.036 A 
ATOM     31  N   UNL     1       0.550  -8.933  -5.335  0.00  0.00    -0.268 N 
ATOM     32  N   UNL     1       0.056  -8.352  -6.510  0.00  0.00    -0.176 NA
ATOM     33  C   UNL     1       1.022 -11.292  -4.497  0.00  0.00    +0.065 C 
ENDBRANCH  26  31
ENDBRANCH  25  26
ENDBRANCH  22  25
BRANCH  24  34
ATOM     34  C   UNL     1      -2.037  -7.446  -1.109  0.00  0.00    +0.182 C 
BRANCH  34  35
ATOM     35  C   UNL     1      -2.857  -6.307  -1.659  0.00  0.00    +0.122 A 
ATOM     36  C   UNL     1      -3.116  -6.080  -2.959  0.00  0.00    +0.046 A 
ATOM     37  C   UNL     1      -3.914  -4.915  -3.020  0.00  0.00    +0.041 A 
ATOM     38  C   UNL     1      -4.095  -4.499  -1.754  0.00  0.00    +0.195 A 
ATOM     39  O   UNL     1      -3.457  -5.349  -0.933  0.00  0.00    -0.466 OA
ENDBRANCH  34  35
ENDBRANCH  24  34
ENDBRANCH  21  24
ENDBRANCH   1  21
TORSDOF 8
