REMARK  Name = ZINC38582448
REMARK  9 active torsions:
REMARK  status: ('A' for Active; 'I' for Inactive)
REMARK    1  A    between atoms: C_1  and  C_2
REMARK    2  A    between atoms: C_2  and  O_3
REMARK    3  A    between atoms: O_3  and  C_4
REMARK    4  A    between atoms: C_4  and  C_6
REMARK    5  A    between atoms: C_8  and  N_17
REMARK    6  A    between atoms: C_18  and  C_20
REMARK    7  A    between atoms: C_20  and  N_21
REMARK    8  A    between atoms: N_21  and  C_22
REMARK    9  A    between atoms: N_21  and  C_23
REMARK                            x       y       z     vdW  Elec       q    Type
REMARK                         _______ _______ _______ _____ _____    ______ ____
ROOT
ATOM      1  C   UNL     1      -2.696  -2.448  -0.088  0.00  0.00    +0.234 C 
ATOM      2  C   UNL     1      -3.522  -2.307  -1.347  0.00  0.00    +0.053 C 
ATOM      3  C   UNL     1      -3.970  -3.582  -1.647  0.00  0.00    +0.019 A 
ATOM      4  C   UNL     1      -4.776  -4.089  -2.695  0.00  0.00    +0.026 A 
ATOM      5  C   UNL     1      -5.062  -5.415  -2.741  0.00  0.00    +0.019 A 
ATOM      6  C   UNL     1      -4.577  -6.303  -1.776  0.00  0.00    +0.017 A 
ATOM      7  C   UNL     1      -3.801  -5.888  -0.747  0.00  0.00    +0.027 A 
ATOM      8  C   UNL     1      -3.459  -4.516  -0.629  0.00  0.00    +0.045 A 
ATOM      9  N   UNL     1      -2.732  -3.871   0.264  0.00  0.00    -0.367 N 
ATOM     10 BR   UNL     1      -6.140  -6.077  -4.146  0.00  0.00    -0.050 Br
ATOM     11  H   UNL     1      -2.291  -4.273   1.028  0.00  0.00    +0.161 HD
ENDROOT
BRANCH   2  12
ATOM     12  N   UNL     1      -3.775  -1.162  -2.042  0.00  0.00    -0.288 N 
ATOM     13  C   UNL     1      -3.380   0.027  -1.546  0.00  0.00    +0.200 C 
ATOM     14  O   UNL     1      -2.710   0.071  -0.536  0.00  0.00    -0.278 OA
ATOM     15  H   UNL     1      -4.238  -1.204  -2.893  0.00  0.00    +0.155 HD
BRANCH  13  16
ATOM     16  C   UNL     1      -3.771   1.303  -2.247  0.00  0.00    +0.018 C 
BRANCH  16  17
ATOM     17  N   UNL     1      -3.222   2.452  -1.515  0.00  0.00    +0.382 N 
ATOM     18  C   UNL     1      -3.501   3.686  -2.261  0.00  0.00    -0.096 C 
ATOM     19  C   UNL     1      -3.846   2.530  -0.187  0.00  0.00    -0.096 C 
ATOM     20  H   UNL     1      -2.225   2.339  -1.411  0.00  0.00    -0.082 HD
ENDBRANCH  16  17
ENDBRANCH  13  16
ENDBRANCH   2  12
BRANCH   1  21
ATOM     21  C   UNL     1      -1.277  -2.013  -0.347  0.00  0.00    +0.336 C 
ATOM     22  O   UNL     1      -0.529  -2.729  -0.969  0.00  0.00    -0.248 OA
BRANCH  21  23
ATOM     23  O   UNL     1      -0.844  -0.829   0.114  0.00  0.00    -0.463 OA
BRANCH  23  25
ATOM     24  C   UNL     1       0.822   0.893   0.432  0.00  0.00    +0.048 C 
ATOM     25  C   UNL     1       0.513  -0.480  -0.168  0.00  0.00    +0.229 C 
ENDBRANCH  23  25
ENDBRANCH  21  23
ENDBRANCH   1  21
TORSDOF 6
