REMARK  Name = ZINC02367454
REMARK  5 active torsions:
REMARK  status: ('A' for Active; 'I' for Inactive)
REMARK    1  A    between atoms: C_1  and  C_2
REMARK    2  A    between atoms: C_2  and  C_3
REMARK    3  A    between atoms: C_2  and  O_4
REMARK    4  A    between atoms: O_4  and  C_5
REMARK    5  A    between atoms: C_8  and  C_11
REMARK                            x       y       z     vdW  Elec       q    Type
REMARK                         _______ _______ _______ _____ _____    ______ ____
ROOT
ATOM      1  C   UNL     1      -3.765   6.678   0.686  0.00  0.00    +0.151 C 
ATOM      2  C   UNL     1      -5.087   6.364   0.035  0.00  0.00    +0.072 A 
ATOM      3  C   UNL     1      -6.201   5.494   0.419  0.00  0.00    +0.199 A 
ATOM      4  O   UNL     1      -6.177   4.840   1.447  0.00  0.00    -0.287 OA
ATOM      5  C   UNL     1      -7.355   5.449  -0.501  0.00  0.00    +0.066 A 
ATOM      6  C   UNL     1      -8.468   4.654  -0.233  0.00  0.00    +0.035 A 
ATOM      7  C   UNL     1      -9.523   4.642  -1.119  0.00  0.00    +0.042 A 
ATOM      8  C   UNL     1      -9.476   5.417  -2.271  0.00  0.00    +0.023 A 
ATOM      9  C   UNL     1      -8.382   6.207  -2.546  0.00  0.00    +0.048 A 
ATOM     10  C   UNL     1      -7.304   6.234  -1.665  0.00  0.00    +0.140 A 
ATOM     11  O   UNL     1      -6.229   7.001  -1.925  0.00  0.00    -0.450 OA
ATOM     12  C   UNL     1      -5.152   7.076  -1.117  0.00  0.00    +0.199 A 
ATOM     13  C   UNL     1      -3.901   7.862  -1.253  0.00  0.00    +0.289 C 
ATOM     14  O   UNL     1      -3.645   8.606  -2.178  0.00  0.00    -0.266 OA
ATOM     15  N   UNL     1      -3.092   7.631  -0.204  0.00  0.00    -0.230 N 
ATOM     16  C   UNL     1      -1.840   8.196   0.000  0.00  0.00    +0.191 A 
ATOM     17  N   UNL     1      -0.982   8.032   0.999  0.00  0.00    -0.126 NA
ATOM     18  N   UNL     1       0.130   8.626   1.025  0.00  0.00    -0.148 NA
ATOM     19  C   UNL     1       0.505   9.455   0.071  0.00  0.00    +0.183 A 
ATOM     20  S   UNL     1      -0.923   9.360  -1.005  0.00  0.00    -0.038 S 
ATOM     21 CL   UNL     1     -10.915   3.656  -0.795  0.00  0.00    -0.084 Cl
ENDROOT
BRANCH   1  25
ATOM     22  C   UNL     1      -1.430   3.119   1.065  0.00  0.00    +0.121 A 
ATOM     23  C   UNL     1      -1.515   3.767  -0.158  0.00  0.00    +0.046 A 
ATOM     24  C   UNL     1      -2.275   4.914  -0.280  0.00  0.00    +0.009 A 
ATOM     25  C   UNL     1      -2.941   5.422   0.820  0.00  0.00    -0.022 A 
ATOM     26  C   UNL     1      -2.854   4.782   2.042  0.00  0.00    +0.009 A 
ATOM     27  C   UNL     1      -2.100   3.631   2.167  0.00  0.00    +0.046 A 
BRANCH  22  28
ATOM     28  O   UNL     1      -0.688   1.987   1.186  0.00  0.00    -0.489 OA
BRANCH  28  30
ATOM     29  C   UNL     1       0.743   0.616   2.570  0.00  0.00    +0.051 C 
ATOM     30  C   UNL     1      -0.542   1.443   2.500  0.00  0.00    +0.167 C 
ATOM     31  C   UNL     1      -1.742   0.549   2.817  0.00  0.00    +0.051 C 
ENDBRANCH  28  30
ENDBRANCH  22  28
ENDBRANCH   1  25
TORSDOF 3
