REMARK  Name = ZINC03655714
REMARK  8 active torsions:
REMARK  status: ('A' for Active; 'I' for Inactive)
REMARK    1  A    between atoms: C_1  and  C_2
REMARK    2  A    between atoms: C_2  and  C_3
REMARK    3  A    between atoms: C_3  and  O_4
REMARK    4  A    between atoms: O_4  and  C_5
REMARK    5  A    between atoms: C_8  and  C_14
REMARK    6  A    between atoms: C_10  and  O_11
REMARK    7  A    between atoms: O_11  and  C_12
REMARK    8  A    between atoms: C_12  and  C_13
REMARK                            x       y       z     vdW  Elec       q    Type
REMARK                         _______ _______ _______ _____ _____    ______ ____
ROOT
ATOM      1  C   UNL     1       1.671   7.406   0.026  0.00  0.00    +0.152 C 
ATOM      2  C   UNL     1       1.248   5.960   0.022  0.00  0.00    +0.072 A 
ATOM      3  C   UNL     1      -0.065   5.309   0.031  0.00  0.00    +0.199 A 
ATOM      4  O   UNL     1      -1.098   5.954   0.045  0.00  0.00    -0.287 OA
ATOM      5  C   UNL     1      -0.072   3.833   0.023  0.00  0.00    +0.064 A 
ATOM      6  C   UNL     1      -1.265   3.112   0.030  0.00  0.00    +0.015 A 
ATOM      7  C   UNL     1      -1.228   1.745   0.017  0.00  0.00    +0.001 A 
ATOM      8  C   UNL     1      -0.013   1.076   0.008  0.00  0.00    +0.004 A 
ATOM      9  C   UNL     1       1.176   1.772   0.000  0.00  0.00    +0.047 A 
ATOM     10  C   UNL     1       1.164   3.165   0.008  0.00  0.00    +0.139 A 
ATOM     11  O   UNL     1       2.316   3.860   0.000  0.00  0.00    -0.450 OA
ATOM     12  C   UNL     1       2.375   5.206   0.007  0.00  0.00    +0.199 A 
ATOM     13  C   UNL     1       3.546   6.117   0.001  0.00  0.00    +0.289 C 
ATOM     14  O   UNL     1       4.707   5.758  -0.012  0.00  0.00    -0.266 OA
ATOM     15  N   UNL     1       3.139   7.398   0.012  0.00  0.00    -0.230 N 
ATOM     16  C   UNL     1       3.961   8.517   0.009  0.00  0.00    +0.191 A 
ATOM     17  N   UNL     1       3.649   9.806   0.013  0.00  0.00    -0.126 NA
ATOM     18  N   UNL     1       4.534  10.705   0.015  0.00  0.00    -0.148 NA
ATOM     19  C   UNL     1       5.822  10.422   0.001  0.00  0.00    +0.183 A 
ATOM     20  S   UNL     1       5.748   8.633  -0.007  0.00  0.00    -0.038 S 
ENDROOT
BRANCH   1  24
ATOM     21  C   UNL     1       0.246   9.347   3.560  0.00  0.00    +0.162 A 
ATOM     22  C   UNL     1       1.386   8.560   3.610  0.00  0.00    +0.050 A 
ATOM     23  C   UNL     1       1.841   7.930   2.467  0.00  0.00    +0.009 A 
ATOM     24  C   UNL     1       1.167   8.091   1.270  0.00  0.00    -0.018 A 
ATOM     25  C   UNL     1       0.029   8.874   1.214  0.00  0.00    +0.055 A 
ATOM     26  C   UNL     1      -0.435   9.505   2.357  0.00  0.00    +0.162 A 
BRANCH  21  27
ATOM     27  O   UNL     1      -0.206   9.963   4.685  0.00  0.00    -0.488 OA
BRANCH  27  28
ATOM     28  C   UNL     1       0.544   9.756   5.884  0.00  0.00    +0.229 C 
BRANCH  28  30
ATOM     29  C   UNL     1       0.690  10.301   8.318  0.00  0.00    +0.007 C 
ATOM     30  C   UNL     1      -0.112  10.523   7.034  0.00  0.00    +0.038 C 
ENDBRANCH  28  30
ENDBRANCH  27  28
ENDBRANCH  21  27
BRANCH  26  31
ATOM     31  O   UNL     1      -1.554  10.275   2.304  0.00  0.00    -0.489 OA
BRANCH  31  32
ATOM     32  C   UNL     1      -2.202  10.391   1.035  0.00  0.00    +0.226 C 
ATOM     33  C   UNL     1      -3.432  11.291   1.171  0.00  0.00    +0.048 C 
ENDBRANCH  31  32
ENDBRANCH  26  31
ENDBRANCH   1  24
TORSDOF 6
