REMARK  Name = ZINC23421294
REMARK  9 active torsions:
REMARK  status: ('A' for Active; 'I' for Inactive)
REMARK    1  A    between atoms: C_1  and  C_2
REMARK    2  A    between atoms: C_5  and  C_8
REMARK    3  A    between atoms: C_11  and  S_14
REMARK    4  A    between atoms: N_12  and  N_13
REMARK    5  A    between atoms: S_14  and  C_15
REMARK    6  A    between atoms: C_15  and  C_16
REMARK    7  A    between atoms: N_18  and  C_19
REMARK    8  A    between atoms: C_19  and  C_21
REMARK    9  A    between atoms: C_19  and  C_22
REMARK                            x       y       z     vdW  Elec       q    Type
REMARK                         _______ _______ _______ _____ _____    ______ ____
ROOT
ATOM      1  C   UNL     1       0.971   0.648  -4.656  0.00  0.00    +0.182 A 
ATOM      2  N   UNL     1       1.706  -0.022  -3.799  0.00  0.00    -0.127 NA
ATOM      3  N   UNL     1       1.200   0.071  -2.621  0.00  0.00    -0.121 NA
ATOM      4  C   UNL     1       0.106   0.799  -2.655  0.00  0.00    +0.209 A 
ATOM      5  N   UNL     1      -0.076   1.194  -3.950  0.00  0.00    -0.224 N 
ENDROOT
BRANCH   1  10
ATOM      6  C   UNL     1       1.946   1.199 -10.300  0.00  0.00    +0.044 C 
ATOM      7  C   UNL     1       1.691   1.054  -8.822  0.00  0.00    -0.050 A 
ATOM      8  C   UNL     1       0.825   1.925  -8.185  0.00  0.00    +0.004 A 
ATOM      9  C   UNL     1       0.587   1.798  -6.832  0.00  0.00    +0.012 A 
ATOM     10  C   UNL     1       1.222   0.789  -6.106  0.00  0.00    +0.021 A 
ATOM     11  C   UNL     1       2.099  -0.082  -6.754  0.00  0.00    +0.012 A 
ATOM     12  C   UNL     1       2.324   0.053  -8.108  0.00  0.00    +0.004 A 
ENDBRANCH   1  10
BRANCH   5  13
ATOM     13  N   UNL     1      -1.087   1.970  -4.441  0.00  0.00    -0.295 N 
ATOM     14  H   UNL     1      -1.869   2.347  -3.765  0.00  0.00    +0.163 HD
ATOM     15  H   UNL     1      -1.119   2.219  -5.512  0.00  0.00    +0.163 HD
ENDBRANCH   5  13
BRANCH   4  16
ATOM     16  S   UNL     1      -0.928   1.196  -1.285  0.00  0.00    -0.075 S 
BRANCH  16  17
ATOM     17  C   UNL     1      -0.046   0.330   0.036  0.00  0.00    +0.173 C 
BRANCH  17  18
ATOM     18  C   UNL     1      -0.770   0.535   1.342  0.00  0.00    +0.224 C 
ATOM     19  O   UNL     1      -1.783   1.201   1.375  0.00  0.00    -0.275 OA
ATOM     20  N   UNL     1      -0.292  -0.023   2.472  0.00  0.00    -0.308 N 
ATOM     21  H   UNL     1       0.626  -0.627   2.442  0.00  0.00    +0.149 HD
BRANCH  20  22
ATOM     22  C   UNL     1      -0.997   0.177   3.741  0.00  0.00    +0.100 C 
ATOM     23  C   UNL     1      -2.112  -0.862   3.875  0.00  0.00    +0.033 C 
BRANCH  22  24
ATOM     24  C   UNL     1      -0.026   0.021   4.884  0.00  0.00    -0.027 A 
ATOM     25  C   UNL     1       0.935  -0.972   4.845  0.00  0.00    +0.006 A 
ATOM     26  C   UNL     1       1.828  -1.111   5.890  0.00  0.00    +0.015 A 
ATOM     27  C   UNL     1       1.754  -0.264   6.981  0.00  0.00    +0.018 A 
ATOM     28  C   UNL     1       0.789   0.727   7.022  0.00  0.00    +0.015 A 
ATOM     29  C   UNL     1      -0.101   0.869   5.974  0.00  0.00    +0.006 A 
ATOM     30 BR   UNL     1       2.971  -0.459   8.415  0.00  0.00    -0.050 Br
ENDBRANCH  22  24
ENDBRANCH  20  22
ENDBRANCH  17  18
ENDBRANCH  16  17
ENDBRANCH   4  16
TORSDOF 7
