REMARK  Name = ZINC34793403
REMARK  9 active torsions:
REMARK  status: ('A' for Active; 'I' for Inactive)
REMARK    1  A    between atoms: C_1  and  C_2
REMARK    2  A    between atoms: C_2  and  N_3
REMARK    3  A    between atoms: C_6  and  C_11
REMARK    4  A    between atoms: N_21  and  C_23
REMARK    5  A    between atoms: C_23  and  C_25
REMARK    6  A    between atoms: C_23  and  C_26
REMARK    7  A    between atoms: N_28  and  C_29
REMARK    8  A    between atoms: C_29  and  C_30
REMARK    9  A    between atoms: C_30  and  C_31
REMARK                            x       y       z     vdW  Elec       q    Type
REMARK                         _______ _______ _______ _____ _____    ______ ____
ROOT
ATOM      1  N   UNL     1       0.425  -0.496  -1.371  0.00  0.00    -0.257 N 
ATOM      2  C   UNL     1      -0.200  -0.843  -2.534  0.00  0.00    +0.042 C 
ATOM      3  C   UNL     1       0.501  -1.278  -3.601  0.00  0.00    +0.058 C 
ATOM      4  C   UNL     1       2.007  -1.367  -3.465  0.00  0.00    +0.143 C 
ATOM      5  N   UNL     1       2.585  -0.970  -2.170  0.00  0.00    -0.288 N 
ATOM      6  C   UNL     1       1.752  -0.551  -1.197  0.00  0.00    +0.307 C 
ATOM      7  O   UNL     1       2.220  -0.217  -0.126  0.00  0.00    -0.252 OA
ATOM      8  C   UNL     1      -0.368  -1.571  -4.672  0.00  0.00    +0.247 C 
ATOM      9  O   UNL     1      -0.006  -1.982  -5.759  0.00  0.00    -0.270 OA
ATOM     10  N   UNL     1      -1.650  -1.338  -4.336  0.00  0.00    -0.281 N 
ATOM     11  C   UNL     1      -1.655  -0.855  -2.947  0.00  0.00    +0.160 C 
ATOM     12  H   UNL     1       3.543  -1.006  -2.022  0.00  0.00    +0.151 HD
ENDROOT
BRANCH   4  13
ATOM     13  C   UNL     1       2.623  -0.500  -4.533  0.00  0.00    -0.004 A 
ATOM     14  C   UNL     1       1.862   0.469  -5.160  0.00  0.00    +0.008 A 
ATOM     15  C   UNL     1       2.426   1.264  -6.139  0.00  0.00    +0.020 A 
ATOM     16  C   UNL     1       3.753   1.091  -6.493  0.00  0.00    +0.042 A 
ATOM     17  C   UNL     1       4.514   0.122  -5.866  0.00  0.00    +0.040 A 
ATOM     18  C   UNL     1       3.951  -0.671  -4.882  0.00  0.00    +0.048 A 
ATOM     19 CL   UNL     1       4.907  -1.884  -4.091  0.00  0.00    -0.083 Cl
ATOM     20 CL   UNL     1       4.460   2.090  -7.724  0.00  0.00    -0.083 Cl
ENDBRANCH   4  13
BRANCH   1  22
ATOM     21  C   UNL     1      -0.570   1.486  -0.339  0.00  0.00    +0.025 C 
ATOM     22  C   UNL     1      -0.401  -0.032  -0.253  0.00  0.00    +0.111 C 
ENDBRANCH   1  22
BRANCH  10  23
ATOM     23  C   UNL     1      -2.822  -1.529  -5.194  0.00  0.00    +0.159 C 
ATOM     24  C   UNL     1      -2.909  -2.996  -5.619  0.00  0.00    +0.038 C 
BRANCH  23  25
ATOM     25  C   UNL     1      -2.696  -0.658  -6.418  0.00  0.00    +0.233 C 
ATOM     26  O   UNL     1      -1.723   0.052  -6.559  0.00  0.00    -0.274 OA
ATOM     27  N   UNL     1      -3.665  -0.668  -7.354  0.00  0.00    -0.313 N 
ATOM     28  H   UNL     1      -4.443  -1.237  -7.241  0.00  0.00    +0.149 HD
BRANCH  27  29
ATOM     29  C   UNL     1      -3.543   0.178  -8.544  0.00  0.00    +0.109 C 
BRANCH  29  30
ATOM     30  C   UNL     1      -4.767  -0.022  -9.440  0.00  0.00    +0.054 C 
BRANCH  30  31
ATOM     31  C   UNL     1      -4.641   0.849 -10.663  0.00  0.00    -0.046 A 
ATOM     32  C   UNL     1      -5.143   2.137 -10.649  0.00  0.00    +0.004 A 
ATOM     33  C   UNL     1      -5.028   2.936 -11.771  0.00  0.00    +0.000 A 
ATOM     34  C   UNL     1      -4.410   2.447 -12.908  0.00  0.00    +0.000 A 
ATOM     35  C   UNL     1      -3.908   1.159 -12.921  0.00  0.00    +0.000 A 
ATOM     36  C   UNL     1      -4.019   0.362 -11.798  0.00  0.00    +0.004 A 
ENDBRANCH  30  31
ENDBRANCH  29  30
ENDBRANCH  27  29
ENDBRANCH  23  25
ENDBRANCH  10  23
TORSDOF 7
