REMARK  Name = ZINC16827998
REMARK  9 active torsions:
REMARK  status: ('A' for Active; 'I' for Inactive)
REMARK    1  A    between atoms: C_1  and  C_2
REMARK    2  A    between atoms: C_5  and  N_8
REMARK    3  A    between atoms: C_21  and  S_22
REMARK    4  A    between atoms: S_22  and  C_23
REMARK    5  A    between atoms: C_23  and  C_25
REMARK    6  A    between atoms: C_23  and  C_26
REMARK    7  A    between atoms: N_28  and  C_29
REMARK    8  A    between atoms: C_31  and  C_36
REMARK    9  A    between atoms: C_34  and  C_35
REMARK                            x       y       z     vdW  Elec       q    Type
REMARK                         _______ _______ _______ _____ _____    ______ ____
ROOT
ATOM      1  N   UNL     1      -8.842   0.354  -1.069  0.00  0.00    -0.245 N 
ATOM      2  C   UNL     1      -9.457   1.383  -1.689  0.00  0.00    +0.268 A 
ATOM      3  O   UNL     1     -10.636   1.314  -1.977  0.00  0.00    -0.267 OA
ATOM      4  C   UNL     1      -8.676   2.591  -2.011  0.00  0.00    +0.064 A 
ATOM      5  C   UNL     1      -9.263   3.681  -2.651  0.00  0.00    +0.015 A 
ATOM      6  C   UNL     1      -8.502   4.795  -2.936  0.00  0.00    +0.001 A 
ATOM      7  C   UNL     1      -7.160   4.833  -2.590  0.00  0.00    +0.002 A 
ATOM      8  C   UNL     1      -6.567   3.760  -1.956  0.00  0.00    +0.027 A 
ATOM      9  C   UNL     1      -7.317   2.631  -1.662  0.00  0.00    +0.064 A 
ATOM     10  N   UNL     1      -6.749   1.534  -1.025  0.00  0.00    -0.255 N 
ATOM     11  C   UNL     1      -7.498   0.423  -0.736  0.00  0.00    +0.245 A 
ATOM     12  N   UNL     1      -6.698  -0.431  -0.144  0.00  0.00    -0.109 NA
ATOM     13  N   UNL     1      -5.516   0.063  -0.049  0.00  0.00    -0.120 NA
ATOM     14  C   UNL     1      -5.488   1.268  -0.566  0.00  0.00    +0.198 A 
ENDROOT
BRANCH   1  19
ATOM     15  C   UNL     1     -11.799  -4.321   0.193  0.00  0.00    +0.044 C 
ATOM     16  C   UNL     1     -11.013  -3.079  -0.142  0.00  0.00    -0.050 A 
ATOM     17  C   UNL     1      -9.873  -3.173  -0.918  0.00  0.00    +0.005 A 
ATOM     18  C   UNL     1      -9.151  -2.037  -1.228  0.00  0.00    +0.026 A 
ATOM     19  C   UNL     1      -9.572  -0.799  -0.758  0.00  0.00    +0.053 A 
ATOM     20  C   UNL     1     -10.714  -0.710   0.026  0.00  0.00    +0.026 A 
ATOM     21  C   UNL     1     -11.434  -1.849   0.328  0.00  0.00    +0.005 A 
ENDBRANCH   1  19
BRANCH  14  22
ATOM     22  S   UNL     1      -4.090   2.337  -0.660  0.00  0.00    -0.073 S 
BRANCH  22  23
ATOM     23  C   UNL     1      -2.757   1.385   0.119  0.00  0.00    +0.137 C 
ATOM     24  C   UNL     1      -3.082   1.169   1.599  0.00  0.00    +0.029 C 
BRANCH  23  25
ATOM     25  C   UNL     1      -1.460   2.143  -0.004  0.00  0.00    +0.230 C 
ATOM     26  O   UNL     1      -1.472   3.350  -0.129  0.00  0.00    -0.274 OA
ATOM     27  N   UNL     1      -0.287   1.481   0.024  0.00  0.00    -0.284 N 
ATOM     28  H   UNL     1      -0.278   0.512   0.067  0.00  0.00    +0.155 HD
BRANCH  27  29
ATOM     29  C   UNL     1       0.919   2.190  -0.015  0.00  0.00    +0.037 A 
ATOM     30  C   UNL     1       1.012   3.364  -0.751  0.00  0.00    +0.027 A 
ATOM     31  C   UNL     1       2.201   4.065  -0.782  0.00  0.00    -0.049 A 
ATOM     32  C   UNL     1       3.302   3.593  -0.091  0.00  0.00    +0.004 A 
ATOM     33  C   UNL     1       3.214   2.422   0.638  0.00  0.00    +0.005 A 
ATOM     34  C   UNL     1       2.026   1.719   0.678  0.00  0.00    -0.029 A 
ATOM     35  C   UNL     1       1.931   0.442   1.473  0.00  0.00    +0.045 C 
ATOM     36  C   UNL     1       2.301   5.342  -1.576  0.00  0.00    +0.044 C 
ENDBRANCH  27  29
ENDBRANCH  23  25
ENDBRANCH  22  23
ENDBRANCH  14  22
TORSDOF 5
