REMARK  Name = ZINC39687838
REMARK  8 active torsions:
REMARK  status: ('A' for Active; 'I' for Inactive)
REMARK    1  A    between atoms: C_1  and  C_2
REMARK    2  A    between atoms: C_2  and  C_3
REMARK    3  A    between atoms: C_3  and  C_4
REMARK    4  A    between atoms: C_4  and  C_5
REMARK    5  A    between atoms: C_5  and  C_7
REMARK    6  A    between atoms: C_5  and  C_8
REMARK    7  A    between atoms: C_12  and  C_21
REMARK    8  A    between atoms: N_23  and  C_24
REMARK                            x       y       z     vdW  Elec       q    Type
REMARK                         _______ _______ _______ _____ _____    ______ ____
ROOT
ATOM      1  C   UNL     1      -2.757  -3.970   0.466  0.00  0.00    +0.218 C 
ATOM      2  O   UNL     1      -1.745  -4.599   0.689  0.00  0.00    -0.275 OA
ATOM      3  N   UNL     1      -3.933  -4.614   0.323  0.00  0.00    -0.300 N 
ATOM      4  C   UNL     1      -5.243  -4.038  -0.062  0.00  0.00    +0.121 C 
ATOM      5  C   UNL     1      -5.873  -5.094  -0.997  0.00  0.00    +0.100 C 
ATOM      6  C   UNL     1      -5.191  -6.417  -0.611  0.00  0.00    -0.004 C 
ATOM      7  C   UNL     1      -4.206  -6.059   0.511  0.00  0.00    +0.115 C 
ATOM      8  C   UNL     1      -4.435  -6.990  -1.806  0.00  0.00    -0.010 C 
ATOM      9  C   UNL     1      -3.813  -8.333  -1.414  0.00  0.00    -0.082 C 
ATOM     10  N   UNL     1      -4.871  -9.258  -0.989  0.00  0.00    +0.379 N 
ATOM     11  C   UNL     1      -5.532  -8.744   0.216  0.00  0.00    -0.082 C 
ATOM     12  C   UNL     1      -6.226  -7.418  -0.107  0.00  0.00    -0.010 C 
ATOM     13  H   UNL     1      -5.550  -9.354  -1.729  0.00  0.00    -0.086 HD
ATOM     14  H   UNL     1      -4.466 -10.161  -0.790  0.00  0.00    -0.086 HD
ENDROOT
BRANCH   5  15
ATOM     15  C   UNL     1      -5.590  -4.755  -2.438  0.00  0.00    +0.218 C 
ATOM     16  O   UNL     1      -4.614  -4.095  -2.725  0.00  0.00    -0.275 OA
ATOM     17  N   UNL     1      -6.420  -5.186  -3.408  0.00  0.00    -0.312 N 
ATOM     18  H   UNL     1      -7.201  -5.715  -3.179  0.00  0.00    +0.149 HD
BRANCH  17  19
ATOM     19  C   UNL     1      -6.144  -4.857  -4.809  0.00  0.00    +0.076 C 
ATOM     20  C   UNL     1      -6.719  -3.476  -5.131  0.00  0.00    +0.041 C 
ATOM     21  C   UNL     1      -6.399  -3.120  -6.586  0.00  0.00    +0.108 C 
ATOM     22  N   UNL     1      -6.892  -4.197  -7.456  0.00  0.00    -0.314 N 
ATOM     23  C   UNL     1      -6.472  -5.578  -7.178  0.00  0.00    +0.108 C 
ATOM     24  C   UNL     1      -6.792  -5.906  -5.716  0.00  0.00    +0.041 C 
ATOM     25  C   UNL     1      -7.740  -3.915  -8.521  0.00  0.00    +0.140 A 
ATOM     26  C   UNL     1      -7.209  -3.728  -9.795  0.00  0.00    +0.081 A 
ATOM     27  C   UNL     1      -8.065  -3.448 -10.845  0.00  0.00    +0.025 A 
ATOM     28  C   UNL     1      -9.427  -3.366 -10.586  0.00  0.00    +0.021 A 
ATOM     29  C   UNL     1      -9.884  -3.563  -9.299  0.00  0.00    +0.113 A 
ATOM     30  N   UNL     1      -9.045  -3.833  -8.316  0.00  0.00    -0.239 NA
ATOM     31 CL   UNL     1      -5.498  -3.842 -10.061  0.00  0.00    -0.080 Cl
ENDBRANCH  17  19
ENDBRANCH   5  15
BRANCH   1  32
ATOM     32  C   UNL     1      -2.701  -2.469   0.348  0.00  0.00    +0.072 C 
ATOM     33  C   UNL     1      -1.376  -2.057  -0.296  0.00  0.00    +0.017 C 
BRANCH  32  34
ATOM     34  C   UNL     1      -2.808  -1.843   1.740  0.00  0.00    +0.012 C 
BRANCH  34  35
ATOM     35  C   UNL     1      -2.877  -0.320   1.611  0.00  0.00    +0.000 C 
BRANCH  35  37
ATOM     36  C   UNL     1      -3.052   1.829   2.874  0.00  0.00    +0.004 C 
ATOM     37  C   UNL     1      -2.984   0.305   3.003  0.00  0.00    -0.003 C 
ENDBRANCH  35  37
ENDBRANCH  34  35
ENDBRANCH  32  34
ENDBRANCH   1  32
TORSDOF 6
