REMARK  Name = ZINC39664116
REMARK  9 active torsions:
REMARK  status: ('A' for Active; 'I' for Inactive)
REMARK    1  A    between atoms: C_1  and  C_2
REMARK    2  A    between atoms: C_7  and  C_10
REMARK    3  A    between atoms: C_14  and  C_23
REMARK    4  A    between atoms: N_25  and  C_26
REMARK    5  A    between atoms: C_26  and  C_27
REMARK    6  A    between atoms: C_27  and  C_29
REMARK    7  A    between atoms: C_27  and  N_37
REMARK    8  A    between atoms: C_32  and  O_35
REMARK    9  A    between atoms: O_35  and  C_36
REMARK                            x       y       z     vdW  Elec       q    Type
REMARK                         _______ _______ _______ _____ _____    ______ ____
ROOT
ATOM      1  C   UNL     1      -4.459  -2.630   2.555  0.00  0.00    +0.219 C 
ATOM      2  O   UNL     1      -4.969  -1.999   3.457  0.00  0.00    -0.275 OA
ATOM      3  N   UNL     1      -4.708  -3.949   2.430  0.00  0.00    -0.300 N 
ATOM      4  C   UNL     1      -4.109  -4.899   1.463  0.00  0.00    +0.121 C 
ATOM      5  C   UNL     1      -3.890  -6.195   2.275  0.00  0.00    +0.100 C 
ATOM      6  C   UNL     1      -4.901  -6.110   3.431  0.00  0.00    -0.004 C 
ATOM      7  C   UNL     1      -5.638  -4.778   3.233  0.00  0.00    +0.115 C 
ATOM      8  C   UNL     1      -4.171  -6.109   4.771  0.00  0.00    -0.010 C 
ATOM      9  C   UNL     1      -5.199  -6.082   5.906  0.00  0.00    -0.082 C 
ATOM     10  N   UNL     1      -6.076  -7.255   5.803  0.00  0.00    +0.379 N 
ATOM     11  C   UNL     1      -6.842  -7.200   4.553  0.00  0.00    -0.082 C 
ATOM     12  C   UNL     1      -5.884  -7.274   3.361  0.00  0.00    -0.010 C 
ATOM     13  H   UNL     1      -5.515  -8.094   5.816  0.00  0.00    -0.086 HD
ATOM     14  H   UNL     1      -6.712  -7.267   6.586  0.00  0.00    -0.086 HD
ENDROOT
BRANCH   1  21
ATOM     15  C   UNL     1      -3.475   1.800  -1.761  0.00  0.00    +0.109 C 
ATOM     16  C   UNL     1      -2.712   1.510  -0.494  0.00  0.00    +0.212 C 
ATOM     17  O   UNL     1      -2.111   2.401   0.068  0.00  0.00    -0.276 OA
ATOM     18  N   UNL     1      -2.698   0.262   0.014  0.00  0.00    -0.302 N 
ATOM     19  C   UNL     1      -3.417  -0.828  -0.659  0.00  0.00    +0.108 C 
ATOM     20  C   UNL     1      -4.353  -1.499   0.350  0.00  0.00    +0.032 C 
ATOM     21  C   UNL     1      -3.546  -1.939   1.574  0.00  0.00    +0.078 C 
ATOM     22  C   UNL     1      -2.916  -0.714   2.240  0.00  0.00    +0.032 C 
ATOM     23  C   UNL     1      -1.959  -0.035   1.248  0.00  0.00    +0.108 C 
ENDBRANCH   1  21
BRANCH   5  24
ATOM     24  C   UNL     1      -2.482  -6.249   2.808  0.00  0.00    +0.218 C 
ATOM     25  O   UNL     1      -1.905  -5.224   3.102  0.00  0.00    -0.275 OA
ATOM     26  N   UNL     1      -1.863  -7.437   2.959  0.00  0.00    -0.316 N 
ATOM     27  H   UNL     1      -2.325  -8.257   2.724  0.00  0.00    +0.149 HD
BRANCH  26  28
ATOM     28  C   UNL     1      -0.494  -7.489   3.478  0.00  0.00    +0.093 C 
BRANCH  28  29
ATOM     29  C   UNL     1      -0.072  -8.949   3.656  0.00  0.00    -0.020 C 
BRANCH  29  30
ATOM     30  C   UNL     1      -0.002  -9.620   2.308  0.00  0.00    -0.059 A 
ATOM     31  C   UNL     1       1.108  -9.438   1.504  0.00  0.00    +0.005 A 
ATOM     32  C   UNL     1       1.175 -10.052   0.268  0.00  0.00    +0.046 A 
ATOM     33  C   UNL     1       0.127 -10.851  -0.166  0.00  0.00    +0.120 A 
ATOM     34  C   UNL     1      -0.985 -11.032   0.643  0.00  0.00    +0.046 A 
ATOM     35  C   UNL     1      -1.045 -10.421   1.881  0.00  0.00    +0.005 A 
BRANCH  33  36
ATOM     36  O   UNL     1       0.190 -11.455  -1.381  0.00  0.00    -0.495 OA
ATOM     37  C   UNL     1      -0.925 -12.264  -1.762  0.00  0.00    +0.277 C 
ENDBRANCH  33  36
ENDBRANCH  29  30
BRANCH  29  38
ATOM     38  N   UNL     1       1.248  -9.002   4.299  0.00  0.00    +0.385 N 
ATOM     39  C   UNL     1       1.170  -8.449   5.675  0.00  0.00    -0.078 C 
ATOM     40  C   UNL     1       2.403  -9.071   6.378  0.00  0.00    -0.020 C 
ATOM     41  C   UNL     1       2.457 -10.496   5.782  0.00  0.00    -0.020 C 
ATOM     42  C   UNL     1       1.684 -10.407   4.453  0.00  0.00    -0.078 C 
ATOM     43  H   UNL     1       1.922  -8.486   3.753  0.00  0.00    -0.081 HD
ENDBRANCH  29  38
ENDBRANCH  28  29
ENDBRANCH  26  28
ENDBRANCH   5  24
TORSDOF 7
