REMARK  Name = ZINC06445931
REMARK  10 active torsions:
REMARK  status: ('A' for Active; 'I' for Inactive)
REMARK    1  A    between atoms: C_3  and  C_6
REMARK    2  A    between atoms: C_6  and  N_7
REMARK    3  A    between atoms: N_7  and  C_8
REMARK    4  A    between atoms: N_7  and  C_24
REMARK    5  A    between atoms: C_8  and  C_9
REMARK    6  A    between atoms: C_24  and  N_26
REMARK    7  A    between atoms: N_26  and  C_27
REMARK    8  A    between atoms: C_27  and  C_28
REMARK    9  A    between atoms: C_28  and  C_29
REMARK   10  A    between atoms: C_29  and  N_62
REMARK                            x       y       z     vdW  Elec       q    Type
REMARK                         _______ _______ _______ _____ _____    ______ ____
ROOT
ATOM      1  N   UNL     1      -5.458   0.908   1.435  0.00  0.00    -0.303 N 
ENDROOT
BRANCH   1   2
ATOM      2  C   UNL     1      -5.123  -0.177   2.160  0.00  0.00    +0.133 C 
ATOM      3  S   UNL     1      -4.146  -1.401   1.469  0.00  0.00    -0.019 S 
BRANCH   2   4
ATOM      4  N   UNL     1      -5.559  -0.300   3.430  0.00  0.00    -0.326 N 
ATOM      5  H   UNL     1      -6.113   0.393   3.822  0.00  0.00    +0.148 HD
BRANCH   4   6
ATOM      6  C   UNL     1      -5.195  -1.481   4.218  0.00  0.00    +0.101 C 
BRANCH   6   7
ATOM      7  C   UNL     1      -5.813  -1.373   5.613  0.00  0.00    +0.000 C 
BRANCH   7   8
ATOM      8  C   UNL     1      -5.434  -2.605   6.436  0.00  0.00    -0.077 C 
BRANCH   8  14
ATOM      9  C   UNL     1      -5.433  -1.389   8.531  0.00  0.00    -0.050 C 
ATOM     10  C   UNL     1      -6.120  -1.279   9.895  0.00  0.00    +0.141 C 
ATOM     11  O   UNL     1      -6.000  -2.526  10.584  0.00  0.00    -0.383 OA
ATOM     12  C   UNL     1      -6.569  -3.632   9.878  0.00  0.00    +0.141 C 
ATOM     13  C   UNL     1      -5.886  -3.765   8.514  0.00  0.00    -0.050 C 
ATOM     14  N   UNL     1      -6.054  -2.496   7.775  0.00  0.00    +0.383 N 
ATOM     15  H   UNL     1      -7.056  -2.304   7.663  0.00  0.00    -0.082 HD
ENDBRANCH   8  14
ENDBRANCH   7   8
ENDBRANCH   6   7
ENDBRANCH   4   6
ENDBRANCH   2   4
ENDBRANCH   1   2
BRANCH   1  16
ATOM     16  C   UNL     1      -6.295   1.955   2.028  0.00  0.00    +0.149 C 
BRANCH  16  19
ATOM     17  C   UNL     1      -9.915   0.769   2.077  0.00  0.00    +0.008 A 
ATOM     18  C   UNL     1      -8.612   0.920   2.516  0.00  0.00    +0.013 A 
ATOM     19  C   UNL     1      -7.746   1.645   1.767  0.00  0.00    +0.007 A 
ATOM     20  S   UNL     1      -8.769   2.132   0.387  0.00  0.00    -0.100 S 
ATOM     21  C   UNL     1     -10.284   1.342   0.905  0.00  0.00    +0.045 A 
ENDBRANCH  16  19
ENDBRANCH   1  16
BRANCH   1  22
ATOM     22  C   UNL     1      -4.985   1.042   0.056  0.00  0.00    +0.147 C 
BRANCH  22  23
ATOM     23  C   UNL     1      -3.658   1.756   0.046  0.00  0.00    +0.035 A 
ATOM     24  C   UNL     1      -2.505   1.040   0.031  0.00  0.00    +0.020 A 
ATOM     25  C   UNL     1      -1.233   1.762   0.018  0.00  0.00    +0.003 A 
ATOM     26  C   UNL     1      -0.013   1.076   0.008  0.00  0.00    +0.059 A 
ATOM     27  C   UNL     1       1.169   1.783   0.001  0.00  0.00    +0.167 A 
ATOM     28  C   UNL     1       1.153   3.184   0.007  0.00  0.00    +0.168 A 
ATOM     29  C   UNL     1      -0.048   3.870   0.022  0.00  0.00    +0.075 A 
ATOM     30  C   UNL     1      -1.248   3.171   0.030  0.00  0.00    +0.053 A 
ATOM     31  N   UNL     1      -2.456   3.839   0.046  0.00  0.00    -0.322 N 
ATOM     32  H   UNL     1      -2.465   4.809   0.051  0.00  0.00    +0.169 HD
ATOM     33  C   UNL     1      -3.619   3.165   0.054  0.00  0.00    +0.254 A 
ATOM     34  O   UNL     1      -4.667   3.788   0.069  0.00  0.00    -0.268 OA
ATOM     35  O   UNL     1       2.442   3.631  -0.003  0.00  0.00    -0.453 OA
ATOM     36  C   UNL     1       3.244   2.506   0.399  0.00  0.00    +0.466 C 
ATOM     37  O   UNL     1       2.469   1.365  -0.013  0.00  0.00    -0.453 OA
ENDBRANCH  22  23
ENDBRANCH   1  22
TORSDOF 10
