REMARK  Name = ZINC16652126
REMARK  13 active torsions:
REMARK  status: ('A' for Active; 'I' for Inactive)
REMARK    1  A    between atoms: C_1  and  C_2
REMARK    2  A    between atoms: C_5  and  C_7
REMARK    3  A    between atoms: C_7  and  N_8
REMARK    4  A    between atoms: N_8  and  C_9
REMARK    5  A    between atoms: C_9  and  C_10
REMARK    6  A    between atoms: C_17  and  C_19
REMARK    7  A    between atoms: C_19  and  N_20
REMARK    8  A    between atoms: N_20  and  C_21
REMARK    9  A    between atoms: N_20  and  S_28
REMARK   10  A    between atoms: C_21  and  C_22
REMARK   11  A    between atoms: S_28  and  C_31
REMARK   12  A    between atoms: C_34  and  O_37
REMARK   13  A    between atoms: O_37  and  C_38
REMARK                            x       y       z     vdW  Elec       q    Type
REMARK                         _______ _______ _______ _____ _____    ______ ____
ROOT
ATOM      1  C   UNL     1       0.677  -4.088  -5.757  0.00  0.00    +0.205 C 
ENDROOT
BRANCH   1   3
ATOM      2  N   UNL     1      -1.502  -4.887  -4.902  0.00  0.00    -0.289 N 
ATOM      3  C   UNL     1      -0.618  -3.876  -5.015  0.00  0.00    +0.232 C 
ATOM      4  O   UNL     1      -0.864  -2.796  -4.521  0.00  0.00    -0.274 OA
BRANCH   2   5
ATOM      5  C   UNL     1      -1.205  -6.191  -5.498  0.00  0.00    +0.182 C 
BRANCH   5  10
ATOM      6  C   UNL     1       2.529  -8.331  -2.867  0.00  0.00    +0.086 C 
ATOM      7  C   UNL     1       1.145  -7.979  -3.350  0.00  0.00    +0.102 A 
ATOM      8  C   UNL     1      -0.007  -8.480  -2.870  0.00  0.00    +0.045 A 
ATOM      9  C   UNL     1      -1.054  -7.880  -3.608  0.00  0.00    +0.046 A 
ATOM     10  C   UNL     1      -0.478  -7.049  -4.495  0.00  0.00    +0.122 A 
ATOM     11  O   UNL     1       0.854  -7.117  -4.338  0.00  0.00    -0.463 OA
ENDBRANCH   5  10
ENDBRANCH   2   5
BRANCH   2  12
ATOM     12  C   UNL     1      -2.761  -4.681  -4.181  0.00  0.00    +0.143 C 
BRANCH  12  13
ATOM     13  C   UNL     1      -3.817  -4.200  -5.142  0.00  0.00    -0.030 A 
ATOM     14  C   UNL     1      -3.992  -2.845  -5.355  0.00  0.00    +0.008 A 
ATOM     15  C   UNL     1      -4.957  -2.403  -6.240  0.00  0.00    +0.038 A 
ATOM     16  C   UNL     1      -5.756  -3.317  -6.905  0.00  0.00    +0.123 A 
ATOM     17  C   UNL     1      -5.584  -4.673  -6.687  0.00  0.00    +0.038 A 
ATOM     18  C   UNL     1      -4.615  -5.113  -5.806  0.00  0.00    +0.008 A 
ATOM     19  F   UNL     1      -6.703  -2.885  -7.767  0.00  0.00    -0.205 F 
ENDBRANCH  12  13
ENDBRANCH   2  12
ENDBRANCH   1   3
BRANCH   1  20
ATOM     20  N   UNL     1       1.458  -2.848  -5.739  0.00  0.00    -0.165 NA
BRANCH  20  21
ATOM     21  S   UNL     1       2.618  -2.616  -4.580  0.00  0.00    +0.061 S 
ATOM     22  O   UNL     1       3.541  -1.676  -5.112  0.00  0.00    -0.153 OA
ATOM     23  O   UNL     1       3.015  -3.908  -4.139  0.00  0.00    -0.153 OA
BRANCH  21  24
ATOM     24  C   UNL     1       1.835  -1.835  -3.209  0.00  0.00    +0.106 A 
ATOM     25  C   UNL     1       1.275  -2.602  -2.204  0.00  0.00    +0.032 A 
ATOM     26  C   UNL     1       0.661  -1.992  -1.128  0.00  0.00    +0.047 A 
ATOM     27  C   UNL     1       0.606  -0.607  -1.056  0.00  0.00    +0.120 A 
ATOM     28  C   UNL     1       1.163   0.161  -2.068  0.00  0.00    +0.047 A 
ATOM     29  C   UNL     1       1.782  -0.455  -3.139  0.00  0.00    +0.032 A 
BRANCH  27  30
ATOM     30  O   UNL     1       0.002  -0.004   0.002  0.00  0.00    -0.495 OA
ATOM     31  C   UNL     1      -0.017   1.425   0.010  0.00  0.00    +0.277 C 
ENDBRANCH  27  30
ENDBRANCH  21  24
ENDBRANCH  20  21
BRANCH  20  32
ATOM     32  C   UNL     1       1.213  -1.814  -6.747  0.00  0.00    +0.141 C 
BRANCH  32  33
ATOM     33  C   UNL     1       2.018  -2.131  -8.009  0.00  0.00    +0.134 C 
ATOM     34  C   UNL     1       1.873  -0.989  -9.040  0.00  0.00    +0.035 C 
ATOM     35  C   UNL     1       1.827  -1.716 -10.402  0.00  0.00    +0.031 C 
ATOM     36  C   UNL     1       1.949  -3.212 -10.033  0.00  0.00    +0.160 C 
ATOM     37  O   UNL     1       1.478  -3.295  -8.671  0.00  0.00    -0.375 OA
ENDBRANCH  32  33
ENDBRANCH  20  32
ENDBRANCH   1  20
TORSDOF 11
