REMARK  Name = ZINC17519658
REMARK  6 active torsions:
REMARK  status: ('A' for Active; 'I' for Inactive)
REMARK    1  A    between atoms: C_1  and  C_2
REMARK    2  A    between atoms: C_3  and  S_8
REMARK    3  A    between atoms: C_4  and  C_7
REMARK    4  A    between atoms: S_8  and  N_11
REMARK    5  A    between atoms: C_17  and  N_18
REMARK    6  A    between atoms: C_17  and  N_53
REMARK                            x       y       z     vdW  Elec       q    Type
REMARK                         _______ _______ _______ _____ _____    ______ ____
ROOT
ATOM      1  N   UNL     1      -1.210  -5.830   3.655  0.00  0.00    -0.178 NA
ATOM      2  C   UNL     1      -0.345  -4.878   4.378  0.00  0.00    +0.107 C 
ATOM      3  C   UNL     1      -0.068  -3.622   3.534  0.00  0.00    -0.001 C 
ATOM      4  C   UNL     1       0.155  -4.019   2.091  0.00  0.00    -0.075 C 
ATOM      5  C   UNL     1      -1.922  -5.120   1.420  0.00  0.00    -0.059 C 
ATOM      6  C   UNL     1      -2.357  -5.406   2.878  0.00  0.00    +0.091 C 
ATOM      7  N   UNL     1      -1.153  -3.900   1.386  0.00  0.00    +0.394 N 
ATOM      8  H   UNL     1      -1.700  -3.166   1.851  0.00  0.00    -0.079 HD
ENDROOT
BRANCH   1   9
ATOM      9  S   UNL     1      -0.857  -7.446   3.735  0.00  0.00    +0.066 S 
ATOM     10  O   UNL     1      -0.111  -7.640   4.929  0.00  0.00    -0.153 OA
ATOM     11  O   UNL     1      -2.068  -8.141   3.472  0.00  0.00    -0.153 OA
BRANCH   9  14
ATOM     12  C   UNL     1       2.544  -7.389   3.539  0.00  0.00    +0.071 C 
ATOM     13  C   UNL     1       1.645  -7.764   2.389  0.00  0.00    +0.107 A 
ATOM     14  C   UNL     1       0.232  -7.809   2.398  0.00  0.00    +0.170 A 
ATOM     15  C   UNL     1      -0.091  -8.200   1.142  0.00  0.00    +0.161 A 
ATOM     16  O   UNL     1       1.066  -8.353   0.483  0.00  0.00    -0.358 OA
ATOM     17  N   UNL     1       2.016  -8.110   1.190  0.00  0.00    -0.081 NA
ATOM     18  C   UNL     1      -1.477  -8.419   0.594  0.00  0.00    +0.091 C 
ENDBRANCH   9  14
ENDBRANCH   1   9
BRANCH   7  19
ATOM     19  C   UNL     1      -0.922  -3.506  -0.010  0.00  0.00    +0.072 C 
BRANCH  19  20
ATOM     20  N   UNL     1      -0.296  -2.182  -0.008  0.00  0.00    -0.256 N 
ATOM     21  C   UNL     1      -0.935  -0.998   0.005  0.00  0.00    +0.182 A 
ATOM     22  S   UNL     1      -2.632  -0.776   0.024  0.00  0.00    -0.011 S 
ATOM     23  N   UNL     1       0.002  -0.004   0.002  0.00  0.00    -0.265 N 
ATOM     24  C   UNL     1      -0.017   1.400   0.010  0.00  0.00    +0.065 A 
ATOM     25  C   UNL     1      -1.158   2.218   0.031  0.00  0.00    +0.027 A 
ATOM     26  C   UNL     1      -1.042   3.588   0.032  0.00  0.00    +0.002 A 
ATOM     27  C   UNL     1       0.199   4.203   0.023  0.00  0.00    +0.001 A 
ATOM     28  C   UNL     1       1.340   3.419   0.008  0.00  0.00    +0.017 A 
ATOM     29  C   UNL     1       1.221   2.049   0.001  0.00  0.00    +0.040 A 
ATOM     30  S   UNL     1       2.392   0.713  -0.016  0.00  0.00    -0.048 S 
ATOM     31  C   UNL     1       1.229  -0.632  -0.013  0.00  0.00    +0.199 A 
ATOM     32  N   UNL     1       1.081  -1.915  -0.019  0.00  0.00    -0.145 NA
ENDBRANCH  19  20
ENDBRANCH   7  19
TORSDOF 4
