REMARK  Name = ZINC34757725
REMARK  9 active torsions:
REMARK  status: ('A' for Active; 'I' for Inactive)
REMARK    1  A    between atoms: C_1  and  C_2
REMARK    2  A    between atoms: C_5  and  C_9
REMARK    3  A    between atoms: C_6  and  C_8
REMARK    4  A    between atoms: C_9  and  N_10
REMARK    5  A    between atoms: C_23  and  S_25
REMARK    6  A    between atoms: S_25  and  C_26
REMARK    7  A    between atoms: C_26  and  C_27
REMARK    8  A    between atoms: N_29  and  C_30
REMARK    9  A    between atoms: N_29  and  C_31
REMARK                            x       y       z     vdW  Elec       q    Type
REMARK                         _______ _______ _______ _____ _____    ______ ____
ROOT
ATOM      1  N   UNL     1      -1.361  -4.668   0.157  0.00  0.00    +0.384 N 
ATOM      2  C   UNL     1      -2.368  -4.237  -0.821  0.00  0.00    -0.059 C 
ATOM      3  C   UNL     1      -3.736  -4.803  -0.427  0.00  0.00    +0.088 C 
ATOM      4  N   UNL     1      -3.614  -6.262  -0.284  0.00  0.00    -0.318 N 
ATOM      5  C   UNL     1      -2.524  -6.787   0.553  0.00  0.00    +0.088 C 
ATOM      6  C   UNL     1      -1.212  -6.128   0.113  0.00  0.00    -0.059 C 
ATOM      7  C   UNL     1      -4.499  -7.115  -0.917  0.00  0.00    +0.134 A 
ATOM      8  C   UNL     1      -5.734  -7.459  -0.301  0.00  0.00    +0.051 A 
ATOM      9  C   UNL     1      -6.259  -7.017   1.003  0.00  0.00    -0.025 A 
ATOM     10  C   UNL     1      -7.463  -7.489   1.363  0.00  0.00    -0.004 A 
ATOM     11  S   UNL     1      -7.974  -8.532   0.017  0.00  0.00    -0.073 S 
ATOM     12  C   UNL     1      -6.559  -8.333  -1.031  0.00  0.00    +0.115 A 
ATOM     13  N   UNL     1      -6.198  -8.798  -2.213  0.00  0.00    -0.214 NA
ATOM     14  C   UNL     1      -5.034  -8.444  -2.741  0.00  0.00    +0.191 A 
ATOM     15  N   UNL     1      -4.210  -7.618  -2.106  0.00  0.00    -0.206 NA
ATOM     16  C   UNL     1      -7.894  -6.976   2.711  0.00  0.00    +0.043 C 
ATOM     17  C   UNL     1      -6.596  -6.443   3.357  0.00  0.00    +0.010 C 
ATOM     18  C   UNL     1      -5.749  -6.098   2.116  0.00  0.00    +0.037 C 
ATOM     19  H   UNL     1      -1.653  -4.389   1.082  0.00  0.00    -0.081 HD
ENDROOT
BRANCH   1  20
ATOM     20  C   UNL     1      -0.072  -4.037  -0.159  0.00  0.00    -0.043 C 
BRANCH  20  25
ATOM     21  C   UNL     1      -0.529   1.689   0.474  0.00  0.00    +0.044 C 
ATOM     22  C   UNL     1      -0.410   0.196   0.309  0.00  0.00    -0.050 A 
ATOM     23  C   UNL     1      -0.480  -0.368  -0.952  0.00  0.00    +0.003 A 
ATOM     24  C   UNL     1      -0.371  -1.738  -1.103  0.00  0.00    +0.002 A 
ATOM     25  C   UNL     1      -0.191  -2.543   0.006  0.00  0.00    -0.061 A 
ATOM     26  C   UNL     1      -0.120  -1.980   1.266  0.00  0.00    -0.049 A 
ATOM     27  C   UNL     1      -0.225  -0.609   1.417  0.00  0.00    +0.007 A 
ATOM     28  C   UNL     1       0.076  -2.858   2.475  0.00  0.00    +0.044 C 
ENDBRANCH  20  25
ENDBRANCH   1  20
BRANCH  14  29
ATOM     29  S   UNL     1      -4.574  -9.078  -4.319  0.00  0.00    -0.077 S 
BRANCH  29  30
ATOM     30  C   UNL     1      -5.973 -10.130  -4.795  0.00  0.00    +0.173 C 
BRANCH  30  31
ATOM     31  C   UNL     1      -5.705 -10.743  -6.145  0.00  0.00    +0.225 C 
ATOM     32  O   UNL     1      -4.671 -10.494  -6.729  0.00  0.00    -0.275 OA
ATOM     33  N   UNL     1      -6.613 -11.567  -6.703  0.00  0.00    -0.307 N 
ATOM     34  C   UNL     1      -6.352 -12.163  -8.016  0.00  0.00    +0.131 C 
ATOM     35  C   UNL     1      -7.861 -11.868  -5.998  0.00  0.00    +0.131 C 
ENDBRANCH  30  31
ENDBRANCH  29  30
ENDBRANCH  14  29
TORSDOF 5
