REMARK  Name = ZINC63798162
REMARK  5 active torsions:
REMARK  status: ('A' for Active; 'I' for Inactive)
REMARK    1  A    between atoms: C_7  and  C_10
REMARK    2  A    between atoms: C_10  and  C_11
REMARK    3  A    between atoms: N_15  and  C_19
REMARK    4  A    between atoms: C_19  and  C_20
REMARK    5  A    between atoms: N_22  and  C_23
REMARK                            x       y       z     vdW  Elec       q    Type
REMARK                         _______ _______ _______ _____ _____    ______ ____
ROOT
ATOM      1  C   UNL     1       0.086  -9.086  -1.611  0.00  0.00    +0.165 C 
ATOM      2  C   UNL     1      -1.322  -8.817  -2.102  0.00  0.00    +0.244 C 
ATOM      3  O   UNL     1      -2.140  -9.636  -2.465  0.00  0.00    -0.273 OA
ATOM      4  N   UNL     1      -1.478  -7.480  -2.049  0.00  0.00    -0.216 N 
ATOM      5  C   UNL     1      -0.374  -6.872  -1.598  0.00  0.00    +0.310 C 
ATOM      6  O   UNL     1      -0.273  -5.669  -1.463  0.00  0.00    -0.252 OA
ATOM      7  N   UNL     1       0.614  -7.744  -1.311  0.00  0.00    -0.287 N 
ATOM      8  H   UNL     1       1.498  -7.531  -0.973  0.00  0.00    +0.151 HD
ENDROOT
BRANCH   1   9
ATOM      9  C   UNL     1       0.061  -9.949  -0.348  0.00  0.00    +0.065 C 
BRANCH   9  16
ATOM     10  C   UNL     1       2.902  -7.958   2.656  0.00  0.00    +0.001 A 
ATOM     11  C   UNL     1       4.154  -8.582   2.744  0.00  0.00    +0.002 A 
ATOM     12  C   UNL     1       4.481  -9.667   2.010  0.00  0.00    +0.026 A 
ATOM     13  C   UNL     1       3.544 -10.228   1.099  0.00  0.00    +0.043 A 
ATOM     14  N   UNL     1       3.622 -11.256   0.290  0.00  0.00    -0.380 N 
ATOM     15  C   UNL     1       2.348 -11.384  -0.427  0.00  0.00    +0.144 C 
ATOM     16  C   UNL     1       1.473 -10.259   0.078  0.00  0.00    -0.039 C 
ATOM     17  C   UNL     1       2.215  -9.586   0.987  0.00  0.00    -0.001 A 
ATOM     18  C   UNL     1       1.939  -8.410   1.821  0.00  0.00    +0.010 A 
ATOM     19  H   UNL     1       4.392 -11.836   0.184  0.00  0.00    +0.160 HD
ENDBRANCH   9  16
ENDBRANCH   1   9
BRANCH   4  20
ATOM     20  C   UNL     1      -2.703  -6.777  -2.438  0.00  0.00    +0.214 C 
BRANCH  20  21
ATOM     21  C   UNL     1      -3.608  -6.645  -1.241  0.00  0.00    +0.235 C 
ATOM     22  O   UNL     1      -3.264  -7.094  -0.168  0.00  0.00    -0.274 OA
ATOM     23  N   UNL     1      -4.801  -6.029  -1.363  0.00  0.00    -0.282 N 
ATOM     24  H   UNL     1      -5.045  -5.607  -2.201  0.00  0.00    +0.155 HD
BRANCH  23  25
ATOM     25  C   UNL     1      -5.687  -5.999  -0.279  0.00  0.00    +0.070 A 
ATOM     26  C   UNL     1      -5.649  -4.941   0.622  0.00  0.00    +0.064 A 
ATOM     27  C   UNL     1      -6.526  -4.914   1.690  0.00  0.00    +0.022 A 
ATOM     28  C   UNL     1      -7.438  -5.939   1.864  0.00  0.00    +0.003 A 
ATOM     29  C   UNL     1      -7.478  -6.992   0.970  0.00  0.00    +0.022 A 
ATOM     30  C   UNL     1      -6.609  -7.023  -0.105  0.00  0.00    +0.064 A 
ATOM     31 CL   UNL     1      -6.666  -8.342  -1.231  0.00  0.00    -0.082 Cl
ATOM     32 CL   UNL     1      -4.503  -3.655   0.405  0.00  0.00    -0.082 Cl
ENDBRANCH  23  25
ENDBRANCH  20  21
ENDBRANCH   4  20
TORSDOF 5
