REMARK  Name = ZINC63842478
REMARK  7 active torsions:
REMARK  status: ('A' for Active; 'I' for Inactive)
REMARK    1  A    between atoms: C_1  and  C_2
REMARK    2  A    between atoms: C_2  and  C_24
REMARK    3  A    between atoms: N_5  and  C_9
REMARK    4  A    between atoms: C_9  and  C_10
REMARK    5  A    between atoms: N_12  and  C_13
REMARK    6  A    between atoms: C_13  and  C_14
REMARK    7  A    between atoms: C_14  and  C_15
REMARK                            x       y       z     vdW  Elec       q    Type
REMARK                         _______ _______ _______ _____ _____    ______ ____
ROOT
ATOM      1  C   UNL     1      -0.019   1.526   0.010  0.00  0.00    +0.047 C 
ATOM      2  C   UNL     1       0.002  -0.004   0.002  0.00  0.00    +0.135 C 
ATOM      3  C   UNL     1      -1.403  -0.557   0.139  0.00  0.00    +0.251 C 
ATOM      4  O   UNL     1      -2.332  -0.392  -0.621  0.00  0.00    -0.272 OA
ATOM      5  N   UNL     1      -1.403  -1.272   1.282  0.00  0.00    -0.215 N 
ATOM      6  C   UNL     1      -0.206  -1.247   1.879  0.00  0.00    +0.310 C 
ATOM      7  O   UNL     1       0.040  -1.819   2.924  0.00  0.00    -0.252 OA
ATOM      8  N   UNL     1       0.695  -0.520   1.195  0.00  0.00    -0.281 N 
ATOM      9  H   UNL     1       1.621  -0.365   1.440  0.00  0.00    +0.152 HD
ENDROOT
BRANCH   2  10
ATOM     10  C   UNL     1       0.657  -0.517  -1.255  0.00  0.00    -0.012 A 
ATOM     11  C   UNL     1      -0.110  -0.771  -2.377  0.00  0.00    +0.010 A 
ATOM     12  C   UNL     1       0.484  -1.242  -3.534  0.00  0.00    +0.050 A 
ATOM     13  C   UNL     1       1.852  -1.457  -3.565  0.00  0.00    +0.162 A 
ATOM     14  C   UNL     1       2.622  -1.202  -2.439  0.00  0.00    +0.162 A 
ATOM     15  C   UNL     1       2.024  -0.726  -1.283  0.00  0.00    +0.055 A 
ATOM     16  O   UNL     1       3.969  -1.416  -2.480  0.00  0.00    -0.488 OA
ATOM     17  C   UNL     1       4.381  -2.780  -2.581  0.00  0.00    +0.232 C 
ATOM     18  C   UNL     1       4.377  -3.239  -4.031  0.00  0.00    +0.082 C 
ATOM     19  C   UNL     1       2.980  -3.246  -4.632  0.00  0.00    +0.232 C 
ATOM     20  O   UNL     1       2.451  -1.920  -4.700  0.00  0.00    -0.488 OA
ENDBRANCH   2  10
BRANCH   5  21
ATOM     21  C   UNL     1      -2.569  -1.986   1.805  0.00  0.00    +0.213 C 
BRANCH  21  22
ATOM     22  C   UNL     1      -2.585  -3.391   1.260  0.00  0.00    +0.231 C 
ATOM     23  O   UNL     1      -1.707  -3.759   0.508  0.00  0.00    -0.274 OA
ATOM     24  N   UNL     1      -3.573  -4.239   1.608  0.00  0.00    -0.314 N 
ATOM     25  H   UNL     1      -4.275  -3.944   2.209  0.00  0.00    +0.149 HD
BRANCH  24  26
ATOM     26  C   UNL     1      -3.588  -5.604   1.077  0.00  0.00    +0.108 C 
BRANCH  26  27
ATOM     27  C   UNL     1      -4.806  -6.351   1.624  0.00  0.00    +0.052 C 
BRANCH  27  28
ATOM     28  C   UNL     1      -4.822  -7.755   1.078  0.00  0.00    -0.040 C 
ATOM     29  C   UNL     1      -4.332  -8.865   1.676  0.00  0.00    -0.001 A 
ATOM     30  C   UNL     1      -3.663  -9.088   2.964  0.00  0.00    +0.010 A 
ATOM     31  C   UNL     1      -3.277 -10.342   3.294  0.00  0.00    +0.001 A 
ATOM     32  C   UNL     1      -3.499 -11.430   2.440  0.00  0.00    +0.002 A 
ATOM     33  C   UNL     1      -4.107 -11.305   1.241  0.00  0.00    +0.026 A 
ATOM     34  C   UNL     1      -4.555 -10.031   0.792  0.00  0.00    +0.043 A 
ATOM     35  N   UNL     1      -5.159  -9.657  -0.309  0.00  0.00    -0.380 N 
ATOM     36  C   UNL     1      -5.394  -8.210  -0.246  0.00  0.00    +0.144 C 
ATOM     37  H   UNL     1      -5.413 -10.240  -1.042  0.00  0.00    +0.160 HD
ENDBRANCH  27  28
ENDBRANCH  26  27
ENDBRANCH  24  26
ENDBRANCH  21  22
ENDBRANCH   5  21
TORSDOF 6
