REMARK  Name = ZINC20378598
REMARK  4 active torsions:
REMARK  status: ('A' for Active; 'I' for Inactive)
REMARK    1  A    between atoms: C_1  and  C_2
REMARK    2  A    between atoms: C_2  and  N_3
REMARK    3  A    between atoms: C_5  and  C_18
REMARK    4  A    between atoms: C_21  and  C_24
REMARK                            x       y       z     vdW  Elec       q    Type
REMARK                         _______ _______ _______ _____ _____    ______ ____
ROOT
ATOM      1  N   UNL     1       1.292  -0.481  -1.960  0.00  0.00    -0.293 N 
ATOM      2  C   UNL     1       2.411   0.156  -1.396  0.00  0.00    +0.137 A 
ATOM      3  C   UNL     1       3.545  -0.537  -1.034  0.00  0.00    +0.063 A 
ATOM      4  S   UNL     1       4.596   0.748  -0.396  0.00  0.00    -0.059 S 
ATOM      5  C   UNL     1       3.525   2.083  -0.631  0.00  0.00    +0.132 A 
ATOM      6  S   UNL     1       3.794   3.733  -0.260  0.00  0.00    -0.024 S 
ATOM      7  N   UNL     1       2.411   1.510  -1.183  0.00  0.00    -0.282 N 
ATOM      8  C   UNL     1       1.275   2.268  -1.535  0.00  0.00    +0.062 A 
ATOM      9  C   UNL     1       1.273   3.639  -1.321  0.00  0.00    +0.027 A 
ATOM     10  C   UNL     1       0.160   4.383  -1.664  0.00  0.00    +0.002 A 
ATOM     11  C   UNL     1      -0.952   3.772  -2.221  0.00  0.00    +0.001 A 
ATOM     12  C   UNL     1      -0.966   2.409  -2.434  0.00  0.00    +0.015 A 
ATOM     13  C   UNL     1       0.154   1.651  -2.096  0.00  0.00    +0.063 A 
ATOM     14  C   UNL     1       0.186   0.193  -2.311  0.00  0.00    +0.262 A 
ATOM     15  O   UNL     1      -0.767  -0.385  -2.796  0.00  0.00    -0.267 OA
ENDROOT
BRANCH   3  16
ATOM     16  C   UNL     1       3.818  -1.983  -1.147  0.00  0.00    -0.008 A 
ATOM     17  C   UNL     1       3.593  -2.827  -0.057  0.00  0.00    +0.009 A 
ATOM     18  C   UNL     1       3.847  -4.178  -0.170  0.00  0.00    +0.004 A 
ATOM     19  C   UNL     1       4.333  -4.696  -1.358  0.00  0.00    -0.050 A 
ATOM     20  C   UNL     1       4.562  -3.866  -2.441  0.00  0.00    +0.004 A 
ATOM     21  C   UNL     1       4.309  -2.514  -2.343  0.00  0.00    +0.009 A 
ATOM     22  C   UNL     1       4.613  -6.173  -1.473  0.00  0.00    +0.044 C 
ENDBRANCH   3  16
BRANCH   1  24
ATOM     23  C   UNL     1       1.794  -2.225  -3.599  0.00  0.00    +0.027 C 
ATOM     24  C   UNL     1       1.333  -1.930  -2.170  0.00  0.00    +0.123 C 
ENDBRANCH   1  24
TORSDOF 2
