REMARK  Name = ZINC63821578
REMARK  4 active torsions:
REMARK  status: ('A' for Active; 'I' for Inactive)
REMARK    1  A    between atoms: C_6  and  C_11
REMARK    2  A    between atoms: C_19  and  C_21
REMARK    3  A    between atoms: N_23  and  C_24
REMARK    4  A    between atoms: C_24  and  C_25
REMARK                            x       y       z     vdW  Elec       q    Type
REMARK                         _______ _______ _______ _____ _____    ______ ____
ROOT
ATOM      1  C   UNL     1       3.595  -2.761   1.234  0.00  0.00    +0.242 C 
ATOM      2  O   UNL     1       4.266  -2.163   2.047  0.00  0.00    -0.273 OA
ATOM      3  N   UNL     1       3.318  -4.067   1.419  0.00  0.00    -0.297 N 
ATOM      4  C   UNL     1       2.511  -4.807   0.438  0.00  0.00    +0.127 C 
ATOM      5  C   UNL     1       3.306  -6.034  -0.025  0.00  0.00    +0.127 C 
ATOM      6  N   UNL     1       3.806  -6.744   1.161  0.00  0.00    -0.291 N 
ATOM      7  C   UNL     1       4.612  -6.005   2.142  0.00  0.00    +0.127 C 
ATOM      8  C   UNL     1       3.822  -4.779   2.602  0.00  0.00    +0.127 C 
ATOM      9  C   UNL     1       3.529  -8.050   1.346  0.00  0.00    +0.302 C 
ATOM     10  O   UNL     1       4.026  -8.650   2.277  0.00  0.00    -0.265 OA
ENDROOT
BRANCH   1  16
ATOM     11  C   UNL     1      -0.128   1.319   0.106  0.00  0.00    +0.001 A 
ATOM     12  C   UNL     1       1.046   2.086   0.102  0.00  0.00    +0.002 A 
ATOM     13  C   UNL     1       2.277   1.534   0.079  0.00  0.00    +0.026 A 
ATOM     14  C   UNL     1       2.431   0.120   0.057  0.00  0.00    +0.043 A 
ATOM     15  N   UNL     1       3.498  -0.642   0.032  0.00  0.00    -0.370 N 
ATOM     16  C   UNL     1       3.071  -2.045   0.016  0.00  0.00    +0.190 C 
ATOM     17  C   UNL     1       1.559  -2.018   0.035  0.00  0.00    +0.016 C 
ATOM     18  C   UNL     1       1.207  -0.712   0.059  0.00  0.00    -0.004 A 
ATOM     19  C   UNL     1      -0.094  -0.033   0.086  0.00  0.00    +0.010 A 
ATOM     20  H   UNL     1       4.417  -0.330   0.024  0.00  0.00    +0.161 HD
ENDBRANCH   1  16
BRANCH   9  21
ATOM     21  C   UNL     1       2.610  -8.760   0.405  0.00  0.00    +0.300 C 
ATOM     22  O   UNL     1       2.199  -8.192  -0.586  0.00  0.00    -0.265 OA
ATOM     23  N   UNL     1       2.237 -10.030   0.656  0.00  0.00    -0.300 N 
ATOM     24  H   UNL     1       2.566 -10.485   1.448  0.00  0.00    +0.150 HD
BRANCH  23  25
ATOM     25  C   UNL     1       1.336 -10.726  -0.266  0.00  0.00    +0.179 C 
BRANCH  25  26
ATOM     26  C   UNL     1       1.079 -12.122   0.240  0.00  0.00    +0.122 A 
ATOM     27  C   UNL     1       0.081 -12.488   1.065  0.00  0.00    +0.046 A 
ATOM     28  C   UNL     1       0.215 -13.879   1.279  0.00  0.00    +0.041 A 
ATOM     29  C   UNL     1       1.287 -14.280   0.571  0.00  0.00    +0.195 A 
ATOM     30  O   UNL     1       1.802 -13.213  -0.060  0.00  0.00    -0.466 OA
ENDBRANCH  25  26
ENDBRANCH  23  25
ENDBRANCH   9  21
TORSDOF 4
