REMARK  Name = ZINC08794695
REMARK  13 active torsions:
REMARK  status: ('A' for Active; 'I' for Inactive)
REMARK    1  A    between atoms: C_1  and  C_2
REMARK    2  A    between atoms: C_2  and  O_3
REMARK    3  A    between atoms: O_3  and  C_4
REMARK    4  A    between atoms: C_4  and  C_6
REMARK    5  A    between atoms: C_7  and  C_34
REMARK    6  A    between atoms: C_8  and  S_31
REMARK    7  A    between atoms: C_9  and  N_11
REMARK    8  A    between atoms: C_12  and  C_14
REMARK    9  A    between atoms: C_19  and  N_20
REMARK   10  A    between atoms: N_20  and  S_21
REMARK   11  A    between atoms: S_21  and  C_24
REMARK   12  A    between atoms: C_27  and  C_30
REMARK   13  A    between atoms: S_31  and  C_32
REMARK                            x       y       z     vdW  Elec       q    Type
REMARK                         _______ _______ _______ _____ _____    ______ ____
ROOT
ATOM      1  N   UNL     1       1.289   1.597  -0.294  0.00  0.00    -0.275 N 
ATOM      2  C   UNL     1       0.083   1.006  -0.189  0.00  0.00    +0.250 C 
ATOM      3  O   UNL     1       0.007  -0.200  -0.048  0.00  0.00    -0.270 OA
ATOM      4  H   UNL     1       1.349   2.559  -0.406  0.00  0.00    +0.156 HD
ENDROOT
BRANCH   1   8
ATOM      5  C   UNL     1       4.393  -1.034  -0.085  0.00  0.00    +0.102 A 
ATOM      6  C   UNL     1       4.756   0.297  -0.250  0.00  0.00    -0.013 A 
ATOM      7  C   UNL     1       3.768   1.241  -0.329  0.00  0.00    +0.055 A 
ATOM      8  C   UNL     1       2.446   0.830  -0.241  0.00  0.00    +0.087 A 
ATOM      9  S   UNL     1       2.611  -0.935  -0.036  0.00  0.00    -0.066 S 
ATOM     10  C   UNL     1       6.208   0.692  -0.340  0.00  0.00    +0.046 C 
BRANCH   5  11
ATOM     11  C   UNL     1       5.223  -2.176   0.022  0.00  0.00    +0.346 C 
ATOM     12  O   UNL     1       6.433  -2.055  -0.029  0.00  0.00    -0.244 OA
BRANCH  11  13
ATOM     13  O   UNL     1       4.672  -3.398   0.179  0.00  0.00    -0.461 OA
BRANCH  13  15
ATOM     14  C   UNL     1       4.768  -5.798   0.454  0.00  0.00    +0.048 C 
ATOM     15  C   UNL     1       5.569  -4.506   0.281  0.00  0.00    +0.229 C 
ENDBRANCH  13  15
ENDBRANCH  11  13
ENDBRANCH   5  11
BRANCH   7  16
ATOM     16  S   UNL     1       4.167   2.945  -0.538  0.00  0.00    -0.008 S 
BRANCH  16  17
ATOM     17  C   UNL     1       4.292   3.453   1.194  0.00  0.00    +0.138 C 
ATOM     18  N   UNL     1       4.371   3.772   2.282  0.00  0.00    -0.183 NA
ENDBRANCH  16  17
ENDBRANCH   7  16
ENDBRANCH   1   8
BRANCH   2  19
ATOM     19  C   UNL     1      -1.145   1.819  -0.251  0.00  0.00    +0.059 A 
ATOM     20  C   UNL     1      -1.063   3.205  -0.412  0.00  0.00    +0.015 A 
ATOM     21  C   UNL     1      -2.214   3.959  -0.470  0.00  0.00    +0.001 A 
ATOM     22  C   UNL     1      -3.456   3.351  -0.368  0.00  0.00    +0.002 A 
ATOM     23  C   UNL     1      -3.554   1.984  -0.209  0.00  0.00    +0.025 A 
ATOM     24  C   UNL     1      -2.404   1.206  -0.154  0.00  0.00    +0.060 A 
BRANCH  24  25
ATOM     25  N   UNL     1      -2.500  -0.171   0.001  0.00  0.00    -0.216 N 
ATOM     26  H   UNL     1      -1.840  -0.647   0.529  0.00  0.00    +0.174 HD
BRANCH  25  27
ATOM     27  S   UNL     1      -3.741  -1.000  -0.717  0.00  0.00    +0.072 S 
ATOM     28  O   UNL     1      -3.492  -2.381  -0.489  0.00  0.00    -0.150 OA
ATOM     29  O   UNL     1      -4.944  -0.365  -0.307  0.00  0.00    -0.150 OA
BRANCH  27  30
ATOM     30  C   UNL     1      -3.602  -0.744  -2.454  0.00  0.00    +0.109 A 
ATOM     31  C   UNL     1      -4.251   0.322  -3.050  0.00  0.00    +0.029 A 
ATOM     32  C   UNL     1      -4.139   0.526  -4.412  0.00  0.00    +0.005 A 
ATOM     33  C   UNL     1      -3.386  -0.342  -5.181  0.00  0.00    -0.050 A 
ATOM     34  C   UNL     1      -2.741  -1.411  -4.587  0.00  0.00    +0.005 A 
ATOM     35  C   UNL     1      -2.850  -1.612  -3.224  0.00  0.00    +0.029 A 
ATOM     36  C   UNL     1      -3.268  -0.123  -6.668  0.00  0.00    +0.044 C 
ENDBRANCH  27  30
ENDBRANCH  25  27
ENDBRANCH  24  25
ENDBRANCH   2  19
TORSDOF 10
