REMARK  Name = ZINC10628657
REMARK  5 active torsions:
REMARK  status: ('A' for Active; 'I' for Inactive)
REMARK    1  A    between atoms: C_3  and  C_8
REMARK    2  A    between atoms: C_8  and  O_10
REMARK    3  A    between atoms: O_10  and  C_11
REMARK    4  A    between atoms: C_11  and  C_12
REMARK    5  A    between atoms: N_17  and  C_18
REMARK                            x       y       z     vdW  Elec       q    Type
REMARK                         _______ _______ _______ _____ _____    ______ ____
ROOT
ATOM      1  C   UNL     1       1.396   1.969  -0.001  0.00  0.00    +0.258 C 
ATOM      2  O   UNL     1       2.328   1.194  -0.014  0.00  0.00    -0.272 OA
ATOM      3  N   UNL     1       1.625   3.298   0.004  0.00  0.00    -0.237 N 
ATOM      4  C   UNL     1       2.889   3.764  -0.005  0.00  0.00    +0.306 C 
ATOM      5  O   UNL     1       3.823   2.987  -0.018  0.00  0.00    -0.252 OA
ATOM      6  N   UNL     1       3.117   5.093  -0.000  0.00  0.00    -0.294 N 
ATOM      7  H   UNL     1       0.879   3.918   0.015  0.00  0.00    +0.159 HD
ATOM      8  H   UNL     1       2.371   5.713   0.010  0.00  0.00    +0.151 HD
ENDROOT
BRANCH   6   9
ATOM      9  C   UNL     1       4.492   5.599  -0.011  0.00  0.00    +0.037 C 
ATOM     10  C   UNL     1       5.231   5.093   1.229  0.00  0.00    +0.029 C 
ATOM     11  C   UNL     1       6.667   5.622   1.218  0.00  0.00    -0.008 C 
ATOM     12  C   UNL     1       6.646   7.152   1.226  0.00  0.00    +0.007 C 
ATOM     13  C   UNL     1       5.906   7.659  -0.013  0.00  0.00    -0.008 C 
ATOM     14  C   UNL     1       4.471   7.129  -0.002  0.00  0.00    +0.029 C 
ATOM     15  C   UNL     1       6.622   7.165  -1.272  0.00  0.00    +0.007 C 
ATOM     16  C   UNL     1       6.643   5.636  -1.280  0.00  0.00    -0.008 C 
ATOM     17  C   UNL     1       7.383   5.129  -0.041  0.00  0.00    +0.007 C 
ATOM     18  C   UNL     1       5.208   5.106  -1.270  0.00  0.00    +0.029 C 
ENDBRANCH   6   9
BRANCH   1  19
ATOM     19  C   UNL     1      -0.018   1.448   0.010  0.00  0.00    +0.328 C 
BRANCH  19  20
ATOM     20  O   UNL     1       0.002  -0.004   0.002  0.00  0.00    -0.452 OA
BRANCH  20  21
ATOM     21  C   UNL     1      -1.190  -0.632   0.010  0.00  0.00    +0.340 C 
ATOM     22  O   UNL     1      -2.217   0.016   0.023  0.00  0.00    -0.245 OA
BRANCH  21  25
ATOM     23  C   UNL     1      -0.128  -4.234  -0.019  0.00  0.00    +0.002 A 
ATOM     24  C   UNL     1      -0.068  -2.855  -0.018  0.00  0.00    +0.015 A 
ATOM     25  C   UNL     1      -1.247  -2.108   0.003  0.00  0.00    +0.060 A 
ATOM     26  C   UNL     1      -2.481  -2.762   0.011  0.00  0.00    +0.030 A 
ATOM     27  C   UNL     1      -2.527  -4.141   0.004  0.00  0.00    +0.019 A 
ATOM     28  C   UNL     1      -1.353  -4.876  -0.011  0.00  0.00    +0.015 A 
ATOM     29 BR   UNL     1      -4.196  -5.030   0.015  0.00  0.00    -0.050 Br
ENDBRANCH  21  25
ENDBRANCH  20  21
ENDBRANCH  19  20
ENDBRANCH   1  19
TORSDOF 5
