REMARK  Name = ZINC66450026
REMARK  9 active torsions:
REMARK  status: ('A' for Active; 'I' for Inactive)
REMARK    1  A    between atoms: C_1  and  C_2
REMARK    2  A    between atoms: C_3  and  N_28
REMARK    3  A    between atoms: C_4  and  C_27
REMARK    4  A    between atoms: N_5  and  C_7
REMARK    5  A    between atoms: C_7  and  N_8
REMARK    6  A    between atoms: N_11  and  C_14
REMARK    7  A    between atoms: C_14  and  C_15
REMARK    8  A    between atoms: N_17  and  C_18
REMARK    9  A    between atoms: C_23  and  C_26
REMARK                            x       y       z     vdW  Elec       q    Type
REMARK                         _______ _______ _______ _____ _____    ______ ____
ROOT
ATOM      1  N   UNL     1       1.445  -3.672   1.766  0.00  0.00    -0.281 NA
ATOM      2  C   UNL     1       2.116  -2.646   2.576  0.00  0.00    +0.101 C 
ATOM      3  C   UNL     1       3.581  -3.037   2.779  0.00  0.00    +0.100 C 
ATOM      4  N   UNL     1       3.648  -4.350   3.437  0.00  0.00    -0.292 NA
ATOM      5  C   UNL     1       2.977  -5.376   2.627  0.00  0.00    +0.100 C 
ATOM      6  C   UNL     1       1.512  -4.985   2.424  0.00  0.00    +0.101 C 
ENDROOT
BRANCH   1   7
ATOM      7  C   UNL     1       0.053  -3.295   1.485  0.00  0.00    +0.230 C 
BRANCH   7  12
ATOM      8  C   UNL     1      -0.018   1.503   0.010  0.00  0.00    +0.070 C 
ATOM      9  C   UNL     1       0.002  -0.004   0.002  0.00  0.00    +0.090 A 
ATOM     10  C   UNL     1       0.008  -0.818  -1.135  0.00  0.00    +0.169 A 
ATOM     11  C   UNL     1       0.027  -2.107  -0.725  0.00  0.00    +0.068 A 
ATOM     12  N   UNL     1       0.034  -2.109   0.625  0.00  0.00    -0.252 N 
ATOM     13  N   UNL     1       0.023  -0.777   1.058  0.00  0.00    -0.173 NA
ATOM     14  C   UNL     1       0.039  -3.323  -1.615  0.00  0.00    +0.068 C 
BRANCH  10  15
ATOM     15  N   UNL     1      -0.005  -0.351  -2.540  0.00  0.00    +0.060 N 
ATOM     16  O   UNL     1       1.036  -0.147  -3.119  0.00  0.00    -0.126 OA
ATOM     17  O   UNL     1      -1.058  -0.175  -3.109  0.00  0.00    -0.126 OA
ENDBRANCH  10  15
ENDBRANCH   7  12
ENDBRANCH   1   7
BRANCH   4  18
ATOM     18  C   UNL     1       5.040  -4.727   3.718  0.00  0.00    +0.180 C 
BRANCH  18  19
ATOM     19  C   UNL     1       5.060  -5.947   4.603  0.00  0.00    +0.227 C 
ATOM     20  O   UNL     1       4.019  -6.452   4.964  0.00  0.00    -0.274 OA
ATOM     21  N   UNL     1       6.237  -6.476   4.993  0.00  0.00    -0.311 N 
ATOM     22  H   UNL     1       7.070  -6.072   4.705  0.00  0.00    +0.149 HD
BRANCH  21  23
ATOM     23  C   UNL     1       6.257  -7.662   5.853  0.00  0.00    +0.073 C 
ATOM     24  C   UNL     1       6.132  -7.233   7.317  0.00  0.00    +0.022 C 
ATOM     25  C   UNL     1       7.303  -6.318   7.681  0.00  0.00    +0.002 C 
ATOM     26  C   UNL     1       8.620  -7.071   7.482  0.00  0.00    +0.003 C 
ATOM     27  C   UNL     1       8.744  -7.501   6.018  0.00  0.00    -0.012 C 
ATOM     28  C   UNL     1       7.573  -8.415   5.653  0.00  0.00    +0.025 C 
ATOM     29  C   UNL     1      10.061  -8.254   5.818  0.00  0.00    +0.007 C 
ENDBRANCH  21  23
ENDBRANCH  18  19
ENDBRANCH   4  18
TORSDOF 6
