REMARK  Name = ZINC41050465
REMARK  6 active torsions:
REMARK  status: ('A' for Active; 'I' for Inactive)
REMARK    1  A    between atoms: C_1  and  C_2
REMARK    2  A    between atoms: C_2  and  C_3
REMARK    3  A    between atoms: C_3  and  C_5
REMARK    4  A    between atoms: C_3  and  C_6
REMARK    5  A    between atoms: C_6  and  C_8
REMARK    6  A    between atoms: C_6  and  N_10
REMARK                            x       y       z     vdW  Elec       q    Type
REMARK                         _______ _______ _______ _____ _____    ______ ____
ROOT
ATOM      1  C   UNL     1       0.653  -1.993  -1.341  0.00  0.00    +0.163 C 
ENDROOT
BRANCH   1   2
ATOM      2  N   UNL     1       1.536  -2.472  -2.413  0.00  0.00    -0.287 NA
ATOM      3  C   UNL     1       1.273  -1.753  -3.676  0.00  0.00    +0.085 C 
ATOM      4  C   UNL     1       2.559  -1.704  -4.462  0.00  0.00    +0.015 C 
ATOM      5  C   UNL     1       2.645  -2.853  -5.481  0.00  0.00    +0.001 C 
ATOM      6  C   UNL     1       2.125  -4.181  -4.896  0.00  0.00    +0.001 C 
ATOM      7  C   UNL     1       2.574  -4.405  -3.474  0.00  0.00    +0.015 C 
ATOM      8  C   UNL     1       1.492  -3.865  -2.514  0.00  0.00    +0.085 C 
ENDBRANCH   1   2
BRANCH   1   9
ATOM      9  C   UNL     1       0.939  -0.515  -1.067  0.00  0.00    +0.017 C 
ATOM     10  C   UNL     1       0.116  -0.051   0.137  0.00  0.00    +0.010 C 
BRANCH   9  12
ATOM     11  C   UNL     1       2.737   1.161  -0.619  0.00  0.00    +0.004 C 
ATOM     12  C   UNL     1       2.428  -0.330  -0.769  0.00  0.00    +0.002 C 
ENDBRANCH   9  12
ENDBRANCH   1   9
BRANCH   1  13
ATOM     13  C   UNL     1      -0.751  -2.153  -1.753  0.00  0.00    +0.082 C 
ATOM     14  N   UNL     1      -1.835  -2.277  -2.071  0.00  0.00    -0.195 NA
ENDBRANCH   1  13
TORSDOF 4
