REMARK  Name = ZINC49812540
REMARK  1 active torsions:
REMARK  status: ('A' for Active; 'I' for Inactive)
REMARK    1  A    between atoms: C_5  and  C_6
REMARK                            x       y       z     vdW  Elec       q    Type
REMARK                         _______ _______ _______ _____ _____    ______ ____
ROOT
ATOM      1  C   UNL     1      -0.016   1.351   0.009  0.00  0.00    +0.016 A 
ATOM      2  C   UNL     1       1.184   2.038   0.002  0.00  0.00    +0.028 A 
ATOM      3  C   UNL     1       2.343   1.335  -0.013  0.00  0.00    +0.078 A 
ATOM      4  S   UNL     1       1.753  -0.350  -0.017  0.00  0.00    -0.078 S 
ATOM      5  C   UNL     1       0.002  -0.004   0.002  0.00  0.00    +0.031 A 
ATOM      6 CL   UNL     1       3.977   1.921  -0.026  0.00  0.00    -0.076 Cl
ENDROOT
BRANCH   5   7
ATOM      7  C   UNL     1      -1.156  -0.969   0.008  0.00  0.00    +0.214 C 
ATOM      8  C   UNL     1      -1.396  -1.538  -1.416  0.00  0.00    +0.061 C 
ATOM      9  C   UNL     1      -2.043  -2.902  -1.047  0.00  0.00    +0.124 C 
ATOM     10  C   UNL     1      -1.351  -3.243   0.261  0.00  0.00    +0.308 C 
ATOM     11  O   UNL     1      -1.269  -4.349   0.741  0.00  0.00    -0.251 OA
ATOM     12  O   UNL     1      -0.844  -2.123   0.804  0.00  0.00    -0.456 OA
ENDBRANCH   5   7
TORSDOF 1
