REMARK  Name = ZINC15939686
REMARK  9 active torsions:
REMARK  status: ('A' for Active; 'I' for Inactive)
REMARK    1  A    between atoms: C_1  and  C_2
REMARK    2  A    between atoms: C_2  and  N_3
REMARK    3  A    between atoms: C_12  and  C_14
REMARK    4  A    between atoms: N_16  and  N_17
REMARK    5  A    between atoms: C_18  and  C_20
REMARK    6  A    between atoms: C_20  and  S_21
REMARK    7  A    between atoms: S_21  and  C_22
REMARK    8  A    between atoms: C_24  and  C_30
REMARK    9  A    between atoms: C_27  and  C_28
REMARK                            x       y       z     vdW  Elec       q    Type
REMARK                         _______ _______ _______ _____ _____    ______ ____
ROOT
ATOM      1  C   UNL     1      -1.156  -0.694   0.009  0.00  0.00    +0.281 C 
ATOM      2  O   UNL     1      -2.217  -0.100   0.023  0.00  0.00    -0.267 OA
ATOM      3  N   UNL     1       0.002  -0.004   0.002  0.00  0.00    -0.229 N 
ATOM      4  H   UNL     1       0.849  -0.478  -0.009  0.00  0.00    +0.173 HD
ENDROOT
BRANCH   1  14
ATOM      5  N   UNL     1       0.107  -4.093  -0.021  0.00  0.00    -0.229 N 
ATOM      6  C   UNL     1      -0.953  -4.926  -0.015  0.00  0.00    +0.275 A 
ATOM      7  O   UNL     1      -0.797  -6.133  -0.024  0.00  0.00    -0.266 OA
ATOM      8  C   UNL     1      -2.302  -4.343   0.001  0.00  0.00    +0.050 A 
ATOM      9  C   UNL     1      -3.459  -5.115   0.008  0.00  0.00    +0.014 A 
ATOM     10  C   UNL     1      -4.688  -4.490   0.023  0.00  0.00    +0.001 A 
ATOM     11  C   UNL     1      -4.780  -3.104   0.032  0.00  0.00    +0.001 A 
ATOM     12  C   UNL     1      -3.645  -2.322   0.025  0.00  0.00    +0.011 A 
ATOM     13  C   UNL     1      -2.395  -2.932   0.015  0.00  0.00    +0.020 A 
ATOM     14  C   UNL     1      -1.136  -2.170   0.001  0.00  0.00    +0.155 A 
ATOM     15  N   UNL     1       0.004  -2.818  -0.013  0.00  0.00    -0.163 NA
BRANCH   5  17
ATOM     16  C   UNL     1       1.904  -4.876  -1.484  0.00  0.00    +0.029 C 
ATOM     17  C   UNL     1       1.450  -4.679  -0.036  0.00  0.00    +0.144 C 
ENDBRANCH   5  17
ENDBRANCH   1  14
BRANCH   3  18
ATOM     18  N   UNL     1      -0.017   1.397   0.010  0.00  0.00    -0.233 N 
ATOM     19  C   UNL     1       1.141   2.087   0.002  0.00  0.00    +0.239 C 
ATOM     20  O   UNL     1       2.199   1.494  -0.011  0.00  0.00    -0.273 OA
ATOM     21  H   UNL     1      -0.864   1.870   0.016  0.00  0.00    +0.173 HD
BRANCH  19  22
ATOM     22  C   UNL     1       1.121   3.593   0.011  0.00  0.00    +0.171 C 
BRANCH  22  23
ATOM     23  S   UNL     1       2.822   4.221  -0.002  0.00  0.00    -0.116 S 
BRANCH  23  24
ATOM     24  C   UNL     1       2.631   5.973   0.009  0.00  0.00    +0.012 A 
ATOM     25  C   UNL     1       1.359   6.534   0.018  0.00  0.00    +0.019 A 
ATOM     26  C   UNL     1       1.212   7.907   0.033  0.00  0.00    -0.035 A 
ATOM     27  C   UNL     1       2.329   8.724   0.027  0.00  0.00    +0.021 A 
ATOM     28  C   UNL     1       3.596   8.168   0.012  0.00  0.00    +0.020 A 
ATOM     29  C   UNL     1       3.750   6.796   0.003  0.00  0.00    -0.036 A 
ATOM     30  C   UNL     1       5.130   6.191  -0.013  0.00  0.00    +0.045 C 
ATOM     31 BR   UNL     1       2.124  10.604   0.038  0.00  0.00    -0.050 Br
ATOM     32  C   UNL     1      -0.166   8.516   0.050  0.00  0.00    +0.045 C 
ENDBRANCH  23  24
ENDBRANCH  22  23
ENDBRANCH  19  22
ENDBRANCH   3  18
TORSDOF 6
