REMARK  Name = ZINC40137500
REMARK  10 active torsions:
REMARK  status: ('A' for Active; 'I' for Inactive)
REMARK    1  A    between atoms: C_1  and  C_2
REMARK    2  A    between atoms: C_6  and  O_8
REMARK    3  A    between atoms: O_8  and  C_9
REMARK    4  A    between atoms: C_9  and  C_10
REMARK    5  A    between atoms: C_10  and  N_11
REMARK    6  A    between atoms: N_19  and  N_20
REMARK    7  A    between atoms: C_21  and  C_23
REMARK    8  A    between atoms: C_23  and  C_24
REMARK    9  A    between atoms: C_24  and  N_25
REMARK   10  A    between atoms: C_26  and  C_28
REMARK                            x       y       z     vdW  Elec       q    Type
REMARK                         _______ _______ _______ _____ _____    ______ ____
ROOT
ATOM      1  N   UNL     1      -1.170  -4.465   4.366  0.00  0.00    -0.262 N 
ATOM      2  C   UNL     1      -1.367  -3.319   5.129  0.00  0.00    +0.046 A 
ATOM      3  C   UNL     1      -0.522  -2.259   5.439  0.00  0.00    +0.024 A 
ATOM      4  C   UNL     1      -0.972  -1.224   6.234  0.00  0.00    +0.002 A 
ATOM      5  C   UNL     1      -2.264  -1.227   6.731  0.00  0.00    +0.001 A 
ATOM      6  C   UNL     1      -3.117  -2.270   6.434  0.00  0.00    +0.012 A 
ATOM      7  C   UNL     1      -2.674  -3.318   5.634  0.00  0.00    +0.028 A 
ATOM      8  C   UNL     1      -3.315  -4.558   5.138  0.00  0.00    +0.153 C 
ATOM      9  N   UNL     1      -4.540  -4.968   5.364  0.00  0.00    -0.175 NA
ATOM     10  C   UNL     1      -2.277  -5.227   4.329  0.00  0.00    +0.271 C 
ATOM     11  O   UNL     1      -2.400  -6.283   3.737  0.00  0.00    -0.268 OA
ENDROOT
BRANCH   9  12
ATOM     12  N   UNL     1      -4.986  -6.176   4.813  0.00  0.00    -0.206 N 
ATOM     13  C   UNL     1      -6.245  -6.598   5.045  0.00  0.00    +0.234 C 
ATOM     14  O   UNL     1      -6.991  -5.933   5.731  0.00  0.00    -0.274 OA
ATOM     15  H   UNL     1      -4.389  -6.709   4.264  0.00  0.00    +0.177 HD
BRANCH  13  16
ATOM     16  C   UNL     1      -6.725  -7.898   4.451  0.00  0.00    +0.116 C 
BRANCH  16  17
ATOM     17  C   UNL     1      -8.178  -8.141   4.865  0.00  0.00    +0.114 C 
BRANCH  17  18
ATOM     18  N   UNL     1      -8.645  -9.404   4.288  0.00  0.00    -0.311 N 
ATOM     19  C   UNL     1      -9.903  -9.827   4.520  0.00  0.00    +0.245 C 
ATOM     20  O   UNL     1     -10.651  -9.159   5.208  0.00  0.00    -0.270 OA
ATOM     21  H   UNL     1      -8.048  -9.937   3.740  0.00  0.00    +0.149 HD
BRANCH  19  22
ATOM     22  C   UNL     1     -10.374 -11.101   3.939  0.00  0.00    +0.055 A 
ATOM     23  C   UNL     1      -9.516 -11.873   3.153  0.00  0.00    +0.014 A 
ATOM     24  C   UNL     1      -9.962 -13.061   2.613  0.00  0.00    +0.001 A 
ATOM     25  C   UNL     1     -11.257 -13.489   2.848  0.00  0.00    +0.001 A 
ATOM     26  C   UNL     1     -12.113 -12.731   3.625  0.00  0.00    +0.021 A 
ATOM     27  C   UNL     1     -11.678 -11.541   4.177  0.00  0.00    +0.053 A 
ATOM     28 CL   UNL     1     -12.752 -10.594   5.158  0.00  0.00    -0.083 Cl
ENDBRANCH  19  22
ENDBRANCH  17  18
ENDBRANCH  16  17
ENDBRANCH  13  16
ENDBRANCH   9  12
BRANCH   1  29
ATOM     29  C   UNL     1       0.083  -4.796   3.683  0.00  0.00    +0.155 C 
BRANCH  29  30
ATOM     30  C   UNL     1       0.069  -4.202   2.274  0.00  0.00    +0.248 C 
BRANCH  30  31
ATOM     31  O   UNL     1       0.050  -2.776   2.358  0.00  0.00    -0.490 OA
BRANCH  31  37
ATOM     32  C   UNL     1      -0.018   1.503   0.010  0.00  0.00    +0.044 C 
ATOM     33  C   UNL     1       0.002  -0.004   0.002  0.00  0.00    -0.047 A 
ATOM     34  C   UNL     1       0.006  -0.688  -1.200  0.00  0.00    +0.003 A 
ATOM     35  C   UNL     1       0.024  -2.071  -1.211  0.00  0.00    +0.004 A 
ATOM     36  C   UNL     1       0.039  -2.772  -0.020  0.00  0.00    +0.045 A 
ATOM     37  C   UNL     1       0.035  -2.088   1.186  0.00  0.00    +0.121 A 
ATOM     38  C   UNL     1       0.023  -0.700   1.195  0.00  0.00    +0.049 A 
ENDBRANCH  31  37
ENDBRANCH  30  31
ENDBRANCH  29  30
ENDBRANCH   1  29
TORSDOF 9
