REMARK  Name = ZINC39939204
REMARK  11 active torsions:
REMARK  status: ('A' for Active; 'I' for Inactive)
REMARK    1  A    between atoms: C_1  and  C_2
REMARK    2  A    between atoms: C_2  and  C_3
REMARK    3  A    between atoms: N_13  and  N_14
REMARK    4  A    between atoms: C_15  and  C_40
REMARK    5  A    between atoms: C_18  and  C_22
REMARK    6  A    between atoms: C_19  and  C_21
REMARK    7  A    between atoms: C_23  and  C_24
REMARK    8  A    between atoms: C_23  and  C_26
REMARK    9  A    between atoms: N_28  and  C_29
REMARK   10  A    between atoms: C_29  and  C_30
REMARK   11  A    between atoms: C_30  and  C_31
REMARK                            x       y       z     vdW  Elec       q    Type
REMARK                         _______ _______ _______ _____ _____    ______ ____
ROOT
ATOM      1  N   UNL     1      -1.083  -2.729  -0.626  0.00  0.00    -0.253 N 
ATOM      2  C   UNL     1      -1.458  -3.753  -1.630  0.00  0.00    +0.112 C 
ATOM      3  C   UNL     1      -2.037  -4.902  -0.838  0.00  0.00    +0.002 C 
ATOM      4  C   UNL     1      -1.675  -4.773   0.445  0.00  0.00    -0.027 C 
ATOM      5  C   UNL     1      -0.829  -3.530   0.594  0.00  0.00    +0.118 C 
ATOM      6  C   UNL     1      -1.254  -2.747   1.838  0.00  0.00    +0.035 C 
ATOM      7  C   UNL     1      -0.220  -4.212  -2.405  0.00  0.00    +0.034 C 
ENDROOT
BRANCH   1  18
ATOM      8  C   UNL     1      -1.874  -0.511  -0.563  0.00  0.00    +0.131 A 
ATOM      9  N   UNL     1      -2.792   0.392  -0.396  0.00  0.00    -0.232 NA
ATOM     10  C   UNL     1      -4.064   0.060  -0.063  0.00  0.00    +0.078 A 
ATOM     11  C   UNL     1      -5.052   1.031   0.116  0.00  0.00    +0.028 A 
ATOM     12  C   UNL     1      -6.330   0.649   0.454  0.00  0.00    +0.002 A 
ATOM     13  C   UNL     1      -6.652  -0.692   0.619  0.00  0.00    +0.001 A 
ATOM     14  C   UNL     1      -5.695  -1.668   0.447  0.00  0.00    +0.015 A 
ATOM     15  C   UNL     1      -4.395  -1.303   0.105  0.00  0.00    +0.066 A 
ATOM     16  C   UNL     1      -3.332  -2.300  -0.091  0.00  0.00    +0.279 A 
ATOM     17  O   UNL     1      -3.551  -3.490   0.039  0.00  0.00    -0.265 OA
ATOM     18  N   UNL     1      -2.103  -1.843  -0.427  0.00  0.00    -0.212 N 
BRANCH   8  20
ATOM     19  C   UNL     1      -0.455   1.468  -1.031  0.00  0.00    +0.012 C 
ATOM     20  C   UNL     1      -0.485  -0.059  -0.933  0.00  0.00    +0.073 C 
ENDBRANCH   8  20
ENDBRANCH   1  18
BRANCH   4  21
ATOM     21  C   UNL     1      -2.026  -5.658   1.491  0.00  0.00    +0.029 C 
ATOM     22  C   UNL     1      -1.700  -6.996   1.402  0.00  0.00    +0.114 C 
BRANCH  22  23
ATOM     23  C   UNL     1      -0.852  -7.474   0.299  0.00  0.00    +0.254 C 
ATOM     24  O   UNL     1      -0.345  -6.678  -0.468  0.00  0.00    -0.269 OA
ATOM     25  N   UNL     1      -0.638  -8.795   0.138  0.00  0.00    -0.310 N 
ATOM     26  H   UNL     1      -1.042  -9.430   0.750  0.00  0.00    +0.149 HD
BRANCH  25  27
ATOM     27  C   UNL     1       0.207  -9.272  -0.960  0.00  0.00    +0.109 C 
BRANCH  27  28
ATOM     28  C   UNL     1       0.286 -10.799  -0.917  0.00  0.00    +0.056 C 
BRANCH  28  29
ATOM     29  C   UNL     1       1.154 -11.290  -2.046  0.00  0.00    -0.021 A 
ATOM     30  C   UNL     1       2.614 -11.408  -2.035  0.00  0.00    +0.003 A 
ATOM     31  C   UNL     1       3.602 -11.140  -1.086  0.00  0.00    +0.010 A 
ATOM     32  C   UNL     1       4.915 -11.363  -1.391  0.00  0.00    +0.001 A 
ATOM     33  C   UNL     1       5.275 -11.854  -2.639  0.00  0.00    +0.002 A 
ATOM     34  C   UNL     1       4.316 -12.125  -3.591  0.00  0.00    +0.026 A 
ATOM     35  C   UNL     1       2.974 -11.906  -3.301  0.00  0.00    +0.047 A 
ATOM     36  N   UNL     1       1.810 -12.073  -4.017  0.00  0.00    -0.360 N 
ATOM     37  C   UNL     1       0.736 -11.707  -3.252  0.00  0.00    +0.087 A 
ATOM     38  H   UNL     1       1.758 -12.405  -4.927  0.00  0.00    +0.165 HD
ENDBRANCH  28  29
ENDBRANCH  27  28
ENDBRANCH  25  27
ENDBRANCH  22  23
BRANCH  22  39
ATOM     39  C   UNL     1      -2.187  -7.918   2.383  0.00  0.00    +0.104 C 
ATOM     40  N   UNL     1      -2.574  -8.650   3.161  0.00  0.00    -0.191 NA
ENDBRANCH  22  39
ENDBRANCH   4  21
TORSDOF 8
