REMARK  Name = ZINC14996166
REMARK  8 active torsions:
REMARK  status: ('A' for Active; 'I' for Inactive)
REMARK    1  A    between atoms: C_4  and  C_7
REMARK    2  A    between atoms: C_7  and  O_8
REMARK    3  A    between atoms: O_8  and  C_9
REMARK    4  A    between atoms: C_12  and  C_15
REMARK    5  A    between atoms: C_15  and  N_69
REMARK    6  A    between atoms: C_17  and  N_32
REMARK    7  A    between atoms: C_20  and  C_22
REMARK    8  A    between atoms: N_24  and  C_25
REMARK                            x       y       z     vdW  Elec       q    Type
REMARK                         _______ _______ _______ _____ _____    ______ ____
ROOT
ATOM      1  C   UNL     1       3.316  -2.018  -2.050  0.00  0.00    -0.050 C 
ATOM      2  C   UNL     1       4.173  -2.510  -3.237  0.00  0.00    +0.093 C 
ATOM      3  C   UNL     1       5.622  -2.133  -2.868  0.00  0.00    +0.019 C 
ATOM      4  C   UNL     1       5.520  -1.445  -1.490  0.00  0.00    +0.022 C 
ATOM      5  N   UNL     1       4.133  -0.967  -1.450  0.00  0.00    +0.391 N 
ATOM      6  H   UNL     1       4.044  -0.100  -1.993  0.00  0.00    -0.080 HD
ENDROOT
BRANCH   2   7
ATOM      7  N   UNL     1       3.770  -1.835  -4.473  0.00  0.00    -0.231 N 
ATOM      8  C   UNL     1       3.271  -0.589  -4.577  0.00  0.00    +0.245 A 
ATOM      9  N   UNL     1       3.046  -0.379  -5.851  0.00  0.00    -0.117 NA
ATOM     10  N   UNL     1       3.388  -1.440  -6.496  0.00  0.00    -0.023 NA
ATOM     11  N   UNL     1       3.832  -2.320  -5.667  0.00  0.00    -0.044 NA
ENDBRANCH   2   7
BRANCH   4  12
ATOM     12  C   UNL     1       6.498  -0.302  -1.396  0.00  0.00    +0.200 C 
ATOM     13  O   UNL     1       6.093   0.836  -1.287  0.00  0.00    -0.278 OA
ATOM     14  N   UNL     1       7.823  -0.545  -1.434  0.00  0.00    -0.314 N 
ATOM     15  H   UNL     1       8.147  -1.455  -1.521  0.00  0.00    +0.149 HD
BRANCH  14  16
ATOM     16  C   UNL     1       8.774   0.566  -1.343  0.00  0.00    +0.073 C 
ATOM     17  C   UNL     1       8.930   1.206  -2.737  0.00  0.00    +0.022 C 
ATOM     18  C   UNL     1       9.467   2.601  -2.565  0.00  0.00    +0.002 C 
ATOM     19  C   UNL     1      11.003   2.659  -2.683  0.00  0.00    +0.000 C 
ATOM     20  C   UNL     1      11.702   1.491  -1.962  0.00  0.00    +0.000 C 
ATOM     21  C   UNL     1      11.080   1.183  -0.627  0.00  0.00    +0.002 C 
ATOM     22  C   UNL     1      10.036   0.064  -0.819  0.00  0.00    +0.022 C 
ENDBRANCH  14  16
ENDBRANCH   4  12
BRANCH   5  23
ATOM     23  C   UNL     1       3.711  -0.707  -0.037  0.00  0.00    -0.042 C 
BRANCH  23  27
ATOM     24  C   UNL     1      -0.017   1.383   0.010  0.00  0.00    +0.121 A 
ATOM     25  C   UNL     1       1.177   2.091   0.002  0.00  0.00    +0.046 A 
ATOM     26  C   UNL     1       2.380   1.413  -0.013  0.00  0.00    +0.005 A 
ATOM     27  C   UNL     1       2.396   0.030  -0.021  0.00  0.00    -0.064 A 
ATOM     28  C   UNL     1       1.208  -0.677  -0.013  0.00  0.00    +0.005 A 
ATOM     29  C   UNL     1       0.002  -0.004   0.002  0.00  0.00    +0.046 A 
BRANCH  24  30
ATOM     30  O   UNL     1      -1.202   2.048   0.019  0.00  0.00    -0.487 OA
BRANCH  30  31
ATOM     31  C   UNL     1      -1.145   3.475   0.026  0.00  0.00    +0.264 C 
BRANCH  31  35
ATOM     32  C   UNL     1      -5.113   5.059   0.054  0.00  0.00    +0.000 A 
ATOM     33  C   UNL     1      -4.465   4.796   1.246  0.00  0.00    +0.000 A 
ATOM     34  C   UNL     1      -3.181   4.284   1.238  0.00  0.00    +0.007 A 
ATOM     35  C   UNL     1      -2.545   4.034   0.036  0.00  0.00    -0.010 A 
ATOM     36  C   UNL     1      -3.191   4.302  -1.157  0.00  0.00    +0.007 A 
ATOM     37  C   UNL     1      -4.476   4.809  -1.148  0.00  0.00    +0.000 A 
ENDBRANCH  31  35
ENDBRANCH  30  31
ENDBRANCH  24  30
ENDBRANCH  23  27
ENDBRANCH   5  23
TORSDOF 8
