REMARK  Name = ZINC09505411
REMARK  11 active torsions:
REMARK  status: ('A' for Active; 'I' for Inactive)
REMARK    1  A    between atoms: C_1  and  C_2
REMARK    2  A    between atoms: C_2  and  N_63
REMARK    3  A    between atoms: C_3  and  C_4
REMARK    4  A    between atoms: C_3  and  N_63
REMARK    5  A    between atoms: C_5  and  C_6
REMARK    6  A    between atoms: C_5  and  N_63
REMARK    7  A    between atoms: C_6  and  N_7
REMARK    8  A    between atoms: C_13  and  C_17
REMARK    9  A    between atoms: C_18  and  C_20
REMARK   10  A    between atoms: N_25  and  S_26
REMARK   11  A    between atoms: S_26  and  C_29
REMARK                            x       y       z     vdW  Elec       q    Type
REMARK                         _______ _______ _______ _____ _____    ______ ____
ROOT
ATOM      1  N   UNL     1      -3.657   4.010   5.212  0.00  0.00    -0.251 N 
ATOM      2  C   UNL     1      -2.678   4.350   4.293  0.00  0.00    +0.168 A 
ATOM      3  N   UNL     1      -1.533   4.959   4.497  0.00  0.00    -0.224 NA
ATOM      4  C   UNL     1      -0.667   5.230   3.498  0.00  0.00    +0.080 A 
ATOM      5  C   UNL     1       0.589   5.875   3.582  0.00  0.00    +0.029 A 
ATOM      6  C   UNL     1       1.351   6.072   2.460  0.00  0.00    +0.005 A 
ATOM      7  C   UNL     1       0.923   5.650   1.209  0.00  0.00    -0.049 A 
ATOM      8  C   UNL     1      -0.302   5.021   1.089  0.00  0.00    +0.020 A 
ATOM      9  C   UNL     1      -1.070   4.815   2.208  0.00  0.00    +0.041 A 
ATOM     10  S   UNL     1      -2.652   4.072   2.528  0.00  0.00    -0.052 S 
ATOM     11  C   UNL     1       1.783   5.881  -0.007  0.00  0.00    +0.044 C 
ATOM     12  C   UNL     1      -4.807   3.445   4.794  0.00  0.00    +0.240 C 
ATOM     13  O   UNL     1      -5.687   3.198   5.591  0.00  0.00    -0.273 OA
ENDROOT
BRANCH  12  14
ATOM     14  C   UNL     1      -4.999   3.119   3.335  0.00  0.00    +0.166 C 
ATOM     15  C   UNL     1      -4.116   1.915   2.945  0.00  0.00    +0.031 C 
ATOM     16  C   UNL     1      -5.106   0.719   3.036  0.00  0.00    +0.019 C 
ATOM     17  C   UNL     1      -6.424   1.368   2.543  0.00  0.00    +0.110 C 
ATOM     18  N   UNL     1      -6.397   2.737   3.088  0.00  0.00    -0.164 NA
BRANCH  18  19
ATOM     19  S   UNL     1      -7.723   3.688   3.373  0.00  0.00    +0.068 S 
ATOM     20  O   UNL     1      -8.825   2.808   3.543  0.00  0.00    -0.152 OA
ATOM     21  O   UNL     1      -7.340   4.630   4.366  0.00  0.00    -0.152 OA
BRANCH  19  22
ATOM     22  C   UNL     1      -8.032   4.606   1.901  0.00  0.00    +0.143 A 
ATOM     23  C   UNL     1      -8.806   4.278   0.838  0.00  0.00    +0.036 A 
ATOM     24  C   UNL     1      -8.905   5.165  -0.218  0.00  0.00    +0.010 A 
ATOM     25  C   UNL     1      -8.218   6.332  -0.163  0.00  0.00    +0.047 A 
ATOM     26  S   UNL     1      -7.402   6.206   1.420  0.00  0.00    -0.077 S 
ENDBRANCH  19  22
ENDBRANCH  18  19
ENDBRANCH  12  14
BRANCH   1  27
ATOM     27  C   UNL     1      -3.443   4.265   6.639  0.00  0.00    +0.097 C 
BRANCH  27  28
ATOM     28  C   UNL     1      -4.040   5.624   7.009  0.00  0.00    -0.059 C 
BRANCH  28  29
ATOM     29  N   UNL     1      -3.679   5.938   8.408  0.00  0.00    +0.380 N 
ATOM     30  H   UNL     1      -2.664   5.832   8.522  0.00  0.00    -0.082 HD
BRANCH  29  32
ATOM     31  C   UNL     1      -3.046   8.275   8.068  0.00  0.00    -0.017 C 
ATOM     32  C   UNL     1      -4.055   7.332   8.726  0.00  0.00    -0.082 C 
ENDBRANCH  29  32
BRANCH  29  33
ATOM     33  C   UNL     1      -4.366   5.007   9.328  0.00  0.00    -0.082 C 
ATOM     34  C   UNL     1      -3.688   5.081  10.697  0.00  0.00    -0.017 C 
ENDBRANCH  29  33
ENDBRANCH  28  29
ENDBRANCH  27  28
ENDBRANCH   1  27
TORSDOF 8
