REMARK  Name = ZINC06462006
REMARK  13 active torsions:
REMARK  status: ('A' for Active; 'I' for Inactive)
REMARK    1  A    between atoms: C_1  and  C_2
REMARK    2  A    between atoms: C_2  and  C_3
REMARK    3  A    between atoms: C_3  and  C_4
REMARK    4  A    between atoms: C_3  and  C_5
REMARK    5  A    between atoms: C_3  and  N_6
REMARK    6  A    between atoms: C_7  and  C_9
REMARK    7  A    between atoms: C_9  and  C_11
REMARK    8  A    between atoms: C_9  and  N_21
REMARK    9  A    between atoms: N_21  and  C_22
REMARK   10  A    between atoms: C_26  and  C_28
REMARK   11  A    between atoms: C_29  and  C_31
REMARK   12  A    between atoms: C_32  and  N_39
REMARK   13  A    between atoms: C_33  and  C_36
REMARK                            x       y       z     vdW  Elec       q    Type
REMARK                         _______ _______ _______ _____ _____    ______ ____
ROOT
ATOM      1  N   UNL     1      -0.343   6.124   0.258  0.00  0.00    -0.251 N 
ATOM      2  C   UNL     1      -0.838   7.262   0.785  0.00  0.00    +0.262 C 
ATOM      3  O   UNL     1      -0.102   8.026   1.383  0.00  0.00    -0.269 OA
ENDROOT
BRANCH   1   4
ATOM      4  C   UNL     1      -1.200   5.212  -0.365  0.00  0.00    +0.038 A 
ATOM      5  C   UNL     1      -1.437   5.301  -1.732  0.00  0.00    +0.023 A 
ATOM      6  C   UNL     1      -2.283   4.398  -2.344  0.00  0.00    +0.002 A 
ATOM      7  C   UNL     1      -2.895   3.406  -1.600  0.00  0.00    +0.003 A 
ATOM      8  C   UNL     1      -2.666   3.318  -0.239  0.00  0.00    -0.049 A 
ATOM      9  C   UNL     1      -1.816   4.215   0.379  0.00  0.00    +0.027 A 
ATOM     10  C   UNL     1      -3.339   2.239   0.569  0.00  0.00    +0.044 C 
ENDBRANCH   1   4
BRANCH   2  11
ATOM     11  C   UNL     1      -2.260   7.578   0.639  0.00  0.00    +0.116 A 
ATOM     12  C   UNL     1      -2.998   8.617   1.209  0.00  0.00    +0.076 A 
ATOM     13  C   UNL     1      -4.340   8.591   0.827  0.00  0.00    +0.155 A 
ATOM     14  N   UNL     1      -4.761   7.640   0.022  0.00  0.00    -0.203 NA
ATOM     15  S   UNL     1      -3.512   6.736  -0.306  0.00  0.00    +0.019 S 
BRANCH  13  16
ATOM     16  C   UNL     1      -5.276   9.615   1.325  0.00  0.00    +0.262 C 
ATOM     17  O   UNL     1      -4.880  10.491   2.069  0.00  0.00    -0.269 OA
ATOM     18  N   UNL     1      -6.572   9.580   0.955  0.00  0.00    -0.324 N 
ATOM     19  H   UNL     1      -6.888   8.881   0.362  0.00  0.00    +0.145 HD
ATOM     20  H   UNL     1      -7.188  10.253   1.283  0.00  0.00    +0.145 HD
ENDBRANCH  13  16
BRANCH  12  21
ATOM     21  N   UNL     1      -2.457   9.573   2.058  0.00  0.00    -0.355 N 
ATOM     22  H   UNL     1      -1.514   9.541   2.286  0.00  0.00    +0.142 HD
ATOM     23  H   UNL     1      -3.021  10.272   2.424  0.00  0.00    +0.142 HD
ENDBRANCH  12  21
ENDBRANCH   2  11
BRANCH   1  24
ATOM     24  C   UNL     1       1.093   5.843   0.339  0.00  0.00    +0.199 C 
BRANCH  24  25
ATOM     25  C   UNL     1       1.660   5.725  -1.053  0.00  0.00    +0.007 A 
ATOM     26  C   UNL     1       1.458   4.715  -1.914  0.00  0.00    +0.089 A 
ATOM     27  N   UNL     1       2.133   4.955  -3.080  0.00  0.00    -0.360 N 
ATOM     28  H   UNL     1       2.139   4.367  -3.851  0.00  0.00    +0.165 HD
ATOM     29  C   UNL     1       2.803   6.155  -2.995  0.00  0.00    +0.047 A 
ATOM     30  C   UNL     1       2.531   6.693  -1.724  0.00  0.00    +0.005 A 
ATOM     31  C   UNL     1       3.090   7.917  -1.351  0.00  0.00    +0.010 A 
ATOM     32  C   UNL     1       3.890   8.592  -2.229  0.00  0.00    +0.001 A 
ATOM     33  C   UNL     1       4.157   8.069  -3.487  0.00  0.00    +0.002 A 
ATOM     34  C   UNL     1       3.620   6.859  -3.873  0.00  0.00    +0.026 A 
ENDBRANCH  24  25
BRANCH  24  36
ATOM     35  N   UNL     1       2.554   4.046   1.205  0.00  0.00    -0.308 N 
ATOM     36  C   UNL     1       1.311   4.551   1.082  0.00  0.00    +0.239 C 
ATOM     37  O   UNL     1       0.367   3.965   1.569  0.00  0.00    -0.273 OA
ATOM     38  H   UNL     1       3.309   4.515   0.815  0.00  0.00    +0.149 HD
BRANCH  35  39
ATOM     39  C   UNL     1       2.767   2.789   1.927  0.00  0.00    +0.029 C 
ATOM     40  C   UNL     1       2.286   2.944   3.372  0.00  0.00    +0.031 C 
ATOM     41  C   UNL     1       1.979   1.669   1.245  0.00  0.00    +0.031 C 
BRANCH  39  43
ATOM     42  C   UNL     1       4.478   1.130   2.675  0.00  0.00    +0.006 C 
ATOM     43  C   UNL     1       4.257   2.442   1.921  0.00  0.00    +0.022 C 
ENDBRANCH  39  43
ENDBRANCH  35  39
ENDBRANCH  24  36
ENDBRANCH   1  24
TORSDOF 9
