REMARK  Name = ZINC00689012
REMARK  11 active torsions:
REMARK  status: ('A' for Active; 'I' for Inactive)
REMARK    1  A    between atoms: C_1  and  C_2
REMARK    2  A    between atoms: C_2  and  O_3
REMARK    3  A    between atoms: O_3  and  C_4
REMARK    4  A    between atoms: C_5  and  O_26
REMARK    5  A    between atoms: C_7  and  C_12
REMARK    6  A    between atoms: C_14  and  C_21
REMARK    7  A    between atoms: C_15  and  C_20
REMARK    8  A    between atoms: C_21  and  O_23
REMARK    9  A    between atoms: O_23  and  C_24
REMARK   10  A    between atoms: C_24  and  C_25
REMARK   11  A    between atoms: O_26  and  C_27
REMARK                            x       y       z     vdW  Elec       q    Type
REMARK                         _______ _______ _______ _____ _____    ______ ____
ROOT
ATOM      1  C   UNL     1       1.267  -2.134  -0.119  0.00  0.00    +0.142 C 
ATOM      2  C   UNL     1       0.903  -2.672  -1.488  0.00  0.00    +0.078 C 
ATOM      3  C   UNL     1       1.767  -3.526  -2.078  0.00  0.00    +0.019 C 
ATOM      4  N   UNL     1       2.929  -3.891  -1.461  0.00  0.00    -0.300 N 
ATOM      5  C   UNL     1       3.300  -3.447  -0.254  0.00  0.00    +0.135 C 
ATOM      6  S   UNL     1       4.785  -3.986   0.406  0.00  0.00    -0.019 S 
ATOM      7  N   UNL     1       2.543  -2.589   0.459  0.00  0.00    -0.315 N 
ATOM      8  C   UNL     1       1.444  -4.085  -3.439  0.00  0.00    +0.061 C 
ATOM      9  H   UNL     1       3.518  -4.506  -1.923  0.00  0.00    +0.154 HD
ATOM     10  H   UNL     1       2.832  -2.280   1.331  0.00  0.00    +0.149 HD
ENDROOT
BRANCH   1  14
ATOM     11  C   UNL     1       1.377   2.135  -0.366  0.00  0.00    +0.177 A 
ATOM     12  C   UNL     1       2.534   1.394  -0.588  0.00  0.00    +0.163 A 
ATOM     13  C   UNL     1       2.495   0.012  -0.507  0.00  0.00    +0.056 A 
ATOM     14  C   UNL     1       1.307  -0.630  -0.206  0.00  0.00    -0.004 A 
ATOM     15  C   UNL     1       0.157   0.105   0.013  0.00  0.00    +0.041 A 
ATOM     16  C   UNL     1       0.190   1.487  -0.066  0.00  0.00    +0.077 A 
ATOM     17 BR   UNL     1      -1.387   2.489   0.227  0.00  0.00    -0.045 Br
ATOM     18 BR   UNL     1      -1.464  -0.778   0.422  0.00  0.00    -0.049 Br
BRANCH  12  19
ATOM     19  O   UNL     1       3.702   2.026  -0.883  0.00  0.00    -0.491 OA
ATOM     20  C   UNL     1       4.849   1.202  -1.098  0.00  0.00    +0.277 C 
ENDBRANCH  12  19
BRANCH  11  21
ATOM     21  O   UNL     1       1.411   3.493  -0.446  0.00  0.00    -0.487 OA
BRANCH  21  23
ATOM     22  C   UNL     1       1.700   5.709   0.474  0.00  0.00    +0.048 C 
ATOM     23  C   UNL     1       1.706   4.205   0.757  0.00  0.00    +0.226 C 
ENDBRANCH  21  23
ENDBRANCH  11  21
ENDBRANCH   1  14
BRANCH   2  24
ATOM     24  C   UNL     1      -0.301  -2.293  -2.125  0.00  0.00    +0.339 C 
ATOM     25  O   UNL     1      -0.371  -1.229  -2.711  0.00  0.00    -0.245 OA
BRANCH  24  26
ATOM     26  O   UNL     1      -1.373  -3.113  -2.084  0.00  0.00    -0.462 OA
BRANCH  26  27
ATOM     27  C   UNL     1      -2.581  -2.631  -2.678  0.00  0.00    +0.229 C 
ATOM     28  C   UNL     1      -3.708  -3.635  -2.427  0.00  0.00    +0.048 C 
ENDBRANCH  26  27
ENDBRANCH  24  26
ENDBRANCH   2  24
TORSDOF 7
