REMARK  Name = ZINC40986906
REMARK  10 active torsions:
REMARK  status: ('A' for Active; 'I' for Inactive)
REMARK    1  A    between atoms: C_1  and  C_2
REMARK    2  A    between atoms: C_2  and  O_3
REMARK    3  A    between atoms: O_3  and  C_4
REMARK    4  A    between atoms: C_4  and  C_5
REMARK    5  A    between atoms: C_5  and  C_6
REMARK    6  A    between atoms: C_6  and  N_7
REMARK    7  A    between atoms: C_8  and  C_10
REMARK    8  A    between atoms: C_14  and  N_15
REMARK    9  A    between atoms: C_16  and  C_18
REMARK   10  A    between atoms: C_20  and  C_23
REMARK                            x       y       z     vdW  Elec       q    Type
REMARK                         _______ _______ _______ _____ _____    ______ ____
ROOT
ATOM      1  C   UNL     1       3.254  -5.868   5.345  0.00  0.00    +0.069 A 
ATOM      2  C   UNL     1       2.554  -6.086   6.610  0.00  0.00    -0.023 A 
ATOM      3  C   UNL     1       3.362  -6.423   7.632  0.00  0.00    -0.004 A 
ATOM      4  S   UNL     1       4.990  -6.449   6.927  0.00  0.00    -0.077 S 
ATOM      5  C   UNL     1       4.626  -6.035   5.343  0.00  0.00    +0.085 A 
ATOM      6  C   UNL     1       2.593  -6.631   8.909  0.00  0.00    +0.043 C 
ATOM      7  C   UNL     1       1.225  -5.960   8.655  0.00  0.00    +0.010 C 
ATOM      8  C   UNL     1       1.115  -6.041   7.118  0.00  0.00    +0.037 C 
ENDROOT
BRANCH   1  10
ATOM      9  N   UNL     1       2.333  -4.192   3.833  0.00  0.00    -0.311 N 
ATOM     10  C   UNL     1       2.529  -5.493   4.127  0.00  0.00    +0.247 C 
ATOM     11  O   UNL     1       2.103  -6.356   3.382  0.00  0.00    -0.270 OA
ATOM     12  H   UNL     1       2.672  -3.504   4.427  0.00  0.00    +0.149 HD
BRANCH   9  13
ATOM     13  C   UNL     1       1.609  -3.818   2.616  0.00  0.00    +0.107 C 
BRANCH  13  14
ATOM     14  C   UNL     1       1.526  -2.293   2.520  0.00  0.00    +0.047 C 
BRANCH  14  15
ATOM     15  C   UNL     1       0.770  -1.902   1.249  0.00  0.00    +0.161 C 
BRANCH  15  16
ATOM     16  O   UNL     1       0.693  -0.477   1.160  0.00  0.00    -0.380 OA
BRANCH  16  18
ATOM     17  C   UNL     1      -0.019   1.526   0.010  0.00  0.00    +0.034 C 
ATOM     18  C   UNL     1       0.002  -0.004   0.002  0.00  0.00    +0.156 C 
ENDBRANCH  16  18
ENDBRANCH  15  16
ENDBRANCH  14  15
ENDBRANCH  13  14
ENDBRANCH   9  13
ENDBRANCH   1  10
BRANCH   5  19
ATOM     19  N   UNL     1       5.500  -5.893   4.277  0.00  0.00    -0.274 N 
ATOM     20  C   UNL     1       6.821  -6.096   4.457  0.00  0.00    +0.270 C 
ATOM     21  O   UNL     1       7.244  -6.405   5.553  0.00  0.00    -0.268 OA
ATOM     22  H   UNL     1       5.162  -5.646   3.402  0.00  0.00    +0.156 HD
BRANCH  20  23
ATOM     23  C   UNL     1       7.756  -5.944   3.316  0.00  0.00    +0.169 A 
ATOM     24  C   UNL     1       9.155  -6.131   3.359  0.00  0.00    +0.086 A 
ATOM     25  C   UNL     1       9.646  -5.898   2.113  0.00  0.00    +0.168 A 
ATOM     26  O   UNL     1       8.612  -5.577   1.313  0.00  0.00    -0.354 OA
ATOM     27  N   UNL     1       7.428  -5.616   2.088  0.00  0.00    -0.073 NA
BRANCH  25  28
ATOM     28  C   UNL     1      11.065  -5.981   1.709  0.00  0.00    +0.023 A 
ATOM     29  C   UNL     1      12.040  -6.332   2.644  0.00  0.00    +0.014 A 
ATOM     30  C   UNL     1      13.364  -6.409   2.263  0.00  0.00    +0.042 A 
ATOM     31  C   UNL     1      13.727  -6.138   0.953  0.00  0.00    +0.158 A 
ATOM     32  C   UNL     1      12.763  -5.789   0.019  0.00  0.00    +0.159 A 
ATOM     33  C   UNL     1      11.434  -5.715   0.389  0.00  0.00    +0.053 A 
ATOM     34  F   UNL     1      13.123  -5.526  -1.257  0.00  0.00    -0.202 F 
ATOM     35  F   UNL     1      15.025  -6.214   0.585  0.00  0.00    -0.202 F 
ENDBRANCH  25  28
ENDBRANCH  20  23
ENDBRANCH   5  19
TORSDOF 9
