REMARK  Name = ZINC25522618
REMARK  7 active torsions:
REMARK  status: ('A' for Active; 'I' for Inactive)
REMARK    1  A    between atoms: C_1  and  C_2
REMARK    2  A    between atoms: C_5  and  C_7
REMARK    3  A    between atoms: C_8  and  C_9
REMARK    4  A    between atoms: C_11  and  S_14
REMARK    5  A    between atoms: S_14  and  C_15
REMARK    6  A    between atoms: C_15  and  C_16
REMARK    7  A    between atoms: C_18  and  C_21
REMARK                            x       y       z     vdW  Elec       q    Type
REMARK                         _______ _______ _______ _____ _____    ______ ____
ROOT
ATOM      1  C   UNL     1       2.049   0.588  -0.014  0.00  0.00    +0.150 A 
ATOM      2  N   UNL     1       1.283   1.736  -0.001  0.00  0.00    -0.202 NA
ATOM      3  C   UNL     1      -0.016   1.311   0.009  0.00  0.00    +0.209 A 
ATOM      4  N   UNL     1       0.002  -0.004   0.002  0.00  0.00    -0.145 NA
ATOM      5  N   UNL     1       1.214  -0.431  -0.012  0.00  0.00    -0.258 N 
ATOM      6  H   UNL     1       1.602  -1.460  -0.021  0.00  0.00    +0.191 HD
ENDROOT
BRANCH   1   8
ATOM      7  C   UNL     1       4.129  -0.685  -0.043  0.00  0.00    +0.050 C 
ATOM      8  C   UNL     1       3.511   0.517  -0.030  0.00  0.00    +0.051 C 
BRANCH   7  13
ATOM      9  C   UNL     1       8.937   0.712  -0.084  0.00  0.00    +0.086 C 
ATOM     10  C   UNL     1       7.702  -0.152  -0.076  0.00  0.00    +0.103 A 
ATOM     11  C   UNL     1       7.687  -1.501  -0.083  0.00  0.00    +0.045 A 
ATOM     12  C   UNL     1       6.338  -1.901  -0.072  0.00  0.00    +0.049 A 
ATOM     13  C   UNL     1       5.590  -0.757  -0.058  0.00  0.00    +0.128 A 
ATOM     14  O   UNL     1       6.435   0.294  -0.067  0.00  0.00    -0.461 OA
ENDBRANCH   7  13
ENDBRANCH   1   8
BRANCH   3  15
ATOM     15  S   UNL     1      -1.449   2.336   0.022  0.00  0.00    -0.076 S 
BRANCH  15  16
ATOM     16  C   UNL     1      -2.741   1.068   0.022  0.00  0.00    +0.157 C 
BRANCH  16  17
ATOM     17  C   UNL     1      -4.095   1.731   0.033  0.00  0.00    +0.182 A 
ATOM     18  N   UNL     1      -4.812   2.085  -1.045  0.00  0.00    -0.191 NA
ATOM     19  C   UNL     1      -5.921   2.626  -0.571  0.00  0.00    +0.260 A 
ATOM     20  O   UNL     1      -5.830   2.577   0.767  0.00  0.00    -0.333 OA
ATOM     21  N   UNL     1      -4.781   2.058   1.087  0.00  0.00    -0.060 NA
BRANCH  19  22
ATOM     22  C   UNL     1      -7.042   3.177  -1.360  0.00  0.00    +0.058 A 
ATOM     23  C   UNL     1      -6.991   3.163  -2.755  0.00  0.00    +0.015 A 
ATOM     24  C   UNL     1      -8.042   3.675  -3.486  0.00  0.00    +0.001 A 
ATOM     25  C   UNL     1      -9.143   4.211  -2.840  0.00  0.00    +0.001 A 
ATOM     26  C   UNL     1      -9.199   4.233  -1.458  0.00  0.00    +0.021 A 
ATOM     27  C   UNL     1      -8.155   3.719  -0.713  0.00  0.00    +0.053 A 
ATOM     28 CL   UNL     1      -8.226   3.748   1.021  0.00  0.00    -0.083 Cl
ENDBRANCH  19  22
ENDBRANCH  16  17
ENDBRANCH  15  16
ENDBRANCH   3  15
TORSDOF 6
