REMARK  Name = ZINC09469941
REMARK  6 active torsions:
REMARK  status: ('A' for Active; 'I' for Inactive)
REMARK    1  A    between atoms: C_1  and  S_2
REMARK    2  A    between atoms: S_2  and  C_5
REMARK    3  A    between atoms: C_8  and  N_14
REMARK    4  A    between atoms: C_9  and  N_11
REMARK    5  A    between atoms: N_17  and  C_20
REMARK    6  A    between atoms: C_21  and  C_25
REMARK                            x       y       z     vdW  Elec       q    Type
REMARK                         _______ _______ _______ _____ _____    ______ ____
ROOT
ATOM      1  N   UNL     1       1.881   6.056  -0.984  0.00  0.00    -0.325 N 
ATOM      2  C   UNL     1       2.647   5.525   0.153  0.00  0.00    +0.124 C 
ATOM      3  C   UNL     1       2.688   3.997   0.068  0.00  0.00    +0.125 C 
ATOM      4  N   UNL     1       1.315   3.472   0.069  0.00  0.00    -0.313 N 
ATOM      5  C   UNL     1       0.550   4.003  -1.067  0.00  0.00    +0.125 C 
ATOM      6  C   UNL     1       0.509   5.531  -0.982  0.00  0.00    +0.124 C 
ENDROOT
BRANCH   4   7
ATOM      7  C   UNL     1       1.313   2.088   0.065  0.00  0.00    +0.117 A 
ATOM      8  C   UNL     1       0.784   1.386   1.162  0.00  0.00    +0.090 A 
ATOM      9  C   UNL     1       0.794  -0.013   1.134  0.00  0.00    +0.023 A 
ATOM     10  C   UNL     1       1.326  -0.645   0.024  0.00  0.00    +0.019 A 
ATOM     11  C   UNL     1       1.829   0.114  -1.017  0.00  0.00    +0.084 A 
ATOM     12  N   UNL     1       1.840   1.474  -1.034  0.00  0.00    -0.349 N 
ATOM     13  H   UNL     1       2.221   2.006  -1.825  0.00  0.00    +0.167 HD
BRANCH   8  14
ATOM     14  C   UNL     1       0.240   2.090   2.284  0.00  0.00    +0.103 C 
ATOM     15  N   UNL     1      -0.192   2.648   3.174  0.00  0.00    -0.191 NA
ENDBRANCH   8  14
ENDBRANCH   4   7
BRANCH   1  19
ATOM     16  C   UNL     1       1.886  10.220  -0.971  0.00  0.00    +0.090 A 
ATOM     17  C   UNL     1       1.276   9.527   0.060  0.00  0.00    +0.029 A 
ATOM     18  C   UNL     1       1.273   8.146   0.059  0.00  0.00    +0.027 A 
ATOM     19  C   UNL     1       1.883   7.452  -0.979  0.00  0.00    +0.060 A 
ATOM     20  C   UNL     1       2.499   8.151  -2.010  0.00  0.00    +0.149 A 
ATOM     21  C   UNL     1       2.493   9.532  -2.005  0.00  0.00    +0.061 A 
BRANCH  16  23
ATOM     22  C   UNL     1       3.398  12.444  -0.074  0.00  0.00    +0.200 C 
ATOM     23  S   UNL     1       1.887  11.982  -0.965  0.00  0.00    -0.006 S 
ATOM     24  O   UNL     1       1.995  12.348  -2.334  0.00  0.00    -0.170 OA
ATOM     25  O   UNL     1       0.741  12.343  -0.207  0.00  0.00    -0.170 OA
ENDBRANCH  16  23
BRANCH  20  26
ATOM     26  N   UNL     1       3.155   7.416  -3.114  0.00  0.00    +0.058 N 
ATOM     27  O   UNL     1       3.777   8.026  -3.966  0.00  0.00    -0.126 OA
ATOM     28  O   UNL     1       3.072   6.202  -3.172  0.00  0.00    -0.126 OA
ENDBRANCH  20  26
ENDBRANCH   1  19
TORSDOF 5
