REMARK  Name = ZINC00911614
REMARK  10 active torsions:
REMARK  status: ('A' for Active; 'I' for Inactive)
REMARK    1  A    between atoms: C_1  and  C_2
REMARK    2  A    between atoms: C_2  and  O_3
REMARK    3  A    between atoms: O_3  and  C_4
REMARK    4  A    between atoms: C_4  and  C_6
REMARK    5  A    between atoms: C_7  and  C_33
REMARK    6  A    between atoms: C_14  and  C_15
REMARK    7  A    between atoms: C_21  and  C_23
REMARK    8  A    between atoms: C_26  and  O_29
REMARK    9  A    between atoms: O_29  and  C_30
REMARK   10  A    between atoms: C_30  and  C_32
REMARK                            x       y       z     vdW  Elec       q    Type
REMARK                         _______ _______ _______ _____ _____    ______ ____
ROOT
ATOM      1  C   UNL     1       3.056   4.259   1.381  0.00  0.00    +0.085 C 
ATOM      2  C   UNL     1       2.960   5.560   1.790  0.00  0.00    +0.053 C 
ATOM      3  N   UNL     1       2.587   6.508   0.940  0.00  0.00    -0.228 NA
ATOM      4  C   UNL     1       2.286   6.307  -0.319  0.00  0.00    +0.178 A 
ATOM      5  N   UNL     1       2.318   5.076  -0.931  0.00  0.00    -0.275 N 
ATOM      6  C   UNL     1       1.990   4.995  -2.227  0.00  0.00    +0.268 A 
ATOM      7  O   UNL     1       2.004   3.926  -2.811  0.00  0.00    -0.266 OA
ATOM      8  C   UNL     1       1.612   6.228  -2.922  0.00  0.00    +0.084 A 
ATOM      9  C   UNL     1       1.240   6.412  -4.222  0.00  0.00    +0.066 C 
ATOM     10  S   UNL     1       1.770   7.426  -1.606  0.00  0.00    -0.046 S 
ATOM     11  C   UNL     1       2.727   3.939  -0.059  0.00  0.00    +0.162 C 
ATOM     12  C   UNL     1       3.279   5.921   3.218  0.00  0.00    +0.066 C 
ENDROOT
BRANCH  11  13
ATOM     13  C   UNL     1       1.612   2.926  -0.065  0.00  0.00    -0.020 A 
ATOM     14  C   UNL     1       1.903   1.580  -0.186  0.00  0.00    +0.009 A 
ATOM     15  C   UNL     1       0.882   0.649  -0.193  0.00  0.00    +0.047 A 
ATOM     16  C   UNL     1      -0.436   1.066  -0.082  0.00  0.00    +0.132 A 
ATOM     17  C   UNL     1      -0.726   2.417   0.044  0.00  0.00    +0.047 A 
ATOM     18  C   UNL     1       0.299   3.344   0.050  0.00  0.00    +0.009 A 
BRANCH  16  19
ATOM     19  O   UNL     1      -1.443   0.153  -0.093  0.00  0.00    -0.426 OA
BRANCH  19  20
ATOM     20  C   UNL     1      -1.654  -0.535   1.040  0.00  0.00    +0.309 C 
ATOM     21  O   UNL     1      -0.909  -0.393   1.981  0.00  0.00    -0.251 OA
ATOM     22  C   UNL     1      -2.821  -1.484   1.140  0.00  0.00    +0.136 C 
ENDBRANCH  19  20
ENDBRANCH  16  19
ENDBRANCH  11  13
BRANCH   9  23
ATOM     23  C   UNL     1       0.913   7.706  -4.687  0.00  0.00    +0.129 A 
ATOM     24  C   UNL     1       0.523   8.035  -5.970  0.00  0.00    +0.049 A 
ATOM     25  C   UNL     1       0.302   9.421  -5.977  0.00  0.00    +0.042 A 
ATOM     26  C   UNL     1       0.559   9.873  -4.729  0.00  0.00    +0.195 A 
ATOM     27  O   UNL     1       0.921   8.840  -3.955  0.00  0.00    -0.463 OA
ENDBRANCH   9  23
BRANCH   1  28
ATOM     28  C   UNL     1       3.450   3.249   2.274  0.00  0.00    +0.339 C 
ATOM     29  O   UNL     1       3.839   3.541   3.391  0.00  0.00    -0.245 OA
BRANCH  28  30
ATOM     30  O   UNL     1       3.399   1.954   1.893  0.00  0.00    -0.462 OA
BRANCH  30  32
ATOM     31  C   UNL     1       3.687  -0.420   2.245  0.00  0.00    +0.048 C 
ATOM     32  C   UNL     1       3.815   0.979   2.852  0.00  0.00    +0.229 C 
ENDBRANCH  30  32
ENDBRANCH  28  30
ENDBRANCH   1  28
TORSDOF 7
