REMARK  Name = ZINC17256096
REMARK  7 active torsions:
REMARK  status: ('A' for Active; 'I' for Inactive)
REMARK    1  A    between atoms: C_1  and  C_2
REMARK    2  A    between atoms: C_2  and  O_4
REMARK    3  A    between atoms: O_4  and  C_5
REMARK    4  A    between atoms: C_9  and  C_35
REMARK    5  A    between atoms: C_14  and  C_34
REMARK    6  A    between atoms: N_26  and  S_30
REMARK    7  A    between atoms: S_30  and  C_33
REMARK                            x       y       z     vdW  Elec       q    Type
REMARK                         _______ _______ _______ _____ _____    ______ ____
ROOT
ATOM      1  C   UNL     1      -1.133  -3.375  -0.985  0.00  0.00    +0.180 C 
ATOM      2  C   UNL     1      -2.504  -3.830  -1.477  0.00  0.00    +0.046 C 
ATOM      3  C   UNL     1      -3.646  -3.139  -0.739  0.00  0.00    +0.015 C 
ATOM      4  C   UNL     1      -3.462  -3.281   0.779  0.00  0.00    -0.008 C 
ATOM      5  C   UNL     1      -4.744  -3.752   1.431  0.00  0.00    +0.003 C 
ATOM      6  C   UNL     1      -4.838  -3.460   2.922  0.00  0.00    +0.007 C 
ATOM      7  C   UNL     1      -6.251  -3.809   3.406  0.00  0.00    +0.028 C 
ATOM      8  C   UNL     1      -6.593  -5.270   3.159  0.00  0.00    +0.040 C 
ATOM      9  C   UNL     1      -6.252  -5.713   1.750  0.00  0.00    +0.022 C 
ATOM     10  C   UNL     1      -4.891  -5.275   1.244  0.00  0.00    +0.002 C 
ATOM     11  C   UNL     1      -3.747  -5.973   1.974  0.00  0.00    +0.031 C 
ATOM     12  C   UNL     1      -2.432  -5.410   1.508  0.00  0.00    -0.027 C 
ATOM     13  C   UNL     1      -2.313  -4.234   0.984  0.00  0.00    -0.064 C 
ATOM     14  C   UNL     1      -0.952  -3.771   0.488  0.00  0.00    +0.075 C 
ATOM     15  C   UNL     1      -6.451  -7.230   1.589  0.00  0.00    +0.046 C 
ATOM     16  C   UNL     1      -7.870  -7.497   2.044  0.00  0.00    +0.009 C 
ATOM     17  C   UNL     1      -8.674  -8.530   1.820  0.00  0.00    +0.124 C 
ATOM     18  N   UNL     1      -9.886  -8.300   2.423  0.00  0.00    -0.131 N 
ATOM     19  N   UNL     1      -9.870  -7.036   3.035  0.00  0.00    -0.230 N 
ATOM     20  C   UNL     1      -8.604  -6.528   2.884  0.00  0.00    +0.115 C 
ATOM     21  N   UNL     1      -8.048  -5.456   3.380  0.00  0.00    -0.366 N 
ATOM     22  C   UNL     1      -5.907  -6.138   4.216  0.00  0.00    +0.034 C 
ATOM     23  C   UNL     1      -3.074  -1.908   1.324  0.00  0.00    +0.016 C 
ATOM     24  H   UNL     1     -10.613  -6.602   3.482  0.00  0.00    +0.173 HD
ATOM     25  H   UNL     1      -8.551  -4.798   3.870  0.00  0.00    +0.161 HD
ENDROOT
BRANCH  18  26
ATOM     26  S   UNL     1     -11.167  -9.350   2.429  0.00  0.00    +0.058 S 
ATOM     27  O   UNL     1     -12.318  -8.518   2.463  0.00  0.00    -0.154 OA
ATOM     28  O   UNL     1     -10.931 -10.216   1.327  0.00  0.00    -0.154 OA
ATOM     29  C   UNL     1     -11.012 -10.265   3.988  0.00  0.00    +0.220 C 
ENDBRANCH  18  26
BRANCH   1  30
ATOM     30  O   UNL     1      -1.008  -1.960  -1.126  0.00  0.00    -0.461 OA
BRANCH  30  32
ATOM     31  C   UNL     1       0.432   0.008  -1.510  0.00  0.00    +0.136 C 
ATOM     32  C   UNL     1       0.223  -1.476  -1.351  0.00  0.00    +0.304 C 
ATOM     33  O   UNL     1       1.164  -2.230  -1.425  0.00  0.00    -0.251 OA
ENDBRANCH  30  32
ENDBRANCH   1  30
TORSDOF 3
