REMARK  Name = ZINC53277379
REMARK  7 active torsions:
REMARK  status: ('A' for Active; 'I' for Inactive)
REMARK    1  A    between atoms: C_1  and  C_2
REMARK    2  A    between atoms: C_2  and  C_3
REMARK    3  A    between atoms: C_2  and  C_4
REMARK    4  A    between atoms: C_5  and  C_17
REMARK    5  A    between atoms: C_6  and  N_16
REMARK    6  A    between atoms: C_10  and  N_15
REMARK    7  A    between atoms: C_11  and  C_13
REMARK                            x       y       z     vdW  Elec       q    Type
REMARK                         _______ _______ _______ _____ _____    ______ ____
ROOT
ATOM      1  C   UNL     1      -1.382   1.500  -1.049  0.00  0.00    -0.013 A 
ATOM      2  C   UNL     1      -1.187   2.284  -2.179  0.00  0.00    +0.095 A 
ATOM      3  C   UNL     1      -2.142   2.272  -3.217  0.00  0.00    +0.135 A 
ATOM      4  N   UNL     1      -3.223   1.516  -3.114  0.00  0.00    -0.224 NA
ATOM      5  C   UNL     1      -3.439   0.761  -2.056  0.00  0.00    +0.114 A 
ATOM      6  C   UNL     1      -2.542   0.695  -0.963  0.00  0.00    +0.034 A 
ATOM      7  C   UNL     1      -2.944  -0.199   0.113  0.00  0.00    +0.059 A 
ATOM      8  C   UNL     1      -4.127  -0.890  -0.020  0.00  0.00    +0.112 A 
ATOM      9  S   UNL     1      -4.749  -0.349  -1.599  0.00  0.00    -0.056 S 
ENDROOT
BRANCH   1  11
ATOM     10  C   UNL     1       1.001   1.898  -0.488  0.00  0.00    +0.012 C 
ATOM     11  C   UNL     1      -0.369   1.503   0.067  0.00  0.00    +0.015 C 
ATOM     12  C   UNL     1      -0.794   2.508   1.139  0.00  0.00    +0.012 C 
ENDBRANCH   1  11
BRANCH   7  13
ATOM     13  N   UNL     1      -2.154  -0.350   1.246  0.00  0.00    -0.356 N 
ATOM     14  H   UNL     1      -1.767   0.429   1.675  0.00  0.00    +0.142 HD
ATOM     15  H   UNL     1      -1.988  -1.235   1.607  0.00  0.00    +0.142 HD
ENDBRANCH   7  13
BRANCH   3  16
ATOM     16  N   UNL     1      -1.949   3.051  -4.342  0.00  0.00    -0.342 N 
ATOM     17  H   UNL     1      -1.157   3.606  -4.418  0.00  0.00    +0.144 HD
ATOM     18  H   UNL     1      -2.606   3.044  -5.056  0.00  0.00    +0.144 HD
ENDBRANCH   3  16
BRANCH   8  19
ATOM     19  C   UNL     1      -4.721  -1.816   0.897  0.00  0.00    +0.108 C 
ATOM     20  N   UNL     1      -5.192  -2.550   1.625  0.00  0.00    -0.190 NA
ENDBRANCH   8  19
BRANCH   2  21
ATOM     21  C   UNL     1      -0.018   3.103  -2.290  0.00  0.00    +0.103 C 
ATOM     22  N   UNL     1       0.910   3.753  -2.378  0.00  0.00    -0.191 NA
ENDBRANCH   2  21
TORSDOF 5
