REMARK  Name = ZINC63598255
REMARK  10 active torsions:
REMARK  status: ('A' for Active; 'I' for Inactive)
REMARK    1  A    between atoms: C_1  and  C_2
REMARK    2  A    between atoms: C_2  and  C_3
REMARK    3  A    between atoms: C_2  and  C_4
REMARK    4  A    between atoms: C_2  and  C_5
REMARK    5  A    between atoms: C_13  and  C_17
REMARK    6  A    between atoms: C_17  and  C_18
REMARK    7  A    between atoms: C_18  and  C_19
REMARK    8  A    between atoms: N_21  and  C_22
REMARK    9  A    between atoms: C_22  and  C_23
REMARK   10  A    between atoms: C_23  and  C_24
REMARK                            x       y       z     vdW  Elec       q    Type
REMARK                         _______ _______ _______ _____ _____    ______ ____
ROOT
ATOM      1  C   UNL     1       0.718  -0.497  -1.257  0.00  0.00    -0.004 C 
ATOM      2  C   UNL     1       0.719  -2.024  -1.267  0.00  0.00    +0.008 C 
ATOM      3  C   UNL     1       1.360  -2.550  -2.559  0.00  0.00    +0.033 C 
ATOM      4  C   UNL     1       2.726  -1.878  -2.673  0.00  0.00    -0.042 C 
ATOM      5  C   UNL     1       3.884  -2.525  -2.819  0.00  0.00    +0.071 C 
ATOM      6  C   UNL     1       5.144  -1.742  -2.723  0.00  0.00    +0.111 C 
ATOM      7  N   UNL     1       6.327  -2.303  -2.809  0.00  0.00    -0.227 NA
ATOM      8  C   UNL     1       6.376  -3.622  -2.993  0.00  0.00    +0.124 C 
ATOM      9  N   UNL     1       5.338  -4.412  -3.094  0.00  0.00    -0.161 NA
ATOM     10  C   UNL     1       4.058  -4.002  -3.020  0.00  0.00    +0.271 C 
ATOM     11  O   UNL     1       3.115  -4.770  -3.109  0.00  0.00    -0.268 OA
ATOM     12  S   UNL     1       4.621  -0.072  -2.499  0.00  0.00    -0.097 S 
ATOM     13  C   UNL     1       2.811  -0.353  -2.589  0.00  0.00    +0.080 C 
ATOM     14  C   UNL     1       2.148   0.051  -1.270  0.00  0.00    +0.023 C 
ENDROOT
BRANCH   1  16
ATOM     15  C   UNL     1      -0.019   1.526   0.010  0.00  0.00    +0.011 C 
ATOM     16  C   UNL     1       0.002  -0.004   0.002  0.00  0.00    -0.035 C 
ATOM     17  C   UNL     1       0.742  -0.511   1.242  0.00  0.00    +0.011 C 
ATOM     18  C   UNL     1      -1.433  -0.534   0.013  0.00  0.00    +0.011 C 
ENDBRANCH   1  16
BRANCH   8  19
ATOM     19  C   UNL     1       7.739  -4.256  -3.095  0.00  0.00    +0.083 C 
BRANCH  19  20
ATOM     20  C   UNL     1       7.586  -5.764  -3.303  0.00  0.00    +0.103 C 
BRANCH  20  21
ATOM     21  C   UNL     1       8.949  -6.399  -3.404  0.00  0.00    +0.213 C 
ATOM     22  O   UNL     1       9.945  -5.712  -3.318  0.00  0.00    -0.276 OA
ATOM     23  N   UNL     1       9.061  -7.729  -3.591  0.00  0.00    -0.315 N 
ATOM     24  H   UNL     1       8.265  -8.278  -3.659  0.00  0.00    +0.149 HD
BRANCH  23  25
ATOM     25  C   UNL     1      10.386  -8.345  -3.689  0.00  0.00    +0.108 C 
BRANCH  25  26
ATOM     26  C   UNL     1      10.233  -9.853  -3.897  0.00  0.00    +0.052 C 
BRANCH  26  27
ATOM     27  C   UNL     1      11.597 -10.487  -3.999  0.00  0.00    -0.040 C 
ATOM     28  C   UNL     1      12.300 -11.067  -2.999  0.00  0.00    -0.001 A 
ATOM     29  C   UNL     1      12.018 -11.272  -1.574  0.00  0.00    +0.010 A 
ATOM     30  C   UNL     1      12.938 -11.900  -0.807  0.00  0.00    +0.001 A 
ATOM     31  C   UNL     1      14.151 -12.359  -1.338  0.00  0.00    +0.002 A 
ATOM     32  C   UNL     1      14.482 -12.207  -2.638  0.00  0.00    +0.026 A 
ATOM     33  C   UNL     1      13.588 -11.561  -3.536  0.00  0.00    +0.043 A 
ATOM     34  N   UNL     1      13.678 -11.297  -4.817  0.00  0.00    -0.380 N 
ATOM     35  C   UNL     1      12.452 -10.610  -5.240  0.00  0.00    +0.144 C 
ATOM     36  H   UNL     1      14.427 -11.522  -5.390  0.00  0.00    +0.160 HD
ENDBRANCH  26  27
ENDBRANCH  25  26
ENDBRANCH  23  25
ENDBRANCH  20  21
ENDBRANCH  19  20
ENDBRANCH   8  19
TORSDOF 7
