REMARK  Name = ZINC24175120
REMARK  8 active torsions:
REMARK  status: ('A' for Active; 'I' for Inactive)
REMARK    1  A    between atoms: C_1  and  C_2
REMARK    2  A    between atoms: N_5  and  S_11
REMARK    3  A    between atoms: C_7  and  C_10
REMARK    4  A    between atoms: S_11  and  C_14
REMARK    5  A    between atoms: C_18  and  C_20
REMARK    6  A    between atoms: C_20  and  O_22
REMARK    7  A    between atoms: O_22  and  C_23
REMARK    8  A    between atoms: C_23  and  C_24
REMARK                            x       y       z     vdW  Elec       q    Type
REMARK                         _______ _______ _______ _____ _____    ______ ____
ROOT
ATOM      1  C   UNL     1      -7.569   7.616   4.083  0.00  0.00    +0.106 A 
ATOM      2  C   UNL     1      -6.596   7.577   5.067  0.00  0.00    +0.028 A 
ATOM      3  C   UNL     1      -5.454   6.816   4.890  0.00  0.00    +0.003 A 
ATOM      4  C   UNL     1      -5.282   6.084   3.733  0.00  0.00    +0.015 A 
ATOM      5  C   UNL     1      -6.257   6.123   2.735  0.00  0.00    +0.061 A 
ATOM      6  C   UNL     1      -7.406   6.894   2.920  0.00  0.00    +0.043 A 
ENDROOT
BRANCH   1   7
ATOM      7  S   UNL     1      -9.018   8.589   4.319  0.00  0.00    +0.061 S 
ATOM      8  O   UNL     1      -8.680   9.601   5.258  0.00  0.00    -0.153 OA
ATOM      9  O   UNL     1      -9.521   8.889   3.024  0.00  0.00    -0.153 OA
BRANCH   7  13
ATOM     10  C   UNL     1      -8.865   5.447   6.609  0.00  0.00    +0.039 C 
ATOM     11  C   UNL     1     -10.232   6.060   6.921  0.00  0.00    +0.131 C 
ATOM     12  C   UNL     1     -10.233   7.540   6.519  0.00  0.00    +0.140 C 
ATOM     13  N   UNL     1     -10.144   7.621   5.052  0.00  0.00    -0.172 NA
ATOM     14  C   UNL     1     -11.089   6.822   4.256  0.00  0.00    +0.140 C 
ATOM     15  C   UNL     1     -11.043   5.374   4.769  0.00  0.00    +0.131 C 
ATOM     16  O   UNL     1     -11.244   5.371   6.184  0.00  0.00    -0.371 OA
ATOM     17  C   UNL     1     -12.148   4.559   4.094  0.00  0.00    +0.039 C 
ENDBRANCH   7  13
ENDBRANCH   1   7
BRANCH   5  18
ATOM     18  C   UNL     1      -6.076   5.346   1.491  0.00  0.00    +0.340 C 
ATOM     19  O   UNL     1      -6.929   5.378   0.626  0.00  0.00    -0.245 OA
BRANCH  18  20
ATOM     20  O   UNL     1      -4.966   4.603   1.316  0.00  0.00    -0.455 OA
BRANCH  20  21
ATOM     21  C   UNL     1      -4.856   3.867   0.070  0.00  0.00    +0.288 C 
BRANCH  21  22
ATOM     22  C   UNL     1      -3.559   3.099   0.052  0.00  0.00    +0.086 A 
ATOM     23  C   UNL     1      -3.574   1.718   0.044  0.00  0.00    +0.097 A 
ATOM     24  C   UNL     1      -2.357   1.028   0.029  0.00  0.00    +0.259 A 
ATOM     25  O   UNL     1      -2.336  -0.193   0.022  0.00  0.00    -0.267 OA
ATOM     26  N   UNL     1      -1.206   1.733   0.017  0.00  0.00    -0.267 N 
ATOM     27  C   UNL     1      -0.013   1.076   0.008  0.00  0.00    +0.116 A 
ATOM     28  C   UNL     1       1.154   1.761   0.001  0.00  0.00    +0.058 A 
ATOM     29  C   UNL     1       1.147   3.164   0.009  0.00  0.00    +0.025 A 
ATOM     30  C   UNL     1      -0.041   3.830   0.024  0.00  0.00    +0.048 A 
ATOM     31  C   UNL     1      -1.244   3.099   0.031  0.00  0.00    +0.141 A 
ATOM     32  N   UNL     1      -2.406   3.750   0.045  0.00  0.00    -0.231 NA
ATOM     33 CL   UNL     1       2.663   0.902  -0.018  0.00  0.00    -0.082 Cl
ENDBRANCH  21  22
ENDBRANCH  20  21
ENDBRANCH  18  20
ENDBRANCH   5  18
TORSDOF 6
