REMARK  Name = ZINC19216041
REMARK  5 active torsions:
REMARK  status: ('A' for Active; 'I' for Inactive)
REMARK    1  A    between atoms: C_1  and  C_2
REMARK    2  A    between atoms: C_5  and  C_8
REMARK    3  A    between atoms: C_8  and  O_30
REMARK    4  A    between atoms: N_16  and  C_18
REMARK    5  A    between atoms: C_18  and  C_19
REMARK                            x       y       z     vdW  Elec       q    Type
REMARK                         _______ _______ _______ _____ _____    ______ ____
ROOT
ATOM      1  C   UNL     1       1.001  -0.306   0.872  0.00  0.00    +0.109 C 
ATOM      2  C   UNL     1      -0.264   0.086   0.081  0.00  0.00    +0.041 C 
ATOM      3  C   UNL     1      -0.279   1.633   0.134  0.00  0.00    +0.005 C 
ATOM      4  C   UNL     1       1.217   2.005   0.006  0.00  0.00    -0.023 C 
ATOM      5  C   UNL     1       1.957   0.893   0.800  0.00  0.00    +0.011 C 
ATOM      6  C   UNL     1       2.115   1.502   2.213  0.00  0.00    -0.072 C 
ATOM      7  N   UNL     1       2.352   2.949   1.935  0.00  0.00    +0.383 N 
ATOM      8  C   UNL     1       1.471   3.299   0.801  0.00  0.00    -0.075 C 
ATOM      9  H   UNL     1       3.406   3.152   1.697  0.00  0.00    -0.081 HD
ENDROOT
BRANCH   1  14
ATOM     10  C   UNL     1       3.531  -4.861  -1.520  0.00  0.00    +0.045 C 
ATOM     11  C   UNL     1       2.834  -3.685  -0.885  0.00  0.00    -0.032 A 
ATOM     12  C   UNL     1       1.544  -3.815  -0.393  0.00  0.00    +0.007 A 
ATOM     13  C   UNL     1       0.945  -2.708   0.188  0.00  0.00    +0.026 A 
ATOM     14  C   UNL     1       1.645  -1.518   0.248  0.00  0.00    +0.073 A 
ATOM     15  N   UNL     1       2.870  -1.431  -0.230  0.00  0.00    -0.257 NA
ATOM     16  C   UNL     1       3.473  -2.464  -0.784  0.00  0.00    +0.114 A 
ENDBRANCH   1  14
BRANCH   1  17
ATOM     17  O   UNL     1       0.660  -0.580   2.233  0.00  0.00    -0.382 OA
ATOM     18  H   UNL     1       0.179   0.196   2.846  0.00  0.00    +0.211 HD
ENDBRANCH   1  17
BRANCH   7  19
ATOM     19  C   UNL     1       2.045   3.771   3.113  0.00  0.00    -0.039 C 
BRANCH  19  20
ATOM     20  C   UNL     1       2.599   5.158   2.916  0.00  0.00    -0.020 A 
ATOM     21  C   UNL     1       1.767   6.202   2.622  0.00  0.00    +0.114 A 
ATOM     22  N   UNL     1       2.229   7.429   2.444  0.00  0.00    -0.262 NA
ATOM     23  C   UNL     1       3.509   7.720   2.538  0.00  0.00    +0.123 A 
ATOM     24  C   UNL     1       4.433   6.717   2.836  0.00  0.00    +0.056 A 
ATOM     25  C   UNL     1       3.967   5.399   3.035  0.00  0.00    +0.071 A 
ATOM     26  N   UNL     1       5.062   4.629   3.303  0.00  0.00    -0.275 N 
ATOM     27  H   UNL     1       4.944   3.551   3.489  0.00  0.00    +0.189 HD
ATOM     28  N   UNL     1       6.205   5.436   3.284  0.00  0.00    -0.161 NA
ATOM     29  C   UNL     1       5.880   6.669   3.013  0.00  0.00    +0.160 A 
ATOM     30 CL   UNL     1       6.972   8.012   2.887  0.00  0.00    -0.059 Cl
ENDBRANCH  19  20
ENDBRANCH   7  19
TORSDOF 4
