REMARK  Name = ZINC36013707
REMARK  12 active torsions:
REMARK  status: ('A' for Active; 'I' for Inactive)
REMARK    1  A    between atoms: C_1  and  N_2
REMARK    2  A    between atoms: N_2  and  C_3
REMARK    3  A    between atoms: N_2  and  C_4
REMARK    4  A    between atoms: C_4  and  C_5
REMARK    5  A    between atoms: C_5  and  N_6
REMARK    6  A    between atoms: C_7  and  C_9
REMARK    7  A    between atoms: C_9  and  C_10
REMARK    8  A    between atoms: C_10  and  N_11
REMARK    9  A    between atoms: N_11  and  C_12
REMARK   10  A    between atoms: C_12  and  C_13
REMARK   11  A    between atoms: C_19  and  C_21
REMARK   12  A    between atoms: C_23  and  C_26
REMARK                            x       y       z     vdW  Elec       q    Type
REMARK                         _______ _______ _______ _____ _____    ______ ____
ROOT
ATOM      1  N   UNL     1      -5.816  -6.440  -0.266  0.00  0.00    -0.293 N 
ATOM      2  C   UNL     1      -6.133  -6.876   0.970  0.00  0.00    +0.268 C 
ATOM      3  O   UNL     1      -5.402  -6.625   1.908  0.00  0.00    -0.268 OA
ENDROOT
BRANCH   2   4
ATOM      4  C   UNL     1      -7.372  -7.661   1.184  0.00  0.00    +0.168 A 
ATOM      5  C   UNL     1      -7.882  -8.083   2.431  0.00  0.00    +0.086 A 
ATOM      6  C   UNL     1      -9.030  -8.774   2.201  0.00  0.00    +0.169 A 
ATOM      7  O   UNL     1      -9.244  -8.794   0.873  0.00  0.00    -0.354 OA
ATOM      8  N   UNL     1      -8.191  -8.082   0.249  0.00  0.00    -0.073 NA
BRANCH   6   9
ATOM      9  C   UNL     1      -9.892  -9.395   3.229  0.00  0.00    +0.038 A 
ATOM     10  C   UNL     1      -9.333 -10.218   4.209  0.00  0.00    +0.014 A 
ATOM     11  C   UNL     1     -10.142 -10.793   5.166  0.00  0.00    +0.021 A 
ATOM     12  C   UNL     1     -11.507 -10.557   5.157  0.00  0.00    +0.042 A 
ATOM     13  C   UNL     1     -12.068  -9.743   4.189  0.00  0.00    +0.040 A 
ATOM     14  C   UNL     1     -11.268  -9.155   3.229  0.00  0.00    +0.053 A 
ATOM     15 CL   UNL     1     -11.972  -8.128   2.019  0.00  0.00    -0.083 Cl
ATOM     16 CL   UNL     1     -12.518 -11.286   6.365  0.00  0.00    -0.083 Cl
ENDBRANCH   6   9
ENDBRANCH   2   4
BRANCH   1  17
ATOM     17  C   UNL     1      -4.538  -5.764  -0.499  0.00  0.00    +0.117 C 
BRANCH  17  18
ATOM     18  C   UNL     1      -4.712  -4.258  -0.291  0.00  0.00    +0.114 C 
BRANCH  18  20
ATOM     19  N   UNL     1      -3.309  -2.224  -0.404  0.00  0.00    -0.317 N 
ATOM     20  C   UNL     1      -3.397  -3.562  -0.531  0.00  0.00    +0.214 C 
ATOM     21  O   UNL     1      -2.417  -4.208  -0.838  0.00  0.00    -0.276 OA
ATOM     22  H   UNL     1      -4.093  -1.708  -0.159  0.00  0.00    +0.149 HD
BRANCH  19  23
ATOM     23  C   UNL     1      -2.031  -1.547  -0.638  0.00  0.00    +0.085 C 
BRANCH  23  24
ATOM     24  C   UNL     1      -2.205  -0.042  -0.429  0.00  0.00    -0.061 C 
BRANCH  24  26
ATOM     25  C   UNL     1      -1.116   2.090  -0.581  0.00  0.00    -0.097 C 
ATOM     26  N   UNL     1      -0.923   0.636  -0.663  0.00  0.00    +0.377 N 
ATOM     27  C   UNL     1       0.048   0.213   0.355  0.00  0.00    -0.097 C 
ATOM     28  H   UNL     1      -0.577   0.394  -1.580  0.00  0.00    -0.083 HD
ENDBRANCH  24  26
ENDBRANCH  23  24
ENDBRANCH  19  23
ENDBRANCH  18  20
ENDBRANCH  17  18
ENDBRANCH   1  17
BRANCH   1  29
ATOM     29  C   UNL     1      -6.751  -6.643  -1.376  0.00  0.00    +0.139 C 
BRANCH  29  30
ATOM     30  C   UNL     1      -6.518  -8.023  -1.993  0.00  0.00    +0.136 C 
ATOM     31  C   UNL     1      -7.474  -8.244  -3.192  0.00  0.00    +0.035 C 
ATOM     32  C   UNL     1      -6.680  -9.298  -4.011  0.00  0.00    +0.031 C 
ATOM     33  C   UNL     1      -5.217  -8.881  -3.751  0.00  0.00    +0.160 C 
ATOM     34  O   UNL     1      -5.195  -8.106  -2.545  0.00  0.00    -0.375 OA
ENDBRANCH  29  30
ENDBRANCH   1  29
TORSDOF 10
