REMARK  Name = ZINC36822335
REMARK  5 active torsions:
REMARK  status: ('A' for Active; 'I' for Inactive)
REMARK    1  A    between atoms: C_1  and  C_2
REMARK    2  A    between atoms: C_2  and  C_4
REMARK    3  A    between atoms: C_2  and  N_12
REMARK    4  A    between atoms: C_13  and  C_15
REMARK    5  A    between atoms: C_15  and  N_16
REMARK                            x       y       z     vdW  Elec       q    Type
REMARK                         _______ _______ _______ _____ _____    ______ ____
ROOT
ATOM      1  C   UNL     1       2.783  -1.099   2.395  0.00  0.00    +0.213 C 
ENDROOT
BRANCH   1   2
ATOM      2  N   UNL     1       4.223  -1.127   2.126  0.00  0.00    -0.215 N 
ATOM      3  C   UNL     1       4.875  -2.186   1.609  0.00  0.00    +0.247 C 
ATOM      4  O   UNL     1       4.398  -3.255   1.292  0.00  0.00    -0.273 OA
ATOM      5  C   UNL     1       6.331  -1.765   1.504  0.00  0.00    +0.113 C 
ATOM      6  C   UNL     1       6.696  -1.696   0.003  0.00  0.00    +0.035 C 
ATOM      7  C   UNL     1       7.864  -0.766  -0.170  0.00  0.00    +0.003 C 
ATOM      8  C   UNL     1       9.217  -1.504  -0.170  0.00  0.00    +0.000 C 
ATOM      9  C   UNL     1       9.295  -2.607   0.903  0.00  0.00    +0.000 C 
ATOM     10  C   UNL     1       8.689  -2.175   2.211  0.00  0.00    +0.003 C 
ATOM     11  C   UNL     1       7.223  -2.646   2.247  0.00  0.00    +0.035 C 
ATOM     12  N   UNL     1       6.323  -0.385   2.031  0.00  0.00    -0.285 N 
ATOM     13  C   UNL     1       5.050  -0.103   2.359  0.00  0.00    +0.310 C 
ATOM     14  O   UNL     1       4.692   0.963   2.820  0.00  0.00    -0.252 OA
ATOM     15  H   UNL     1       7.088   0.205   2.120  0.00  0.00    +0.151 HD
ENDBRANCH   1   2
BRANCH   1  17
ATOM     16  N   UNL     1       0.711  -0.489   1.189  0.00  0.00    -0.307 N 
ATOM     17  C   UNL     1       2.054  -0.600   1.174  0.00  0.00    +0.231 C 
ATOM     18  O   UNL     1       2.676  -0.297   0.177  0.00  0.00    -0.274 OA
ATOM     19  H   UNL     1       0.213  -0.731   1.986  0.00  0.00    +0.149 HD
BRANCH  16  21
ATOM     20  C   UNL     1      -0.019   1.526   0.010  0.00  0.00    +0.033 C 
ATOM     21  C   UNL     1       0.002  -0.004   0.002  0.00  0.00    +0.100 C 
BRANCH  21  22
ATOM     22  C   UNL     1      -1.412  -0.526   0.013  0.00  0.00    -0.026 A 
ATOM     23  C   UNL     1      -2.123  -0.571   1.198  0.00  0.00    +0.007 A 
ATOM     24  C   UNL     1      -3.419  -1.049   1.209  0.00  0.00    +0.022 A 
ATOM     25  C   UNL     1      -4.006  -1.483   0.034  0.00  0.00    +0.059 A 
ATOM     26  C   UNL     1      -3.295  -1.438  -1.153  0.00  0.00    +0.060 A 
ATOM     27  C   UNL     1      -1.999  -0.953  -1.163  0.00  0.00    +0.027 A 
ATOM     28 CL   UNL     1      -4.030  -1.982  -2.628  0.00  0.00    -0.082 Cl
ATOM     29 CL   UNL     1      -5.635  -2.085   0.048  0.00  0.00    -0.082 Cl
ENDBRANCH  21  22
ENDBRANCH  16  21
ENDBRANCH   1  17
TORSDOF 4
