REMARK  Name = ZINC34734859
REMARK  5 active torsions:
REMARK  status: ('A' for Active; 'I' for Inactive)
REMARK    1  A    between atoms: C_1  and  C_2
REMARK    2  A    between atoms: C_2  and  C_31
REMARK    3  A    between atoms: N_11  and  C_28
REMARK    4  A    between atoms: N_17  and  C_20
REMARK    5  A    between atoms: C_20  and  C_21
REMARK                            x       y       z     vdW  Elec       q    Type
REMARK                         _______ _______ _______ _____ _____    ______ ____
ROOT
ATOM      1  C   UNL     1      -0.093   1.563  -0.125  0.00  0.00    +0.041 C 
ATOM      2  C   UNL     1      -0.003   0.041  -0.004  0.00  0.00    +0.068 C 
ATOM      3  C   UNL     1      -1.415  -0.551   0.034  0.00  0.00    +0.071 C 
ATOM      4  C   UNL     1      -2.056  -0.162   1.364  0.00  0.00    -0.018 A 
ATOM      5  C   UNL     1      -1.269   0.256   2.384  0.00  0.00    +0.021 A 
ATOM      6  S   UNL     1      -2.383   0.602   3.719  0.00  0.00    -0.071 S 
ATOM      7  C   UNL     1      -3.897   0.187   2.911  0.00  0.00    +0.118 A 
ATOM      8  C   UNL     1      -3.484  -0.211   1.618  0.00  0.00    +0.076 A 
ATOM      9  C   UNL     1      -4.507  -0.616   0.700  0.00  0.00    +0.264 A 
ATOM     10  O   UNL     1      -4.251  -0.976  -0.436  0.00  0.00    -0.267 OA
ATOM     11  N   UNL     1      -5.775  -0.575   1.173  0.00  0.00    -0.283 N 
ATOM     12  C   UNL     1      -6.082  -0.177   2.437  0.00  0.00    +0.202 A 
ATOM     13  N   UNL     1      -5.163   0.204   3.311  0.00  0.00    -0.208 NA
ATOM     14  N   UNL     1      -7.400  -0.171   2.822  0.00  0.00    -0.298 N 
ATOM     15  C   UNL     1      -8.017  -1.363   3.422  0.00  0.00    +0.123 C 
ATOM     16  C   UNL     1      -8.708  -0.950   4.726  0.00  0.00    +0.103 C 
ATOM     17  N   UNL     1      -9.633   0.159   4.456  0.00  0.00    -0.295 NA
ATOM     18  C   UNL     1      -8.914   1.349   3.981  0.00  0.00    +0.103 C 
ATOM     19  C   UNL     1      -8.230   1.032   2.652  0.00  0.00    +0.123 C 
ATOM     20  C   UNL     1      -6.866  -0.977   0.281  0.00  0.00    +0.155 C 
ATOM     21  C   UNL     1       0.222   0.386   2.356  0.00  0.00    +0.203 C 
ATOM     22  O   UNL     1       0.705  -0.299   1.191  0.00  0.00    -0.368 OA
ATOM     23  C   UNL     1       0.747  -0.520  -1.215  0.00  0.00    +0.041 C 
ENDROOT
BRANCH  17  24
ATOM     24  C   UNL     1     -10.441   0.471   5.643  0.00  0.00    +0.119 C 
BRANCH  24  25
ATOM     25  C   UNL     1     -11.537   1.434   5.265  0.00  0.00    -0.033 A 
ATOM     26  C   UNL     1     -11.315   2.797   5.337  0.00  0.00    +0.006 A 
ATOM     27  C   UNL     1     -12.319   3.680   4.990  0.00  0.00    +0.020 A 
ATOM     28  C   UNL     1     -13.548   3.201   4.572  0.00  0.00    +0.041 A 
ATOM     29  C   UNL     1     -13.770   1.838   4.500  0.00  0.00    +0.020 A 
ATOM     30  C   UNL     1     -12.763   0.955   4.841  0.00  0.00    +0.006 A 
ATOM     31 CL   UNL     1     -14.810   4.311   4.137  0.00  0.00    -0.084 Cl
ENDBRANCH  24  25
ENDBRANCH  17  24
TORSDOF 2
