REMARK  Name = ZINC06445305
REMARK  9 active torsions:
REMARK  status: ('A' for Active; 'I' for Inactive)
REMARK    1  A    between atoms: C_3  and  C_6
REMARK    2  A    between atoms: C_6  and  N_7
REMARK    3  A    between atoms: N_7  and  C_8
REMARK    4  A    between atoms: C_8  and  C_10
REMARK    5  A    between atoms: C_8  and  C_16
REMARK    6  A    between atoms: N_18  and  C_19
REMARK    7  A    between atoms: C_24  and  C_26
REMARK    8  A    between atoms: C_26  and  N_27
REMARK    9  A    between atoms: C_29  and  C_32
REMARK                            x       y       z     vdW  Elec       q    Type
REMARK                         _______ _______ _______ _____ _____    ______ ____
ROOT
ATOM      1  N   UNL     1      -2.224  -2.885   1.165  0.00  0.00    -0.277 N 
ATOM      2  C   UNL     1      -3.066  -3.490   0.304  0.00  0.00    +0.240 C 
ATOM      3  O   UNL     1      -2.719  -3.696  -0.840  0.00  0.00    -0.273 OA
ENDROOT
BRANCH   1   4
ATOM      4  C   UNL     1      -2.643  -2.636   2.547  0.00  0.00    +0.183 C 
BRANCH   4   7
ATOM      5  C   UNL     1      -5.213   0.005   2.647  0.00  0.00    +0.041 A 
ATOM      6  C   UNL     1      -4.838  -1.357   2.587  0.00  0.00    +0.046 A 
ATOM      7  C   UNL     1      -3.493  -1.392   2.597  0.00  0.00    +0.122 A 
ATOM      8  O   UNL     1      -3.036  -0.131   2.666  0.00  0.00    -0.466 OA
ATOM      9  C   UNL     1      -4.074   0.721   2.691  0.00  0.00    +0.195 A 
ENDBRANCH   4   7
ENDBRANCH   1   4
BRANCH   1  10
ATOM     10  C   UNL     1      -0.889  -2.477   0.720  0.00  0.00    +0.193 C 
BRANCH  10  11
ATOM     11  C   UNL     1       0.010  -3.684   0.654  0.00  0.00    -0.015 A 
ATOM     12  C   UNL     1      -0.075  -4.685   1.611  0.00  0.00    +0.025 A 
ATOM     13  C   UNL     1       0.763  -5.780   1.516  0.00  0.00    +0.111 A 
ATOM     14  N   UNL     1       1.641  -5.874   0.536  0.00  0.00    -0.263 NA
ATOM     15  C   UNL     1       1.752  -4.940  -0.388  0.00  0.00    +0.111 A 
ATOM     16  C   UNL     1       0.945  -3.819  -0.361  0.00  0.00    +0.025 A 
ENDBRANCH  10  11
BRANCH  10  17
ATOM     17  C   UNL     1      -0.319  -1.478   1.694  0.00  0.00    +0.238 C 
ATOM     18  O   UNL     1      -1.029  -0.988   2.546  0.00  0.00    -0.273 OA
ATOM     19  N   UNL     1       0.981  -1.130   1.618  0.00  0.00    -0.311 N 
ATOM     20  H   UNL     1       1.549  -1.522   0.936  0.00  0.00    +0.149 HD
BRANCH  19  21
ATOM     21  C   UNL     1       1.536  -0.159   2.565  0.00  0.00    +0.073 C 
ATOM     22  C   UNL     1       1.345   1.274   2.025  0.00  0.00    +0.022 C 
ATOM     23  C   UNL     1       2.637   2.015   2.451  0.00  0.00    +0.002 C 
ATOM     24  C   UNL     1       3.730   0.935   2.258  0.00  0.00    +0.002 C 
ATOM     25  C   UNL     1       3.052  -0.374   2.713  0.00  0.00    +0.022 C 
ENDBRANCH  19  21
ENDBRANCH  10  17
ENDBRANCH   1  10
BRANCH   2  26
ATOM     26  C   UNL     1      -4.439  -3.910   0.762  0.00  0.00    +0.264 C 
BRANCH  26  27
ATOM     27  N   UNL     1      -5.153  -4.540  -0.351  0.00  0.00    -0.154 N 
ATOM     28  N   UNL     1      -5.903  -3.924  -1.200  0.00  0.00    -0.130 NA
ATOM     29  C   UNL     1      -6.368  -4.817  -2.050  0.00  0.00    +0.205 A 
ATOM     30  N   UNL     1      -5.871  -6.003  -1.671  0.00  0.00    -0.108 NA
ATOM     31  N   UNL     1      -5.136  -5.796  -0.632  0.00  0.00    -0.045 NA
BRANCH  29  32
ATOM     32  C   UNL     1      -7.270  -4.560  -3.201  0.00  0.00    +0.023 A 
ATOM     33  C   UNL     1      -7.710  -3.266  -3.468  0.00  0.00    +0.013 A 
ATOM     34  C   UNL     1      -8.545  -3.031  -4.542  0.00  0.00    +0.021 A 
ATOM     35  C   UNL     1      -8.953  -4.081  -5.346  0.00  0.00    +0.041 A 
ATOM     36  C   UNL     1      -8.523  -5.370  -5.082  0.00  0.00    +0.021 A 
ATOM     37  C   UNL     1      -7.684  -5.613  -4.013  0.00  0.00    +0.013 A 
ATOM     38 CL   UNL     1     -10.009  -3.781  -6.691  0.00  0.00    -0.084 Cl
ENDBRANCH  29  32
ENDBRANCH  26  27
ENDBRANCH   2  26
TORSDOF 9
