REMARK  Name = ZINC11871516
REMARK  10 active torsions:
REMARK  status: ('A' for Active; 'I' for Inactive)
REMARK    1  A    between atoms: C_1  and  C_2
REMARK    2  A    between atoms: C_7  and  C_8
REMARK    3  A    between atoms: C_11  and  C_14
REMARK    4  A    between atoms: C_14  and  N_73
REMARK    5  A    between atoms: C_20  and  C_24
REMARK    6  A    between atoms: C_24  and  C_26
REMARK    7  A    between atoms: C_24  and  N_29
REMARK    8  A    between atoms: C_26  and  C_27
REMARK    9  A    between atoms: C_26  and  C_28
REMARK   10  A    between atoms: C_30  and  C_32
REMARK                            x       y       z     vdW  Elec       q    Type
REMARK                         _______ _______ _______ _____ _____    ______ ____
ROOT
ATOM      1  C   UNL     1       2.668   0.664  -0.980  0.00  0.00    -0.071 C 
ATOM      2  C   UNL     1       2.498   1.797   0.037  0.00  0.00    +0.058 C 
ATOM      3  C   UNL     1       1.068   2.271   0.004  0.00  0.00    +0.132 A 
ATOM      4  N   UNL     1       0.636   3.497  -0.021  0.00  0.00    -0.134 NA
ATOM      5  N   UNL     1      -0.652   3.500  -0.011  0.00  0.00    -0.132 NA
ATOM      6  C   UNL     1      -1.096   2.271   0.014  0.00  0.00    +0.154 A 
ATOM      7  N   UNL     1      -0.018   1.459   0.010  0.00  0.00    -0.315 N 
ATOM      8  C   UNL     1       0.002  -0.004   0.002  0.00  0.00    +0.106 C 
ATOM      9  C   UNL     1       1.294  -0.494   0.662  0.00  0.00    -0.056 C 
ATOM     10  N   UNL     1       2.383  -0.635  -0.333  0.00  0.00    +0.384 N 
ATOM     11  H   UNL     1       3.230  -0.958   0.148  0.00  0.00    -0.081 HD
ENDROOT
BRANCH  10  12
ATOM     12  C   UNL     1       2.004  -1.630  -1.353  0.00  0.00    -0.043 C 
BRANCH  12  16
ATOM     13  C   UNL     1       5.405  -2.415  -3.822  0.00  0.00    -0.018 A 
ATOM     14  C   UNL     1       5.197  -3.158  -2.662  0.00  0.00    +0.009 A 
ATOM     15  C   UNL     1       4.098  -2.900  -1.868  0.00  0.00    +0.002 A 
ATOM     16  C   UNL     1       3.203  -1.906  -2.223  0.00  0.00    -0.064 A 
ATOM     17  C   UNL     1       3.402  -1.169  -3.377  0.00  0.00    +0.002 A 
ATOM     18  C   UNL     1       4.500  -1.415  -4.175  0.00  0.00    +0.009 A 
BRANCH  13  25
ATOM     19  C   UNL     1       5.052  -2.805  -6.667  0.00  0.00    +0.044 C 
ATOM     20  C   UNL     1       6.425  -2.876  -6.050  0.00  0.00    -0.043 A 
ATOM     21  C   UNL     1       7.528  -3.123  -6.843  0.00  0.00    +0.004 A 
ATOM     22  C   UNL     1       8.788  -3.194  -6.278  0.00  0.00    +0.000 A 
ATOM     23  C   UNL     1       8.952  -3.013  -4.916  0.00  0.00    +0.001 A 
ATOM     24  C   UNL     1       7.857  -2.760  -4.115  0.00  0.00    +0.009 A 
ATOM     25  C   UNL     1       6.585  -2.687  -4.679  0.00  0.00    -0.015 A 
ENDBRANCH  13  25
ENDBRANCH  12  16
ENDBRANCH  10  12
BRANCH   6  26
ATOM     26  C   UNL     1      -2.540   1.841   0.041  0.00  0.00    +0.144 C 
BRANCH  26  27
ATOM     27  N   UNL     1      -3.301   2.623  -0.936  0.00  0.00    -0.305 N 
ATOM     28  C   UNL     1      -4.438   2.124  -1.461  0.00  0.00    +0.219 C 
ATOM     29  O   UNL     1      -4.830   1.027  -1.125  0.00  0.00    -0.275 OA
ATOM     30  H   UNL     1      -2.987   3.501  -1.205  0.00  0.00    +0.149 HD
BRANCH  28  31
ATOM     31  C   UNL     1      -5.220   2.929  -2.466  0.00  0.00    +0.103 C 
ATOM     32  C   UNL     1      -6.476   2.152  -2.921  0.00  0.00    +0.043 C 
ATOM     33  C   UNL     1      -6.270   1.962  -4.440  0.00  0.00    +0.160 C 
ATOM     34  O   UNL     1      -4.841   2.047  -4.632  0.00  0.00    -0.379 OA
ATOM     35  C   UNL     1      -4.404   3.115  -3.764  0.00  0.00    +0.172 C 
ENDBRANCH  28  31
ENDBRANCH  26  27
BRANCH  26  36
ATOM     36  C   UNL     1      -3.115   2.073   1.440  0.00  0.00    +0.011 C 
ATOM     37  C   UNL     1      -3.134   3.574   1.740  0.00  0.00    +0.009 C 
ATOM     38  C   UNL     1      -4.541   1.523   1.503  0.00  0.00    +0.009 C 
ENDBRANCH  26  36
ENDBRANCH   6  26
TORSDOF 7
