REMARK  Name = ZINC36550966
REMARK  8 active torsions:
REMARK  status: ('A' for Active; 'I' for Inactive)
REMARK    1  A    between atoms: C_1  and  N_2
REMARK    2  A    between atoms: N_2  and  C_3
REMARK    3  A    between atoms: N_2  and  S_10
REMARK    4  A    between atoms: C_3  and  C_4
REMARK    5  A    between atoms: S_10  and  C_13
REMARK    6  A    between atoms: C_26  and  C_29
REMARK    7  A    between atoms: C_32  and  O_36
REMARK    8  A    between atoms: C_34  and  O_35
REMARK                            x       y       z     vdW  Elec       q    Type
REMARK                         _______ _______ _______ _____ _____    ______ ____
ROOT
ATOM      1  C   UNL     1       1.682  -1.059  -1.905  0.00  0.00    +0.106 A 
ATOM      2  C   UNL     1       2.324  -0.109  -2.677  0.00  0.00    +0.030 A 
ATOM      3  C   UNL     1       3.639  -0.293  -3.052  0.00  0.00    +0.025 A 
ATOM      4  C   UNL     1       4.329  -1.432  -2.654  0.00  0.00    +0.031 A 
ATOM      5  C   UNL     1       3.676  -2.384  -1.863  0.00  0.00    -0.018 A 
ATOM      6  C   UNL     1       2.362  -2.192  -1.496  0.00  0.00    +0.034 A 
ATOM      7  C   UNL     1       4.458  -3.562  -1.428  0.00  0.00    +0.049 C 
ATOM      8  C   UNL     1       3.811  -4.864  -1.122  0.00  0.00    -0.023 C 
ATOM      9  C   UNL     1       4.659  -5.840  -1.422  0.00  0.00    -0.030 C 
ATOM     10  C   UNL     1       5.951  -5.253  -1.994  0.00  0.00    +0.033 C 
ATOM     11  C   UNL     1       5.438  -3.936  -2.581  0.00  0.00    +0.029 C 
ATOM     12  C   UNL     1       6.436  -2.794  -2.650  0.00  0.00    +0.108 C 
ATOM     13  N   UNL     1       5.656  -1.607  -3.065  0.00  0.00    -0.336 N 
ATOM     14  H   UNL     1       6.072  -0.939  -3.631  0.00  0.00    +0.147 HD
ENDROOT
BRANCH  12  15
ATOM     15  C   UNL     1       7.059  -2.565  -1.297  0.00  0.00    +0.015 A 
ATOM     16  C   UNL     1       6.532  -1.611  -0.447  0.00  0.00    +0.012 A 
ATOM     17  C   UNL     1       7.101  -1.399   0.794  0.00  0.00    +0.046 A 
ATOM     18  C   UNL     1       8.204  -2.142   1.189  0.00  0.00    +0.120 A 
ATOM     19  C   UNL     1       8.735  -3.099   0.338  0.00  0.00    +0.091 A 
ATOM     20  C   UNL     1       8.158  -3.314  -0.904  0.00  0.00    +0.125 A 
BRANCH  20  21
ATOM     21  O   UNL     1       8.673  -4.256  -1.739  0.00  0.00    -0.506 OA
ATOM     22  H   UNL     1       9.361  -3.922  -2.331  0.00  0.00    +0.292 HD
ENDBRANCH  20  21
BRANCH  18  23
ATOM     23  O   UNL     1       8.764  -1.932   2.410  0.00  0.00    -0.507 OA
ATOM     24  H   UNL     1       8.390  -2.480   3.113  0.00  0.00    +0.292 HD
ENDBRANCH  18  23
ENDBRANCH  12  15
BRANCH   1  25
ATOM     25  S   UNL     1      -0.000  -0.824  -1.437  0.00  0.00    +0.061 S 
ATOM     26  O   UNL     1      -0.531  -2.115  -1.167  0.00  0.00    -0.153 OA
ATOM     27  O   UNL     1      -0.572   0.049  -2.401  0.00  0.00    -0.153 OA
BRANCH  25  29
ATOM     28  C   UNL     1      -0.018   1.461   0.010  0.00  0.00    +0.132 C 
ATOM     29  N   UNL     1       0.002  -0.004   0.002  0.00  0.00    -0.175 NA
BRANCH  29  30
ATOM     30  C   UNL     1       0.024  -0.743   1.267  0.00  0.00    +0.144 C 
BRANCH  30  31
ATOM     31  C   UNL     1      -1.384  -0.909   1.776  0.00  0.00    -0.032 A 
ATOM     32  C   UNL     1      -1.936   0.049   2.606  0.00  0.00    +0.005 A 
ATOM     33  C   UNL     1      -3.228  -0.104   3.074  0.00  0.00    +0.000 A 
ATOM     34  C   UNL     1      -3.969  -1.213   2.711  0.00  0.00    +0.000 A 
ATOM     35  C   UNL     1      -3.417  -2.170   1.880  0.00  0.00    +0.000 A 
ATOM     36  C   UNL     1      -2.126  -2.016   1.409  0.00  0.00    +0.005 A 
ENDBRANCH  30  31
ENDBRANCH  29  30
ENDBRANCH  25  29
ENDBRANCH   1  25
TORSDOF 7
