REMARK  Name = ZINC63187747
REMARK  8 active torsions:
REMARK  status: ('A' for Active; 'I' for Inactive)
REMARK    1  A    between atoms: C_1  and  C_2
REMARK    2  A    between atoms: C_2  and  S_3
REMARK    3  A    between atoms: S_3  and  N_6
REMARK    4  A    between atoms: C_13  and  C_15
REMARK    5  A    between atoms: C_15  and  C_17
REMARK    6  A    between atoms: C_17  and  N_18
REMARK    7  A    between atoms: C_21  and  C_26
REMARK    8  A    between atoms: C_26  and  C_27
REMARK                            x       y       z     vdW  Elec       q    Type
REMARK                         _______ _______ _______ _____ _____    ______ ____
ROOT
ATOM      1  N   UNL     1      -4.984  -6.771  -4.297  0.00  0.00    -0.217 N 
ATOM      2  C   UNL     1      -4.835  -7.468  -5.441  0.00  0.00    +0.244 C 
ATOM      3  O   UNL     1      -4.062  -7.235  -6.346  0.00  0.00    -0.273 OA
ATOM      4  C   UNL     1      -5.836  -8.604  -5.362  0.00  0.00    +0.165 C 
ATOM      5  N   UNL     1      -6.493  -8.396  -4.061  0.00  0.00    -0.287 N 
ATOM      6  C   UNL     1      -5.926  -7.307  -3.512  0.00  0.00    +0.310 C 
ATOM      7  O   UNL     1      -6.236  -6.857  -2.427  0.00  0.00    -0.252 OA
ATOM      8  H   UNL     1      -7.197  -8.941  -3.673  0.00  0.00    +0.151 HD
ENDROOT
BRANCH   1   9
ATOM      9  C   UNL     1      -4.206  -5.579  -3.953  0.00  0.00    +0.197 C 
BRANCH   9  10
ATOM     10  C   UNL     1      -2.957  -5.989  -3.215  0.00  0.00    +0.181 C 
ATOM     11  O   UNL     1      -2.739  -7.163  -2.999  0.00  0.00    -0.290 OA
BRANCH  10  19
ATOM     12  N   UNL     1       0.808  -2.241  -1.384  0.00  0.00    -0.207 N 
ATOM     13  C   UNL     1       1.831  -3.065  -0.735  0.00  0.00    +0.136 C 
ATOM     14  C   UNL     1       1.344  -4.515  -0.898  0.00  0.00    +0.058 C 
ATOM     15  C   UNL     1       0.040  -4.391  -1.653  0.00  0.00    -0.023 A 
ATOM     16  C   UNL     1      -0.204  -3.043  -1.893  0.00  0.00    +0.054 A 
ATOM     17  C   UNL     1      -1.366  -2.669  -2.580  0.00  0.00    +0.026 A 
ATOM     18  C   UNL     1      -2.252  -3.613  -3.007  0.00  0.00    +0.013 A 
ATOM     19  C   UNL     1      -2.006  -4.970  -2.759  0.00  0.00    +0.019 A 
ATOM     20  C   UNL     1      -0.839  -5.345  -2.080  0.00  0.00    +0.017 A 
BRANCH  12  21
ATOM     21  S   UNL     1       0.851  -0.589  -1.490  0.00  0.00    +0.045 S 
ATOM     22  O   UNL     1       0.082  -0.280  -2.644  0.00  0.00    -0.155 OA
ATOM     23  O   UNL     1       2.232  -0.257  -1.430  0.00  0.00    -0.155 OA
BRANCH  21  25
ATOM     24  C   UNL     1      -0.019   1.526   0.010  0.00  0.00    +0.030 C 
ATOM     25  C   UNL     1       0.002  -0.004   0.002  0.00  0.00    +0.185 C 
ENDBRANCH  21  25
ENDBRANCH  12  21
ENDBRANCH  10  19
ENDBRANCH   9  10
ENDBRANCH   1   9
BRANCH   4  26
ATOM     26  C   UNL     1      -6.851  -8.508  -6.503  0.00  0.00    +0.065 C 
BRANCH  26  27
ATOM     27  C   UNL     1      -7.755  -9.713  -6.473  0.00  0.00    -0.039 C 
ATOM     28  C   UNL     1      -8.972  -9.802  -5.889  0.00  0.00    -0.001 A 
ATOM     29  C   UNL     1      -9.784  -8.842  -5.133  0.00  0.00    +0.010 A 
ATOM     30  C   UNL     1     -10.990  -9.232  -4.660  0.00  0.00    +0.001 A 
ATOM     31  C   UNL     1     -11.481 -10.527  -4.872  0.00  0.00    +0.002 A 
ATOM     32  C   UNL     1     -10.792 -11.465  -5.557  0.00  0.00    +0.026 A 
ATOM     33  C   UNL     1      -9.513 -11.164  -6.099  0.00  0.00    +0.043 A 
ATOM     34  N   UNL     1      -8.664 -11.888  -6.788  0.00  0.00    -0.380 N 
ATOM     35  C   UNL     1      -7.490 -11.065  -7.097  0.00  0.00    +0.144 C 
ATOM     36  H   UNL     1      -8.793 -12.813  -7.052  0.00  0.00    +0.160 HD
ENDBRANCH  26  27
ENDBRANCH   4  26
TORSDOF 7
