REMARK  Name = ZINC12860473
REMARK  7 active torsions:
REMARK  status: ('A' for Active; 'I' for Inactive)
REMARK    1  A    between atoms: C_1  and  C_2
REMARK    2  A    between atoms: C_2  and  C_4
REMARK    3  A    between atoms: C_2  and  N_17
REMARK    4  A    between atoms: N_6  and  C_7
REMARK    5  A    between atoms: C_11  and  C_13
REMARK    6  A    between atoms: C_20  and  C_24
REMARK    7  A    between atoms: C_20  and  C_25
REMARK                            x       y       z     vdW  Elec       q    Type
REMARK                         _______ _______ _______ _____ _____    ______ ____
ROOT
ATOM      1  N   UNL     1      -2.640   7.874  -0.243  0.00  0.00    -0.212 N 
ATOM      2  C   UNL     1      -3.141   8.577  -1.278  0.00  0.00    +0.251 C 
ATOM      3  O   UNL     1      -2.553   8.926  -2.280  0.00  0.00    -0.272 OA
ATOM      4  C   UNL     1      -4.593   8.841  -0.931  0.00  0.00    +0.135 C 
ATOM      5  N   UNL     1      -4.757   8.194   0.382  0.00  0.00    -0.281 N 
ATOM      6  C   UNL     1      -3.566   7.655   0.698  0.00  0.00    +0.310 C 
ATOM      7  O   UNL     1      -3.353   7.039   1.724  0.00  0.00    -0.252 OA
ATOM      8  C   UNL     1      -5.519   8.198  -1.966  0.00  0.00    +0.047 C 
ATOM      9  H   UNL     1      -5.567   8.161   0.915  0.00  0.00    +0.152 HD
ENDROOT
BRANCH   4  10
ATOM     10  C   UNL     1      -4.855  10.321  -0.834  0.00  0.00    -0.012 A 
ATOM     11  C   UNL     1      -4.114  11.204  -1.597  0.00  0.00    +0.010 A 
ATOM     12  C   UNL     1      -4.353  12.563  -1.515  0.00  0.00    +0.050 A 
ATOM     13  C   UNL     1      -5.331  13.044  -0.659  0.00  0.00    +0.166 A 
ATOM     14  C   UNL     1      -6.074  12.155   0.114  0.00  0.00    +0.167 A 
ATOM     15  C   UNL     1      -5.832  10.794   0.022  0.00  0.00    +0.055 A 
ATOM     16  O   UNL     1      -6.963  12.868   0.866  0.00  0.00    -0.453 OA
ATOM     17  C   UNL     1      -7.037  14.165   0.246  0.00  0.00    +0.466 C 
ATOM     18  O   UNL     1      -5.754  14.314  -0.391  0.00  0.00    -0.453 OA
ENDBRANCH   4  10
BRANCH   1  20
ATOM     19  C   UNL     1      -0.584   8.007   1.074  0.00  0.00    +0.038 C 
ATOM     20  C   UNL     1      -1.256   7.403  -0.161  0.00  0.00    +0.168 C 
BRANCH  20  21
ATOM     21  C   UNL     1      -1.242   5.900  -0.057  0.00  0.00    +0.238 C 
ATOM     22  O   UNL     1      -2.286   5.283  -0.051  0.00  0.00    -0.273 OA
ATOM     23  N   UNL     1      -0.069   5.242   0.031  0.00  0.00    -0.284 N 
ATOM     24  H   UNL     1       0.761   5.737   0.103  0.00  0.00    +0.155 HD
BRANCH  23  25
ATOM     25  C   UNL     1      -0.050   3.842   0.017  0.00  0.00    +0.034 A 
ATOM     26  C   UNL     1       0.908   3.152   0.749  0.00  0.00    +0.023 A 
ATOM     27  C   UNL     1       0.922   1.772   0.736  0.00  0.00    +0.002 A 
ATOM     28  C   UNL     1      -0.010   1.076  -0.011  0.00  0.00    +0.012 A 
ATOM     29  C   UNL     1      -0.966   1.760  -0.740  0.00  0.00    +0.057 A 
ATOM     30  C   UNL     1      -0.988   3.141  -0.728  0.00  0.00    +0.035 A 
BRANCH  29  31
ATOM     31  C   UNL     1      -1.984   0.998  -1.549  0.00  0.00    +0.417 C 
ATOM     32  F   UNL     1      -1.760  -0.376  -1.405  0.00  0.00    -0.166 F 
ATOM     33  F   UNL     1      -3.269   1.311  -1.095  0.00  0.00    -0.166 F 
ATOM     34  F   UNL     1      -1.866   1.350  -2.898  0.00  0.00    -0.166 F 
ENDBRANCH  29  31
ENDBRANCH  23  25
ENDBRANCH  20  21
ENDBRANCH   1  20
TORSDOF 5
