REMARK  Name = ZINC52340226
REMARK  4 active torsions:
REMARK  status: ('A' for Active; 'I' for Inactive)
REMARK    1  A    between atoms: C_1  and  C_2
REMARK    2  A    between atoms: N_5  and  C_10
REMARK    3  A    between atoms: C_10  and  C_12
REMARK    4  A    between atoms: C_10  and  C_13
REMARK                            x       y       z     vdW  Elec       q    Type
REMARK                         _______ _______ _______ _____ _____    ______ ____
ROOT
ATOM      1  C   UNL     1      -0.019   1.526   0.010  0.00  0.00    +0.013 C 
ATOM      2  C   UNL     1       0.002  -0.004   0.002  0.00  0.00    +0.035 C 
ATOM      3  C   UNL     1      -1.433  -0.541   0.028  0.00  0.00    -0.068 C 
ATOM      4  N   UNL     1      -1.407  -2.002   0.159  0.00  0.00    +0.382 N 
ATOM      5  C   UNL     1      -0.873  -2.384   1.472  0.00  0.00    -0.071 C 
ATOM      6  C   UNL     1       0.606  -1.988   1.556  0.00  0.00    +0.056 C 
ATOM      7  C   UNL     1       0.721  -0.512   1.235  0.00  0.00    +0.133 C 
ATOM      8  O   UNL     1       1.361   0.233   1.937  0.00  0.00    -0.297 OA
ATOM      9  H   UNL     1      -0.824  -2.393  -0.565  0.00  0.00    -0.081 HD
ENDROOT
BRANCH   4  10
ATOM     10  C   UNL     1      -2.771  -2.529   0.018  0.00  0.00    -0.069 C 
ATOM     11  C   UNL     1      -3.324  -2.148  -1.357  0.00  0.00    -0.013 C 
BRANCH  10  12
ATOM     12  C   UNL     1      -2.747  -4.052   0.154  0.00  0.00    -0.025 C 
ATOM     13  C   UNL     1      -1.855  -4.648  -0.937  0.00  0.00    +0.002 C 
ATOM     14  C   UNL     1      -1.831  -6.172  -0.801  0.00  0.00    +0.000 C 
ATOM     15  C   UNL     1      -3.251  -6.720  -0.948  0.00  0.00    +0.000 C 
ATOM     16  C   UNL     1      -4.143  -6.124   0.143  0.00  0.00    +0.000 C 
ATOM     17  C   UNL     1      -4.168  -4.600   0.007  0.00  0.00    +0.002 C 
ENDBRANCH  10  12
ENDBRANCH   4  10
TORSDOF 2
