REMARK  Name = ZINC01191973
REMARK  7 active torsions:
REMARK  status: ('A' for Active; 'I' for Inactive)
REMARK    1  A    between atoms: C_1  and  C_2
REMARK    2  A    between atoms: C_2  and  O_3
REMARK    3  A    between atoms: O_3  and  C_4
REMARK    4  A    between atoms: C_4  and  C_6
REMARK    5  A    between atoms: C_9  and  N_12
REMARK    6  A    between atoms: C_16  and  C_17
REMARK    7  A    between atoms: C_22  and  O_23
REMARK                            x       y       z     vdW  Elec       q    Type
REMARK                         _______ _______ _______ _____ _____    ______ ____
ROOT
ATOM      1  N   UNL     1      -6.742  -4.111  -0.684  0.00  0.00    -0.184 N 
ATOM      2  C   UNL     1      -6.977  -5.377  -0.291  0.00  0.00    +0.272 C 
ATOM      3  O   UNL     1      -6.142  -6.214  -0.005  0.00  0.00    -0.268 OA
ATOM      4  C   UNL     1      -8.442  -5.555  -0.274  0.00  0.00    +0.102 C 
ATOM      5  C   UNL     1      -9.145  -6.691   0.066  0.00  0.00    +0.030 C 
ATOM      6  C   UNL     1      -8.991  -4.253  -0.700  0.00  0.00    +0.266 C 
ATOM      7  O   UNL     1     -10.167  -3.967  -0.821  0.00  0.00    -0.268 OA
ATOM      8  N   UNL     1      -7.941  -3.440  -0.922  0.00  0.00    -0.223 N 
ATOM      9  H   UNL     1      -8.009  -2.516  -1.211  0.00  0.00    +0.174 HD
ENDROOT
BRANCH   5  10
ATOM     10  C   UNL     1     -10.602  -6.641   0.185  0.00  0.00    +0.020 A 
ATOM     11  C   UNL     1     -11.224  -5.542   0.797  0.00  0.00    +0.031 A 
ATOM     12  C   UNL     1     -12.596  -5.503   0.904  0.00  0.00    +0.043 A 
ATOM     13  C   UNL     1     -13.368  -6.545   0.411  0.00  0.00    +0.039 A 
ATOM     14  C   UNL     1     -12.771  -7.635  -0.194  0.00  0.00    +0.061 A 
ATOM     15  C   UNL     1     -11.391  -7.692  -0.317  0.00  0.00    +0.138 A 
ATOM     16 BR   UNL     1     -13.838  -9.047  -0.860  0.00  0.00    -0.046 Br
ATOM     17 CL   UNL     1     -13.364  -4.143   1.661  0.00  0.00    -0.083 Cl
BRANCH  15  18
ATOM     18  O   UNL     1     -10.804  -8.758  -0.916  0.00  0.00    -0.505 OA
ATOM     19  H   UNL     1     -10.584  -9.478  -0.308  0.00  0.00    +0.292 HD
ENDBRANCH  15  18
ENDBRANCH   5  10
BRANCH   1  23
ATOM     20  C   UNL     1      -2.957  -2.427  -1.112  0.00  0.00    +0.059 A 
ATOM     21  C   UNL     1      -4.098  -1.664  -1.378  0.00  0.00    +0.017 A 
ATOM     22  C   UNL     1      -5.347  -2.224  -1.236  0.00  0.00    +0.026 A 
ATOM     23  C   UNL     1      -5.476  -3.548  -0.828  0.00  0.00    +0.056 A 
ATOM     24  C   UNL     1      -4.342  -4.311  -0.561  0.00  0.00    +0.026 A 
ATOM     25  C   UNL     1      -3.090  -3.759  -0.708  0.00  0.00    +0.017 A 
BRANCH  20  26
ATOM     26  C   UNL     1      -1.617  -1.831  -1.264  0.00  0.00    +0.339 C 
ATOM     27  O   UNL     1      -0.626  -2.498  -1.038  0.00  0.00    -0.245 OA
BRANCH  26  28
ATOM     28  O   UNL     1      -1.491  -0.548  -1.655  0.00  0.00    -0.461 OA
BRANCH  28  30
ATOM     29  C   UNL     1      -0.220   1.426  -2.231  0.00  0.00    +0.048 C 
ATOM     30  C   UNL     1      -0.163  -0.036  -1.782  0.00  0.00    +0.229 C 
ENDBRANCH  28  30
ENDBRANCH  26  28
ENDBRANCH  20  26
ENDBRANCH   1  23
TORSDOF 6
