REMARK  Name = ZINC01624261
REMARK  5 active torsions:
REMARK  status: ('A' for Active; 'I' for Inactive)
REMARK    1  A    between atoms: C_4  and  C_7
REMARK    2  A    between atoms: C_7  and  C_9
REMARK    3  A    between atoms: C_7  and  C_17
REMARK    4  A    between atoms: C_9  and  C_11
REMARK    5  A    between atoms: C_17  and  O_29
REMARK                            x       y       z     vdW  Elec       q    Type
REMARK                         _______ _______ _______ _____ _____    ______ ____
ROOT
ATOM      1  C   UNL     1      -0.666  -0.556   1.263  0.00  0.00    +0.135 C 
ENDROOT
BRANCH   1   2
ATOM      2  C   UNL     1      -0.154  -0.351  -0.164  0.00  0.00    +0.184 C 
ATOM      3  C   UNL     1       1.254  -0.881  -0.303  0.00  0.00    +0.035 A 
ATOM      4  C   UNL     1       2.444  -0.553   0.309  0.00  0.00    +0.049 A 
ATOM      5  C   UNL     1       3.606  -1.226  -0.032  0.00  0.00    +0.022 A 
ATOM      6  C   UNL     1       3.564  -2.232  -0.980  0.00  0.00    +0.023 A 
ATOM      7  C   UNL     1       2.372  -2.567  -1.591  0.00  0.00    +0.063 A 
ATOM      8  C   UNL     1       1.200  -1.890  -1.256  0.00  0.00    +0.060 A 
ATOM      9  N   UNL     1      -0.106  -2.041  -1.725  0.00  0.00    -0.281 N 
ATOM     10  C   UNL     1      -0.959  -1.182  -1.141  0.00  0.00    +0.255 C 
ATOM     11  O   UNL     1      -2.149  -1.091  -1.355  0.00  0.00    -0.272 OA
ATOM     12 CL   UNL     1       2.333  -3.832  -2.779  0.00  0.00    -0.082 Cl
ATOM     13 CL   UNL     1       2.489   0.707   1.502  0.00  0.00    -0.083 Cl
ATOM     14  H   UNL     1      -0.368  -2.691  -2.396  0.00  0.00    +0.155 HD
BRANCH   2  15
ATOM     15  O   UNL     1      -0.206   1.032  -0.522  0.00  0.00    -0.374 OA
ATOM     16  H   UNL     1       0.079   1.214  -1.428  0.00  0.00    +0.211 HD
ENDBRANCH   2  15
ENDBRANCH   1   2
BRANCH   1  20
ATOM     17  C   UNL     1      -0.749  -4.732   2.159  0.00  0.00    +0.000 A 
ATOM     18  C   UNL     1       0.028  -3.877   2.918  0.00  0.00    +0.000 A 
ATOM     19  C   UNL     1       0.055  -2.526   2.629  0.00  0.00    +0.004 A 
ATOM     20  C   UNL     1      -0.695  -2.029   1.579  0.00  0.00    -0.033 A 
ATOM     21  C   UNL     1      -1.477  -2.883   0.824  0.00  0.00    +0.004 A 
ATOM     22  C   UNL     1      -1.500  -4.235   1.111  0.00  0.00    +0.000 A 
ENDBRANCH   1  20
BRANCH   1  23
ATOM     23  C   UNL     1      -2.056   0.012   1.385  0.00  0.00    +0.174 C 
ATOM     24  O   UNL     1      -2.715   0.221   0.389  0.00  0.00    -0.291 OA
BRANCH  23  25
ATOM     25  C   UNL     1      -2.614   0.313   2.713  0.00  0.00    +0.018 A 
ATOM     26  C   UNL     1      -1.860   0.068   3.865  0.00  0.00    +0.011 A 
ATOM     27  C   UNL     1      -2.388   0.357   5.105  0.00  0.00    +0.001 A 
ATOM     28  C   UNL     1      -3.666   0.878   5.213  0.00  0.00    +0.000 A 
ATOM     29  C   UNL     1      -4.421   1.119   4.078  0.00  0.00    +0.001 A 
ATOM     30  C   UNL     1      -3.905   0.840   2.830  0.00  0.00    +0.011 A 
ENDBRANCH  23  25
ENDBRANCH   1  23
TORSDOF 5
