REMARK  Name = ZINC32651724
REMARK  6 active torsions:
REMARK  status: ('A' for Active; 'I' for Inactive)
REMARK    1  A    between atoms: C_1  and  C_2
REMARK    2  A    between atoms: C_2  and  N_3
REMARK    3  A    between atoms: C_8  and  C_12
REMARK    4  A    between atoms: N_10  and  C_11
REMARK    5  A    between atoms: C_17  and  C_24
REMARK    6  A    between atoms: C_20  and  C_23
REMARK                            x       y       z     vdW  Elec       q    Type
REMARK                         _______ _______ _______ _____ _____    ______ ____
ROOT
ATOM      1  N   UNL     1       4.123  -0.166   2.238  0.00  0.00    -0.279 N 
ATOM      2  C   UNL     1       4.563  -0.175   3.516  0.00  0.00    +0.281 A 
ATOM      3  O   UNL     1       5.540   0.477   3.843  0.00  0.00    -0.265 OA
ATOM      4  C   UNL     1       3.865  -0.956   4.463  0.00  0.00    +0.152 A 
ATOM      5  C   UNL     1       2.748  -1.688   4.041  0.00  0.00    +0.120 A 
ATOM      6  C   UNL     1       2.251  -2.366   5.170  0.00  0.00    +0.086 A 
ATOM      7  N   UNL     1       3.000  -2.075   6.199  0.00  0.00    -0.174 NA
ATOM      8  N   UNL     1       4.018  -1.198   5.801  0.00  0.00    -0.260 N 
ATOM      9  C   UNL     1       5.061  -0.640   6.665  0.00  0.00    +0.173 C 
ATOM     10  C   UNL     1       1.052  -3.279   5.188  0.00  0.00    +0.070 C 
ATOM     11  N   UNL     1       2.364  -1.624   2.743  0.00  0.00    -0.212 NA
ATOM     12  C   UNL     1       3.028  -0.897   1.878  0.00  0.00    +0.202 A 
ATOM     13  N   UNL     1       2.606  -0.865   0.571  0.00  0.00    -0.296 N 
ATOM     14  C   UNL     1       1.871  -2.090   0.225  0.00  0.00    +0.139 C 
ATOM     15  C   UNL     1       1.472  -2.039  -1.252  0.00  0.00    +0.133 C 
ATOM     16  O   UNL     1       0.701  -0.859  -1.492  0.00  0.00    -0.371 OA
ATOM     17  C   UNL     1       1.387   0.353  -1.167  0.00  0.00    +0.133 C 
ATOM     18  C   UNL     1       1.785   0.326   0.311  0.00  0.00    +0.139 C 
ATOM     19  C   UNL     1       2.643   0.477  -2.032  0.00  0.00    +0.039 C 
ATOM     20  C   UNL     1       0.638  -3.274  -1.600  0.00  0.00    +0.039 C 
ENDROOT
BRANCH   1  22
ATOM     21  C   UNL     1       5.818  -0.252   0.477  0.00  0.00    +0.027 C 
ATOM     22  C   UNL     1       4.826   0.635   1.232  0.00  0.00    +0.125 C 
ENDBRANCH   1  22
TORSDOF 1
