REMARK  Name = ZINC36595174
REMARK  14 active torsions:
REMARK  status: ('A' for Active; 'I' for Inactive)
REMARK    1  A    between atoms: C_1  and  C_2
REMARK    2  A    between atoms: C_5  and  C_7
REMARK    3  A    between atoms: C_7  and  N_8
REMARK    4  A    between atoms: N_8  and  C_9
REMARK    5  A    between atoms: C_9  and  C_11
REMARK    6  A    between atoms: C_9  and  C_20
REMARK    7  A    between atoms: C_11  and  C_13
REMARK    8  A    between atoms: C_11  and  C_14
REMARK    9  A    between atoms: N_22  and  C_23
REMARK   10  A    between atoms: C_23  and  C_24
REMARK   11  A    between atoms: C_23  and  C_25
REMARK   12  A    between atoms: C_23  and  C_26
REMARK   13  A    between atoms: C_27  and  C_29
REMARK   14  A    between atoms: C_29  and  C_30
REMARK                            x       y       z     vdW  Elec       q    Type
REMARK                         _______ _______ _______ _____ _____    ______ ____
ROOT
ATOM      1  N   UNL     1       2.287  -3.662  -1.150  0.00  0.00    -0.282 N 
ATOM      2  C   UNL     1       1.207  -4.424  -1.412  0.00  0.00    +0.221 C 
ATOM      3  O   UNL     1       0.971  -4.771  -2.550  0.00  0.00    -0.275 OA
ENDROOT
BRANCH   1   4
ATOM      4  C   UNL     1       2.572  -3.243   0.225  0.00  0.00    +0.182 C 
BRANCH   4   9
ATOM      5  C   UNL     1       1.052   1.544   0.689  0.00  0.00    +0.086 C 
ATOM      6  C   UNL     1       1.068   0.039   0.771  0.00  0.00    +0.102 A 
ATOM      7  C   UNL     1       0.099  -0.731   1.297  0.00  0.00    +0.045 A 
ATOM      8  C   UNL     1       0.524  -2.072   1.167  0.00  0.00    +0.046 A 
ATOM      9  C   UNL     1       1.729  -2.042   0.569  0.00  0.00    +0.122 A 
ATOM     10  O   UNL     1       2.051  -0.761   0.326  0.00  0.00    -0.463 OA
ENDBRANCH   4   9
ENDBRANCH   1   4
BRANCH   1  11
ATOM     11  C   UNL     1       3.176  -3.253  -2.240  0.00  0.00    +0.169 C 
BRANCH  11  12
ATOM     12  C   UNL     1       3.299  -1.751  -2.250  0.00  0.00    +0.235 C 
ATOM     13  O   UNL     1       3.635  -1.163  -1.244  0.00  0.00    -0.274 OA
ATOM     14  N   UNL     1       3.036  -1.061  -3.378  0.00  0.00    -0.309 N 
ATOM     15  H   UNL     1       2.707  -1.524  -4.164  0.00  0.00    +0.149 HD
BRANCH  14  16
ATOM     16  C   UNL     1       3.247   0.388  -3.416  0.00  0.00    +0.026 C 
ATOM     17  C   UNL     1       4.704   0.701  -3.067  0.00  0.00    +0.031 C 
ATOM     18  C   UNL     1       2.936   0.912  -4.820  0.00  0.00    +0.031 C 
ATOM     19  C   UNL     1       2.323   1.065  -2.402  0.00  0.00    +0.031 C 
ENDBRANCH  14  16
ENDBRANCH  11  12
BRANCH  11  20
ATOM     20  C   UNL     1       4.558  -3.876  -2.032  0.00  0.00    +0.045 C 
ATOM     21  C   UNL     1       5.462  -3.518  -3.213  0.00  0.00    +0.015 C 
BRANCH  20  22
ATOM     22  C   UNL     1       4.424  -5.374  -1.938  0.00  0.00    -0.042 A 
ATOM     23  C   UNL     1       3.987  -6.099  -3.031  0.00  0.00    +0.004 A 
ATOM     24  C   UNL     1       3.864  -7.473  -2.945  0.00  0.00    +0.000 A 
ATOM     25  C   UNL     1       4.180  -8.123  -1.766  0.00  0.00    +0.000 A 
ATOM     26  C   UNL     1       4.618  -7.398  -0.674  0.00  0.00    +0.000 A 
ATOM     27  C   UNL     1       4.745  -6.024  -0.761  0.00  0.00    +0.004 A 
ENDBRANCH  20  22
ENDBRANCH  11  20
ENDBRANCH   1  11
BRANCH   2  28
ATOM     28  C   UNL     1       0.292  -4.845  -0.290  0.00  0.00    +0.131 C 
BRANCH  28  29
ATOM     29  C   UNL     1      -0.830  -5.684  -0.846  0.00  0.00    -0.039 A 
ATOM     30  C   UNL     1      -1.999  -5.080  -1.271  0.00  0.00    +0.005 A 
ATOM     31  C   UNL     1      -3.028  -5.849  -1.781  0.00  0.00    +0.015 A 
ATOM     32  C   UNL     1      -2.889  -7.223  -1.866  0.00  0.00    +0.018 A 
ATOM     33  C   UNL     1      -1.719  -7.826  -1.441  0.00  0.00    +0.015 A 
ATOM     34  C   UNL     1      -0.688  -7.056  -0.936  0.00  0.00    +0.005 A 
ATOM     35 BR   UNL     1      -4.296  -8.275  -2.563  0.00  0.00    -0.050 Br
ENDBRANCH  28  29
ENDBRANCH   2  28
TORSDOF 9
