REMARK  Name = ZINC09695198
REMARK  13 active torsions:
REMARK  status: ('A' for Active; 'I' for Inactive)
REMARK    1  A    between atoms: C_1  and  C_2
REMARK    2  A    between atoms: C_2  and  O_3
REMARK    3  A    between atoms: O_3  and  C_4
REMARK    4  A    between atoms: C_4  and  C_6
REMARK    5  A    between atoms: C_7  and  N_37
REMARK    6  A    between atoms: C_11  and  C_36
REMARK    7  A    between atoms: C_15  and  C_31
REMARK    8  A    between atoms: C_16  and  C_18
REMARK    9  A    between atoms: C_19  and  C_30
REMARK   10  A    between atoms: N_21  and  C_24
REMARK   11  A    between atoms: C_31  and  O_33
REMARK   12  A    between atoms: O_33  and  C_34
REMARK   13  A    between atoms: C_34  and  C_35
REMARK                            x       y       z     vdW  Elec       q    Type
REMARK                         _______ _______ _______ _____ _____    ______ ____
ROOT
ATOM      1  C   UNL     1       3.490   3.448  -2.378  0.00  0.00    +0.084 C 
ATOM      2  C   UNL     1       3.038   3.004  -1.183  0.00  0.00    +0.106 C 
ATOM      3  N   UNL     1       1.690   2.740  -0.905  0.00  0.00    -0.220 N 
ATOM      4  C   UNL     1       1.280   2.297   0.302  0.00  0.00    +0.239 C 
ATOM      5  O   UNL     1       2.068   2.107   1.204  0.00  0.00    -0.274 OA
ATOM      6  C   UNL     1      -0.199   2.047   0.487  0.00  0.00    +0.136 C 
ATOM      7  S   UNL     1      -0.818   2.505  -1.177  0.00  0.00    -0.096 S 
ATOM      8  C   UNL     1       0.753   2.941  -1.901  0.00  0.00    +0.088 C 
ATOM      9  C   UNL     1       1.045   3.383  -3.153  0.00  0.00    +0.077 C 
ATOM     10  C   UNL     1       2.491   3.680  -3.494  0.00  0.00    +0.103 C 
ATOM     11  C   UNL     1      -0.784   2.958   1.568  0.00  0.00    +0.029 C 
ENDROOT
BRANCH  10  12
ATOM     12  C   UNL     1       2.589   5.121  -3.923  0.00  0.00    +0.024 A 
ATOM     13  C   UNL     1       2.920   5.579  -5.203  0.00  0.00    +0.066 A 
ATOM     14  N   UNL     1       2.903   6.887  -5.190  0.00  0.00    -0.170 NA
ATOM     15  N   UNL     1       2.561   7.310  -3.900  0.00  0.00    -0.221 N 
ATOM     16  C   UNL     1       2.366   6.203  -3.138  0.00  0.00    +0.137 A 
ATOM     17 CL   UNL     1       1.916   6.178  -1.461  0.00  0.00    -0.062 Cl
ATOM     18  C   UNL     1       3.241   4.712  -6.393  0.00  0.00    +0.068 C 
BRANCH  15  19
ATOM     19  C   UNL     1       2.435   8.639  -3.472  0.00  0.00    +0.067 A 
ATOM     20  C   UNL     1       1.469   8.980  -2.535  0.00  0.00    +0.028 A 
ATOM     21  C   UNL     1       1.352  10.290  -2.112  0.00  0.00    +0.002 A 
ATOM     22  C   UNL     1       2.188  11.262  -2.628  0.00  0.00    +0.000 A 
ATOM     23  C   UNL     1       3.147  10.927  -3.566  0.00  0.00    +0.002 A 
ATOM     24  C   UNL     1       3.273   9.618  -3.989  0.00  0.00    +0.028 A 
ENDBRANCH  15  19
ENDBRANCH  10  12
BRANCH   2  25
ATOM     25  N   UNL     1       3.953   2.799  -0.184  0.00  0.00    -0.345 N 
ATOM     26  H   UNL     1       3.880   2.020   0.389  0.00  0.00    +0.143 HD
ATOM     27  H   UNL     1       4.674   3.434  -0.049  0.00  0.00    +0.143 HD
ENDBRANCH   2  25
BRANCH   1  28
ATOM     28  C   UNL     1       4.857   3.689  -2.580  0.00  0.00    +0.339 C 
ATOM     29  O   UNL     1       5.662   3.399  -1.713  0.00  0.00    -0.245 OA
BRANCH  28  30
ATOM     30  O   UNL     1       5.281   4.243  -3.737  0.00  0.00    -0.462 OA
BRANCH  30  32
ATOM     31  C   UNL     1       6.974   5.090  -5.239  0.00  0.00    +0.048 C 
ATOM     32  C   UNL     1       6.687   4.460  -3.875  0.00  0.00    +0.229 C 
ENDBRANCH  30  32
ENDBRANCH  28  30
ENDBRANCH   1  28
BRANCH   9  33
ATOM     33  C   UNL     1       0.033   3.560  -4.106  0.00  0.00    +0.338 C 
ATOM     34  O   UNL     1      -1.126   3.317  -3.817  0.00  0.00    -0.245 OA
BRANCH  33  35
ATOM     35  O   UNL     1       0.341   3.999  -5.346  0.00  0.00    -0.462 OA
BRANCH  35  36
ATOM     36  C   UNL     1      -0.741   4.157  -6.266  0.00  0.00    +0.229 C 
ATOM     37  C   UNL     1      -0.201   4.659  -7.607  0.00  0.00    +0.048 C 
ENDBRANCH  35  36
ENDBRANCH  33  35
ENDBRANCH   9  33
TORSDOF 9
