REMARK  Name = ZINC34791883
REMARK  12 active torsions:
REMARK  status: ('A' for Active; 'I' for Inactive)
REMARK    1  A    between atoms: C_1  and  N_2
REMARK    2  A    between atoms: N_2  and  C_3
REMARK    3  A    between atoms: N_2  and  C_4
REMARK    4  A    between atoms: C_4  and  C_5
REMARK    5  A    between atoms: C_5  and  N_6
REMARK    6  A    between atoms: N_6  and  C_7
REMARK    7  A    between atoms: C_7  and  C_8
REMARK    8  A    between atoms: C_14  and  C_16
REMARK    9  A    between atoms: C_16  and  N_17
REMARK   10  A    between atoms: C_23  and  C_32
REMARK   11  A    between atoms: N_28  and  C_29
REMARK   12  A    between atoms: C_29  and  C_30
REMARK                            x       y       z     vdW  Elec       q    Type
REMARK                         _______ _______ _______ _____ _____    ______ ____
ROOT
ATOM      1  N   UNL     1      -3.433  -3.597  -3.043  0.00  0.00    -0.283 N 
ATOM      2  C   UNL     1      -3.457  -4.761  -2.144  0.00  0.00    +0.160 C 
ATOM      3  C   UNL     1      -3.954  -5.904  -3.001  0.00  0.00    +0.043 C 
ATOM      4  C   UNL     1      -4.169  -5.391  -4.229  0.00  0.00    +0.058 C 
ATOM      5  C   UNL     1      -3.862  -4.015  -4.247  0.00  0.00    +0.247 C 
ATOM      6  O   UNL     1      -3.969  -3.299  -5.226  0.00  0.00    -0.270 OA
ATOM      7  C   UNL     1      -4.678  -6.329  -5.306  0.00  0.00    +0.143 C 
ATOM      8  N   UNL     1      -4.895  -7.733  -4.918  0.00  0.00    -0.288 N 
ATOM      9  C   UNL     1      -4.633  -8.096  -3.646  0.00  0.00    +0.307 C 
ATOM     10  O   UNL     1      -4.809  -9.253  -3.317  0.00  0.00    -0.252 OA
ATOM     11  N   UNL     1      -4.185  -7.223  -2.735  0.00  0.00    -0.253 N 
ATOM     12  H   UNL     1      -5.220  -8.381  -5.562  0.00  0.00    +0.151 HD
ENDROOT
BRANCH   7  13
ATOM     13  C   UNL     1      -3.690  -6.310  -6.443  0.00  0.00    -0.004 A 
ATOM     14  C   UNL     1      -2.408  -5.835  -6.238  0.00  0.00    +0.007 A 
ATOM     15  C   UNL     1      -1.502  -5.817  -7.281  0.00  0.00    +0.000 A 
ATOM     16  C   UNL     1      -1.876  -6.275  -8.531  0.00  0.00    +0.001 A 
ATOM     17  C   UNL     1      -3.157  -6.751  -8.738  0.00  0.00    +0.020 A 
ATOM     18  C   UNL     1      -4.063  -6.774  -7.692  0.00  0.00    +0.046 A 
ATOM     19 CL   UNL     1      -5.671  -7.377  -7.949  0.00  0.00    -0.083 Cl
ENDBRANCH   7  13
BRANCH   1  20
ATOM     20  C   UNL     1      -3.024  -2.236  -2.690  0.00  0.00    +0.204 C 
BRANCH  20  22
ATOM     21  N   UNL     1      -4.083  -0.178  -1.816  0.00  0.00    -0.298 N 
ATOM     22  C   UNL     1      -4.221  -1.463  -2.199  0.00  0.00    +0.233 C 
ATOM     23  O   UNL     1      -5.309  -1.997  -2.149  0.00  0.00    -0.274 OA
BRANCH  21  24
ATOM     24  C   UNL     1      -2.769   0.467  -1.877  0.00  0.00    +0.089 C 
BRANCH  24  25
ATOM     25  C   UNL     1      -2.038   0.260  -0.549  0.00  0.00    -0.060 C 
BRANCH  25  27
ATOM     26  C   UNL     1      -0.894   2.361  -0.736  0.00  0.00    -0.097 C 
ATOM     27  N   UNL     1      -0.720   0.907  -0.610  0.00  0.00    +0.377 N 
ATOM     28  C   UNL     1       0.029   0.608   0.617  0.00  0.00    -0.097 C 
ATOM     29  H   UNL     1      -0.211   0.559  -1.408  0.00  0.00    -0.083 HD
ENDBRANCH  25  27
ENDBRANCH  24  25
ENDBRANCH  21  24
BRANCH  21  30
ATOM     30  C   UNL     1      -5.247   0.573  -1.339  0.00  0.00    +0.142 C 
BRANCH  30  31
ATOM     31  C   UNL     1      -5.916   1.256  -2.504  0.00  0.00    -0.030 A 
ATOM     32  C   UNL     1      -5.528   2.530  -2.874  0.00  0.00    +0.005 A 
ATOM     33  C   UNL     1      -6.142   3.157  -3.942  0.00  0.00    +0.000 A 
ATOM     34  C   UNL     1      -7.143   2.509  -4.641  0.00  0.00    +0.000 A 
ATOM     35  C   UNL     1      -7.530   1.234  -4.272  0.00  0.00    +0.000 A 
ATOM     36  C   UNL     1      -6.914   0.606  -3.206  0.00  0.00    +0.005 A 
ENDBRANCH  30  31
ENDBRANCH  21  30
ENDBRANCH  20  22
ENDBRANCH   1  20
BRANCH  11  37
ATOM     37  C   UNL     1      -3.928  -7.711  -1.377  0.00  0.00    +0.141 C 
BRANCH  37  38
ATOM     38  C   UNL     1      -5.178  -7.570  -0.547  0.00  0.00    -0.015 C 
ATOM     39  C   UNL     1      -5.675  -8.613   0.070  0.00  0.00    +0.005 C 
ENDBRANCH  37  38
ENDBRANCH  11  37
TORSDOF 10
