REMARK  Name = ZINC45754745
REMARK  12 active torsions:
REMARK  status: ('A' for Active; 'I' for Inactive)
REMARK    1  A    between atoms: C_1  and  C_2
REMARK    2  A    between atoms: C_5  and  C_29
REMARK    3  A    between atoms: N_8  and  C_10
REMARK    4  A    between atoms: C_10  and  C_11
REMARK    5  A    between atoms: C_17  and  C_19
REMARK    6  A    between atoms: C_19  and  C_20
REMARK    7  A    between atoms: C_20  and  N_21
REMARK    8  A    between atoms: C_22  and  O_24
REMARK    9  A    between atoms: O_24  and  C_25
REMARK   10  A    between atoms: C_25  and  C_26
REMARK   11  A    between atoms: C_25  and  C_27
REMARK   12  A    between atoms: C_25  and  C_28
REMARK                            x       y       z     vdW  Elec       q    Type
REMARK                         _______ _______ _______ _____ _____    ______ ____
ROOT
ATOM      1  C   UNL     1       2.971  -2.034   2.241  0.00  0.00    +0.034 A 
ATOM      2  C   UNL     1       3.439  -0.905   2.828  0.00  0.00    +0.070 A 
ATOM      3  S   UNL     1       5.146  -0.941   2.305  0.00  0.00    -0.060 S 
ATOM      4  C   UNL     1       5.085  -2.365   1.411  0.00  0.00    +0.164 A 
ATOM      5  N   UNL     1       3.833  -2.747   1.539  0.00  0.00    -0.231 NA
ATOM      6  N   UNL     1       6.111  -2.990   0.710  0.00  0.00    -0.265 N 
ATOM      7  C   UNL     1       7.344  -2.447   0.696  0.00  0.00    +0.220 C 
ATOM      8  O   UNL     1       7.560  -1.415   1.294  0.00  0.00    -0.275 OA
ATOM      9  H   UNL     1       5.938  -3.815   0.231  0.00  0.00    +0.157 HD
ENDROOT
BRANCH   1  10
ATOM     10  C   UNL     1       1.534  -2.461   2.390  0.00  0.00    -0.022 C 
BRANCH  10  16
ATOM     11  C   UNL     1      -0.019   1.526   0.010  0.00  0.00    +0.005 C 
ATOM     12  C   UNL     1       0.002  -0.004   0.002  0.00  0.00    -0.031 C 
ATOM     13  C   UNL     1      -1.434  -0.535   0.015  0.00  0.00    +0.003 C 
ATOM     14  C   UNL     1      -1.402  -2.064   0.086  0.00  0.00    -0.031 C 
ATOM     15  C   UNL     1      -0.613  -2.496   1.324  0.00  0.00    -0.075 C 
ATOM     16  N   UNL     1       0.758  -1.980   1.239  0.00  0.00    +0.384 N 
ATOM     17  C   UNL     1       0.740  -0.512   1.242  0.00  0.00    -0.075 C 
ATOM     18  C   UNL     1      -0.728  -2.620  -1.170  0.00  0.00    +0.005 C 
ATOM     19  H   UNL     1       1.188  -2.307   0.386  0.00  0.00    -0.081 HD
ENDBRANCH  10  16
ENDBRANCH   1  10
BRANCH   7  20
ATOM     20  C   UNL     1       8.456  -3.124  -0.064  0.00  0.00    +0.115 C 
BRANCH  20  21
ATOM     21  C   UNL     1       9.743  -2.309   0.082  0.00  0.00    +0.116 C 
BRANCH  21  22
ATOM     22  N   UNL     1      10.824  -2.967  -0.657  0.00  0.00    -0.281 N 
ATOM     23  C   UNL     1      12.057  -2.425  -0.671  0.00  0.00    +0.401 C 
ATOM     24  O   UNL     1      12.273  -1.390  -0.071  0.00  0.00    -0.226 OA
ATOM     25  H   UNL     1      10.651  -3.793  -1.135  0.00  0.00    +0.152 HD
BRANCH  23  26
ATOM     26  O   UNL     1      13.051  -3.030  -1.349  0.00  0.00    -0.445 OA
BRANCH  26  27
ATOM     27  C   UNL     1      14.333  -2.399  -1.321  0.00  0.00    +0.107 C 
ATOM     28  C   UNL     1      14.822  -2.303   0.125  0.00  0.00    +0.055 C 
ATOM     29  C   UNL     1      15.326  -3.226  -2.141  0.00  0.00    +0.055 C 
ATOM     30  C   UNL     1      14.224  -0.995  -1.917  0.00  0.00    +0.055 C 
ENDBRANCH  26  27
ENDBRANCH  23  26
ENDBRANCH  21  22
ENDBRANCH  20  21
ENDBRANCH   7  20
TORSDOF 7
