REMARK  Name = ZINC17782369
REMARK  5 active torsions:
REMARK  status: ('A' for Active; 'I' for Inactive)
REMARK    1  A    between atoms: C_1  and  C_2
REMARK    2  A    between atoms: N_8  and  N_9
REMARK    3  A    between atoms: C_10  and  C_11
REMARK    4  A    between atoms: C_10  and  C_12
REMARK    5  A    between atoms: C_15  and  N_18
REMARK                            x       y       z     vdW  Elec       q    Type
REMARK                         _______ _______ _______ _____ _____    ______ ____
ROOT
ATOM      1  N   UNL     1      -1.805  -2.816   3.587  0.00  0.00    -0.152 NA
ATOM      2  C   UNL     1      -1.893  -3.536   4.727  0.00  0.00    +0.068 C 
ATOM      3  C   UNL     1      -0.699  -3.654   5.638  0.00  0.00    +0.068 C 
ENDROOT
BRANCH   1  10
ATOM      4  C   UNL     1      -0.019   1.526   0.010  0.00  0.00    +0.029 C 
ATOM      5  C   UNL     1       0.002  -0.004   0.002  0.00  0.00    +0.137 C 
ATOM      6  C   UNL     1      -1.404  -0.577   0.112  0.00  0.00    +0.232 C 
ATOM      7  O   UNL     1      -2.269  -0.391  -0.717  0.00  0.00    -0.274 OA
ATOM      8  N   UNL     1      -1.585  -1.302   1.207  0.00  0.00    -0.263 N 
ATOM      9  C   UNL     1      -0.609  -1.502   2.123  0.00  0.00    +0.183 C 
ATOM     10  N   UNL     1      -0.698  -2.230   3.278  0.00  0.00    -0.126 NA
ATOM     11  S   UNL     1       0.739  -0.671   1.549  0.00  0.00    -0.076 S 
ATOM     12  H   UNL     1      -2.453  -1.706   1.359  0.00  0.00    +0.157 HD
ENDBRANCH   1  10
BRANCH   2  13
ATOM     13  C   UNL     1      -3.095  -4.172   5.063  0.00  0.00    -0.002 A 
ATOM     14  C   UNL     1      -3.197  -4.923   6.259  0.00  0.00    +0.012 A 
ATOM     15  C   UNL     1      -4.373  -5.537   6.573  0.00  0.00    +0.033 A 
ATOM     16  C   UNL     1      -5.469  -5.429   5.725  0.00  0.00    +0.126 A 
ATOM     17  C   UNL     1      -5.384  -4.696   4.548  0.00  0.00    +0.033 A 
ATOM     18  C   UNL     1      -4.222  -4.066   4.212  0.00  0.00    +0.012 A 
BRANCH  16  19
ATOM     19  N   UNL     1      -6.740  -6.102   6.080  0.00  0.00    +0.056 N 
ATOM     20  O   UNL     1      -6.827  -6.799   7.194  0.00  0.00    -0.126 OA
ATOM     21  O   UNL     1      -7.782  -6.004   5.281  0.00  0.00    -0.126 OA
ENDBRANCH  16  19
ENDBRANCH   2  13
TORSDOF 3
