REMARK  Name = ZINC34747456
REMARK  10 active torsions:
REMARK  status: ('A' for Active; 'I' for Inactive)
REMARK    1  A    between atoms: C_1  and  C_2
REMARK    2  A    between atoms: C_2  and  C_3
REMARK    3  A    between atoms: C_3  and  C_4
REMARK    4  A    between atoms: C_4  and  N_5
REMARK    5  A    between atoms: N_18  and  C_21
REMARK    6  A    between atoms: C_21  and  C_22
REMARK    7  A    between atoms: N_24  and  C_25
REMARK    8  A    between atoms: N_24  and  C_27
REMARK    9  A    between atoms: C_25  and  C_26
REMARK   10  A    between atoms: C_27  and  C_28
REMARK                            x       y       z     vdW  Elec       q    Type
REMARK                         _______ _______ _______ _____ _____    ______ ____
ROOT
ATOM      1  N   UNL     1      -4.047  -1.779  -0.525  0.00  0.00    -0.280 N 
ATOM      2  C   UNL     1      -4.618  -1.960   0.681  0.00  0.00    +0.264 A 
ATOM      3  O   UNL     1      -5.097  -1.016   1.285  0.00  0.00    -0.267 OA
ATOM      4  C   UNL     1      -4.655  -3.275   1.242  0.00  0.00    +0.076 A 
ATOM      5  C   UNL     1      -5.219  -3.699   2.526  0.00  0.00    -0.023 A 
ATOM      6  C   UNL     1      -5.129  -5.009   2.831  0.00  0.00    -0.004 A 
ATOM      7  S   UNL     1      -4.301  -5.748   1.448  0.00  0.00    -0.073 S 
ATOM      8  C   UNL     1      -4.076  -4.290   0.462  0.00  0.00    +0.117 A 
ATOM      9  N   UNL     1      -3.528  -4.044  -0.723  0.00  0.00    -0.208 NA
ATOM     10  C   UNL     1      -3.512  -2.824  -1.218  0.00  0.00    +0.202 A 
ATOM     11  N   UNL     1      -2.944  -2.600  -2.448  0.00  0.00    -0.304 N 
ATOM     12  C   UNL     1      -1.519  -2.256  -2.571  0.00  0.00    +0.089 C 
ATOM     13  C   UNL     1      -0.883  -3.184  -3.611  0.00  0.00    -0.059 C 
ATOM     14  N   UNL     1      -1.638  -3.099  -4.868  0.00  0.00    +0.387 N 
ATOM     15  C   UNL     1      -3.001  -3.606  -4.667  0.00  0.00    -0.059 C 
ATOM     16  C   UNL     1      -3.741  -2.704  -3.680  0.00  0.00    +0.089 C 
ATOM     17  C   UNL     1      -5.622  -5.688   4.072  0.00  0.00    +0.043 C 
ATOM     18  C   UNL     1      -5.921  -4.613   5.126  0.00  0.00    +0.005 C 
ATOM     19  C   UNL     1      -6.750  -3.502   4.473  0.00  0.00    +0.005 C 
ATOM     20  C   UNL     1      -5.881  -2.717   3.489  0.00  0.00    +0.037 C 
ATOM     21  H   UNL     1      -1.679  -2.137  -5.170  0.00  0.00    -0.081 HD
ENDROOT
BRANCH   1  22
ATOM     22  C   UNL     1      -4.006  -0.435  -1.106  0.00  0.00    +0.128 C 
BRANCH  22  23
ATOM     23  C   UNL     1      -5.323  -0.152  -1.831  0.00  0.00    +0.021 C 
BRANCH  23  25
ATOM     24  C   UNL     1      -6.596   1.535  -3.164  0.00  0.00    +0.004 C 
ATOM     25  C   UNL     1      -5.279   1.252  -2.438  0.00  0.00    -0.002 C 
ENDBRANCH  23  25
ENDBRANCH  22  23
ENDBRANCH   1  22
BRANCH  14  26
ATOM     26  C   UNL     1      -0.965  -3.903  -5.896  0.00  0.00    +0.019 C 
BRANCH  26  27
ATOM     27  C   UNL     1      -1.668  -3.720  -7.217  0.00  0.00    +0.199 C 
ATOM     28  O   UNL     1      -2.634  -2.991  -7.293  0.00  0.00    -0.278 OA
ATOM     29  N   UNL     1      -1.222  -4.366  -8.313  0.00  0.00    -0.304 N 
BRANCH  29  30
ATOM     30  C   UNL     1      -1.906  -4.188  -9.596  0.00  0.00    +0.104 C 
ATOM     31  C   UNL     1      -1.280  -3.012 -10.349  0.00  0.00    +0.024 C 
ENDBRANCH  29  30
BRANCH  29  32
ATOM     32  C   UNL     1      -0.055  -5.246  -8.220  0.00  0.00    +0.104 C 
ATOM     33  C   UNL     1      -0.512  -6.667  -7.883  0.00  0.00    +0.024 C 
ENDBRANCH  29  32
ENDBRANCH  26  27
ENDBRANCH  14  26
TORSDOF 7
