REMARK  Name = ZINC36495671
REMARK  9 active torsions:
REMARK  status: ('A' for Active; 'I' for Inactive)
REMARK    1  A    between atoms: C_4  and  C_8
REMARK    2  A    between atoms: C_8  and  C_10
REMARK    3  A    between atoms: C_8  and  N_19
REMARK    4  A    between atoms: N_12  and  C_13
REMARK    5  A    between atoms: N_19  and  C_20
REMARK    6  A    between atoms: C_20  and  C_21
REMARK    7  A    between atoms: C_26  and  C_28
REMARK    8  A    between atoms: C_28  and  C_29
REMARK    9  A    between atoms: C_29  and  C_30
REMARK                            x       y       z     vdW  Elec       q    Type
REMARK                         _______ _______ _______ _____ _____    ______ ____
ROOT
ATOM      1  C   UNL     1       4.043  -0.562  -0.034  0.00  0.00    +0.195 C 
ENDROOT
BRANCH   1   5
ATOM      2  C   UNL     1       5.286  -0.193  -4.106  0.00  0.00    +0.003 A 
ATOM      3  C   UNL     1       6.168   0.105  -3.084  0.00  0.00    +0.020 A 
ATOM      4  C   UNL     1       5.767  -0.014  -1.766  0.00  0.00    +0.048 A 
ATOM      5  C   UNL     1       4.481  -0.431  -1.470  0.00  0.00    +0.018 A 
ATOM      6  C   UNL     1       3.598  -0.728  -2.492  0.00  0.00    +0.048 A 
ATOM      7  C   UNL     1       4.001  -0.609  -3.810  0.00  0.00    +0.020 A 
ATOM      8 CL   UNL     1       1.985  -1.252  -2.121  0.00  0.00    -0.083 Cl
ATOM      9 CL   UNL     1       6.876   0.358  -0.483  0.00  0.00    -0.083 Cl
ENDBRANCH   1   5
BRANCH   1  10
ATOM     10  C   UNL     1       3.083   0.550   0.302  0.00  0.00    +0.238 C 
ATOM     11  O   UNL     1       1.966   0.549  -0.171  0.00  0.00    -0.273 OA
ATOM     12  N   UNL     1       3.464   1.544   1.127  0.00  0.00    -0.311 N 
ATOM     13  H   UNL     1       4.358   1.545   1.506  0.00  0.00    +0.149 HD
BRANCH  12  14
ATOM     14  C   UNL     1       2.530   2.625   1.453  0.00  0.00    +0.073 C 
ATOM     15  C   UNL     1       2.595   3.700   0.366  0.00  0.00    +0.022 C 
ATOM     16  C   UNL     1       1.619   4.829   0.707  0.00  0.00    +0.002 C 
ATOM     17  C   UNL     1       2.001   5.443   2.055  0.00  0.00    +0.000 C 
ATOM     18  C   UNL     1       1.936   4.368   3.142  0.00  0.00    +0.002 C 
ATOM     19  C   UNL     1       2.912   3.239   2.802  0.00  0.00    +0.022 C 
ENDBRANCH  12  14
ENDBRANCH   1  10
BRANCH   1  20
ATOM     20  N   UNL     1       3.381  -1.854   0.159  0.00  0.00    -0.278 N 
ATOM     21  C   UNL     1       3.434  -2.790  -0.810  0.00  0.00    +0.217 C 
ATOM     22  O   UNL     1       4.134  -2.614  -1.784  0.00  0.00    -0.276 OA
BRANCH  20  23
ATOM     23  C   UNL     1       2.662  -2.130   1.406  0.00  0.00    +0.183 C 
BRANCH  23  24
ATOM     24  C   UNL     1       1.188  -1.899   1.197  0.00  0.00    +0.122 A 
ATOM     25  C   UNL     1       0.284  -2.837   0.859  0.00  0.00    +0.046 A 
ATOM     26  C   UNL     1      -0.968  -2.187   0.770  0.00  0.00    +0.041 A 
ATOM     27  C   UNL     1      -0.755  -0.890   1.058  0.00  0.00    +0.195 A 
ATOM     28  O   UNL     1       0.552  -0.723   1.321  0.00  0.00    -0.466 OA
ENDBRANCH  23  24
ENDBRANCH  20  23
BRANCH  21  29
ATOM     29  C   UNL     1       2.622  -4.053  -0.682  0.00  0.00    +0.096 C 
BRANCH  29  30
ATOM     30  C   UNL     1       2.861  -4.938  -1.907  0.00  0.00    +0.013 C 
BRANCH  30  31
ATOM     31  C   UNL     1       2.037  -6.221  -1.778  0.00  0.00    -0.011 C 
ATOM     32  C   UNL     1       0.547  -5.876  -1.812  0.00  0.00    +0.003 C 
ATOM     33  C   UNL     1      -0.277  -7.158  -1.682  0.00  0.00    +0.000 C 
ATOM     34  C   UNL     1       0.056  -8.098  -2.843  0.00  0.00    +0.000 C 
ATOM     35  C   UNL     1       1.546  -8.443  -2.809  0.00  0.00    +0.000 C 
ATOM     36  C   UNL     1       2.370  -7.160  -2.939  0.00  0.00    +0.003 C 
ENDBRANCH  30  31
ENDBRANCH  29  30
ENDBRANCH  21  29
ENDBRANCH   1  20
TORSDOF 9
