REMARK  Name = ZINC39701901
REMARK  10 active torsions:
REMARK  status: ('A' for Active; 'I' for Inactive)
REMARK    1  A    between atoms: C_1  and  O_2
REMARK    2  A    between atoms: O_2  and  C_3
REMARK    3  A    between atoms: C_3  and  C_5
REMARK    4  A    between atoms: C_5  and  C_7
REMARK    5  A    between atoms: C_5  and  N_17
REMARK    6  A    between atoms: C_7  and  C_8
REMARK    7  A    between atoms: C_18  and  C_20
REMARK    8  A    between atoms: C_20  and  C_22
REMARK    9  A    between atoms: N_25  and  C_32
REMARK   10  A    between atoms: C_32  and  C_33
REMARK                            x       y       z     vdW  Elec       q    Type
REMARK                         _______ _______ _______ _____ _____    ______ ____
ROOT
ATOM      1  N   UNL     1      -2.643  -2.570   0.013  0.00  0.00    -0.296 N 
ATOM      2  C   UNL     1      -3.328  -2.666  -1.143  0.00  0.00    +0.281 C 
ATOM      3  O   UNL     1      -2.785  -2.393  -2.194  0.00  0.00    -0.267 OA
ATOM      4  H   UNL     1      -3.076  -2.788   0.853  0.00  0.00    +0.150 HD
ENDROOT
BRANCH   2   5
ATOM      5  C   UNL     1      -4.752  -3.109  -1.132  0.00  0.00    +0.226 C 
ATOM      6  O   UNL     1      -5.291  -3.380  -0.086  0.00  0.00    -0.286 OA
BRANCH   5   7
ATOM      7  C   UNL     1      -5.517  -3.216  -2.426  0.00  0.00    +0.114 C 
ATOM      8  C   UNL     1      -7.018  -2.987  -2.182  0.00  0.00    +0.122 C 
ATOM      9  N   UNL     1      -7.669  -4.234  -2.591  0.00  0.00    -0.320 N 
ATOM     10  C   UNL     1      -6.714  -5.148  -3.040  0.00  0.00    +0.034 A 
ATOM     11  C   UNL     1      -5.430  -4.623  -2.975  0.00  0.00    -0.014 A 
ATOM     12  C   UNL     1      -4.342  -5.372  -3.377  0.00  0.00    +0.006 A 
ATOM     13  C   UNL     1      -4.522  -6.659  -3.852  0.00  0.00    +0.000 A 
ATOM     14  C   UNL     1      -5.795  -7.193  -3.923  0.00  0.00    +0.002 A 
ATOM     15  C   UNL     1      -6.891  -6.447  -3.520  0.00  0.00    +0.023 A 
BRANCH   9  16
ATOM     16  C   UNL     1      -9.111  -4.485  -2.537  0.00  0.00    +0.201 C 
BRANCH  16  17
ATOM     17  C   UNL     1      -9.743  -4.065  -3.839  0.00  0.00    +0.233 C 
ATOM     18  O   UNL     1      -9.056  -3.602  -4.725  0.00  0.00    -0.274 OA
ATOM     19  N   UNL     1     -11.072  -4.205  -4.019  0.00  0.00    -0.300 N 
ATOM     20  C   UNL     1     -11.918  -4.758  -2.953  0.00  0.00    +0.108 C 
ATOM     21  C   UNL     1     -13.064  -3.781  -2.676  0.00  0.00    +0.019 C 
ATOM     22  C   UNL     1     -13.808  -3.489  -3.981  0.00  0.00    +0.003 C 
ATOM     23  C   UNL     1     -12.850  -2.839  -4.982  0.00  0.00    +0.019 C 
ATOM     24  C   UNL     1     -11.702  -3.800  -5.283  0.00  0.00    +0.108 C 
ENDBRANCH  16  17
ENDBRANCH   9  16
ENDBRANCH   5   7
ENDBRANCH   2   5
BRANCH   1  25
ATOM     25  C   UNL     1      -1.244  -2.135   0.003  0.00  0.00    +0.186 C 
BRANCH  25  26
ATOM     26  C   UNL     1      -1.185  -0.630   0.010  0.00  0.00    +0.328 C 
ATOM     27  O   UNL     1      -2.208   0.015   0.023  0.00  0.00    -0.249 OA
BRANCH  26  29
ATOM     28  C   UNL     1      -0.017   1.425   0.010  0.00  0.00    +0.280 C 
ATOM     29  O   UNL     1       0.002  -0.004   0.002  0.00  0.00    -0.467 OA
ENDBRANCH  26  29
ENDBRANCH  25  26
BRANCH  25  30
ATOM     30  C   UNL     1      -0.531  -2.680   1.242  0.00  0.00    +0.071 C 
BRANCH  30  31
ATOM     31  C   UNL     1      -0.482  -4.184   1.173  0.00  0.00    -0.020 A 
ATOM     32  C   UNL     1       0.524  -4.992   0.479  0.00  0.00    +0.003 A 
ATOM     33  C   UNL     1       1.659  -4.691  -0.275  0.00  0.00    +0.010 A 
ATOM     34  C   UNL     1       2.411  -5.702  -0.803  0.00  0.00    +0.001 A 
ATOM     35  C   UNL     1       2.055  -7.028  -0.596  0.00  0.00    +0.002 A 
ATOM     36  C   UNL     1       0.938  -7.348   0.145  0.00  0.00    +0.026 A 
ATOM     37  C   UNL     1       0.159  -6.335   0.692  0.00  0.00    +0.047 A 
ATOM     38  N   UNL     1      -0.985  -6.327   1.459  0.00  0.00    -0.360 N 
ATOM     39  C   UNL     1      -1.348  -5.038   1.741  0.00  0.00    +0.087 A 
ATOM     40  H   UNL     1      -1.460  -7.118   1.759  0.00  0.00    +0.165 HD
ENDBRANCH  30  31
ENDBRANCH  25  30
ENDBRANCH   1  25
TORSDOF 9
