REMARK  Name = ZINC40089895
REMARK  3 active torsions:
REMARK  status: ('A' for Active; 'I' for Inactive)
REMARK    1  A    between atoms: C_1  and  C_2
REMARK    2  A    between atoms: C_8  and  N_10
REMARK    3  A    between atoms: C_11  and  C_13
REMARK                            x       y       z     vdW  Elec       q    Type
REMARK                         _______ _______ _______ _____ _____    ______ ____
ROOT
ATOM      1  C   UNL     1       3.999   0.859   2.403  0.00  0.00    +0.092 C 
ATOM      2  C   UNL     1       4.550   0.864   3.831  0.00  0.00    +0.016 C 
ATOM      3  C   UNL     1       6.038   1.221   3.804  0.00  0.00    +0.020 C 
ATOM      4  C   UNL     1       6.211   2.624   3.214  0.00  0.00    +0.109 C 
ATOM      5  N   UNL     1       5.556   2.669   1.900  0.00  0.00    -0.285 N 
ATOM      6  C   UNL     1       4.149   2.257   1.796  0.00  0.00    +0.122 C 
ATOM      7  C   UNL     1       6.233   3.079   0.809  0.00  0.00    +0.305 C 
ATOM      8  O   UNL     1       5.756   2.920  -0.298  0.00  0.00    -0.252 OA
ATOM      9  N   UNL     1       7.438   3.667   0.945  0.00  0.00    -0.285 N 
ATOM     10  C   UNL     1       8.212   3.756   2.192  0.00  0.00    +0.109 C 
ATOM     11  C   UNL     1       9.507   4.533   1.873  0.00  0.00    +0.020 C 
ATOM     12  C   UNL     1       9.128   5.330   0.597  0.00  0.00    +0.020 C 
ATOM     13  C   UNL     1       8.201   4.322  -0.133  0.00  0.00    +0.109 C 
ENDROOT
BRANCH   1  15
ATOM     14  N   UNL     1       1.844   0.406   1.276  0.00  0.00    -0.312 N 
ATOM     15  C   UNL     1       2.542   0.475   2.427  0.00  0.00    +0.218 C 
ATOM     16  O   UNL     1       1.997   0.228   3.482  0.00  0.00    -0.275 OA
ATOM     17  H   UNL     1       2.280   0.603   0.432  0.00  0.00    +0.149 HD
BRANCH  14  24
ATOM     18  C   UNL     1      -0.145   2.130   0.068  0.00  0.00    +0.009 C 
ATOM     19  C   UNL     1      -0.271   0.605   0.065  0.00  0.00    +0.006 C 
ATOM     20  C   UNL     1      -1.751   0.215   0.090  0.00  0.00    +0.005 C 
ATOM     21  C   UNL     1      -1.877  -1.310   0.087  0.00  0.00    +0.000 C 
ATOM     22  C   UNL     1      -1.178  -1.882   1.322  0.00  0.00    +0.002 C 
ATOM     23  C   UNL     1       0.301  -1.492   1.297  0.00  0.00    +0.022 C 
ATOM     24  C   UNL     1       0.427   0.033   1.300  0.00  0.00    +0.076 C 
ENDBRANCH  14  24
ENDBRANCH   1  15
TORSDOF 2
