REMARK  Name = ZINC00047164
REMARK  4 active torsions:
REMARK  status: ('A' for Active; 'I' for Inactive)
REMARK    1  A    between atoms: C_1  and  C_2
REMARK    2  A    between atoms: C_2  and  C_23
REMARK    3  A    between atoms: C_8  and  O_22
REMARK    4  A    between atoms: C_13  and  C_15
REMARK                            x       y       z     vdW  Elec       q    Type
REMARK                         _______ _______ _______ _____ _____    ______ ____
ROOT
ATOM      1  C   UNL     1      -0.965   2.865   2.279  0.00  0.00    +0.011 C 
ATOM      2  C   UNL     1      -1.226   3.192   0.808  0.00  0.00    -0.024 C 
ATOM      3  C   UNL     1      -1.345   1.892   0.019  0.00  0.00    +0.082 C 
ATOM      4  C   UNL     1      -0.014   1.203   0.009  0.00  0.00    +0.152 C 
ATOM      5  O   UNL     1       0.002  -0.004   0.002  0.00  0.00    -0.296 OA
ATOM      6  C   UNL     1       1.277   1.916   0.000  0.00  0.00    +0.174 C 
ATOM      7  C   UNL     1       1.260   3.415   0.220  0.00  0.00    +0.181 C 
ATOM      8  C   UNL     1      -0.106   4.055   0.291  0.00  0.00    +0.068 C 
ATOM      9  N   UNL     1       2.057   4.154  -0.775  0.00  0.00    -0.206 N 
ATOM     10  C   UNL     1       2.546   3.490  -1.841  0.00  0.00    +0.191 A 
ATOM     11  N   UNL     1       3.143   4.331  -2.646  0.00  0.00    -0.201 NA
ATOM     12  C   UNL     1       3.118   5.556  -2.101  0.00  0.00    +0.182 A 
ATOM     13  N   UNL     1       2.479   5.498  -0.959  0.00  0.00    -0.146 NA
ATOM     14  S   UNL     1       2.122   1.778  -1.614  0.00  0.00    -0.070 S 
ATOM     15  C   UNL     1      -2.543   3.962   0.695  0.00  0.00    +0.011 C 
ENDROOT
BRANCH  12  16
ATOM     16  C   UNL     1       3.716   6.777  -2.695  0.00  0.00    +0.021 A 
ATOM     17  C   UNL     1       3.618   7.998  -2.031  0.00  0.00    +0.011 A 
ATOM     18  C   UNL     1       4.179   9.130  -2.586  0.00  0.00    +0.001 A 
ATOM     19  C   UNL     1       4.830   9.056  -3.804  0.00  0.00    +0.000 A 
ATOM     20  C   UNL     1       4.926   7.848  -4.470  0.00  0.00    +0.001 A 
ATOM     21  C   UNL     1       4.373   6.708  -3.922  0.00  0.00    +0.011 A 
ENDBRANCH  12  16
BRANCH   7  22
ATOM     22  O   UNL     1       1.873   3.654   1.488  0.00  0.00    -0.367 OA
ATOM     23  H   UNL     1       2.783   3.333   1.552  0.00  0.00    +0.212 HD
ENDBRANCH   7  22
TORSDOF 2
