REMARK  Name = ZINC00222002
REMARK  3 active torsions:
REMARK  status: ('A' for Active; 'I' for Inactive)
REMARK    1  A    between atoms: C_1  and  C_2
REMARK    2  A    between atoms: C_5  and  C_8
REMARK    3  A    between atoms: C_11  and  C_19
REMARK                            x       y       z     vdW  Elec       q    Type
REMARK                         _______ _______ _______ _____ _____    ______ ____
ROOT
ATOM      1  C   UNL     1       0.059  -4.275  -0.021  0.00  0.00    +0.143 C 
ATOM      2  C   UNL     1      -1.178  -4.809   0.711  0.00  0.00    +0.058 C 
ATOM      3  C   UNL     1      -1.029  -6.317   0.947  0.00  0.00    +0.106 C 
ATOM      4  N   UNL     1       0.141  -6.544   1.817  0.00  0.00    -0.307 N 
ATOM      5  C   UNL     1       1.280  -5.807   1.519  0.00  0.00    +0.215 A 
ATOM      6  N   UNL     1       1.260  -4.754   0.664  0.00  0.00    -0.226 N 
ATOM      7  N   UNL     1       2.565  -4.266   0.600  0.00  0.00    -0.156 NA
ATOM      8  C   UNL     1       3.289  -5.019   1.390  0.00  0.00    +0.247 A 
ATOM      9  N   UNL     1       2.504  -5.952   1.950  0.00  0.00    -0.202 NA
ATOM     10  H   UNL     1       0.116  -7.172   2.556  0.00  0.00    +0.149 HD
ENDROOT
BRANCH   3  11
ATOM     11  C   UNL     1      -0.828  -7.018  -0.371  0.00  0.00    -0.023 A 
ATOM     12  C   UNL     1       0.422  -7.029  -0.963  0.00  0.00    +0.009 A 
ATOM     13  C   UNL     1       0.612  -7.672  -2.172  0.00  0.00    +0.050 A 
ATOM     14  C   UNL     1      -0.451  -8.306  -2.795  0.00  0.00    +0.166 A 
ATOM     15  C   UNL     1      -1.710  -8.295  -2.199  0.00  0.00    +0.167 A 
ATOM     16  C   UNL     1      -1.891  -7.654  -0.984  0.00  0.00    +0.055 A 
ATOM     17  O   UNL     1      -2.578  -8.980  -2.999  0.00  0.00    -0.453 OA
ATOM     18  C   UNL     1      -1.934  -9.059  -4.285  0.00  0.00    +0.466 C 
ATOM     19  O   UNL     1      -0.530  -8.998  -3.968  0.00  0.00    -0.453 OA
ENDBRANCH   3  11
BRANCH   1  24
ATOM     20  C   UNL     1      -0.018   1.503   0.010  0.00  0.00    +0.044 C 
ATOM     21  C   UNL     1       0.002  -0.004   0.002  0.00  0.00    -0.050 A 
ATOM     22  C   UNL     1       0.006  -0.689  -1.199  0.00  0.00    +0.004 A 
ATOM     23  C   UNL     1       0.025  -2.071  -1.206  0.00  0.00    +0.006 A 
ATOM     24  C   UNL     1       0.040  -2.768  -0.013  0.00  0.00    -0.023 A 
ATOM     25  C   UNL     1       0.037  -2.084   1.188  0.00  0.00    +0.006 A 
ATOM     26  C   UNL     1       0.023  -0.702   1.195  0.00  0.00    +0.004 A 
ENDBRANCH   1  24
TORSDOF 2
