REMARK  Name = ZINC65289127
REMARK  5 active torsions:
REMARK  status: ('A' for Active; 'I' for Inactive)
REMARK    1  A    between atoms: C_1  and  C_2
REMARK    2  A    between atoms: C_2  and  C_3
REMARK    3  A    between atoms: C_2  and  C_4
REMARK    4  A    between atoms: C_15  and  C_17
REMARK    5  A    between atoms: C_20  and  C_23
REMARK                            x       y       z     vdW  Elec       q    Type
REMARK                         _______ _______ _______ _____ _____    ______ ____
ROOT
ATOM      1  C   UNL     1      -1.470  -0.417  -0.043  0.00  0.00    +0.142 C 
ATOM      2  N   UNL     1      -2.086   0.012  -1.325  0.00  0.00    -0.238 NA
ATOM      3  N   UNL     1      -2.480  -1.217  -2.038  0.00  0.00    -0.237 NA
ATOM      4  C   UNL     1      -1.589  -2.244  -1.468  0.00  0.00    +0.157 C 
ATOM      5  N   UNL     1      -1.588  -1.878  -0.022  0.00  0.00    -0.267 NA
ATOM      6  C   UNL     1      -0.542  -2.620   0.667  0.00  0.00    +0.106 C 
ATOM      7  C   UNL     1      -0.929  -4.109   0.637  0.00  0.00    +0.123 C 
ATOM      8  N   UNL     1      -1.251  -4.514  -0.737  0.00  0.00    -0.295 N 
ATOM      9  C   UNL     1      -2.129  -3.665  -1.581  0.00  0.00    +0.143 C 
ATOM     10  C   UNL     1      -0.742  -5.655  -1.244  0.00  0.00    +0.246 C 
ATOM     11  O   UNL     1      -1.011  -5.987  -2.379  0.00  0.00    -0.273 OA
ATOM     12  H   UNL     1      -2.885   0.607  -1.161  0.00  0.00    +0.142 HD
ATOM     13  H   UNL     1      -2.334  -1.121  -3.031  0.00  0.00    +0.142 HD
ENDROOT
BRANCH  10  14
ATOM     14  C   UNL     1       0.161  -6.517  -0.400  0.00  0.00    +0.238 C 
ATOM     15  C   UNL     1       1.586  -5.993  -0.430  0.00  0.00    +0.036 C 
ATOM     16  C   UNL     1       2.285  -6.994  -0.970  0.00  0.00    +0.065 C 
ATOM     17  N   UNL     1       1.479  -8.038  -1.265  0.00  0.00    -0.158 NA
ATOM     18  N   UNL     1       0.287  -7.864  -0.982  0.00  0.00    -0.170 NA
BRANCH  16  19
ATOM     19  C   UNL     1       3.771  -6.964  -1.217  0.00  0.00    +0.039 C 
ATOM     20  C   UNL     1       4.376  -8.113  -2.025  0.00  0.00    +0.010 C 
ATOM     21  C   UNL     1       4.625  -8.024  -0.518  0.00  0.00    +0.010 C 
ENDBRANCH  16  19
ENDBRANCH  10  14
BRANCH   1  23
ATOM     22  C   UNL     1       0.705  -0.483  -1.270  0.00  0.00    +0.010 C 
ATOM     23  C   UNL     1       0.002  -0.004   0.002  0.00  0.00    +0.016 C 
ATOM     24  C   UNL     1       0.102   1.520   0.097  0.00  0.00    +0.010 C 
ENDBRANCH   1  23
TORSDOF 3
