REMARK  Name = ZINC36740762
REMARK  6 active torsions:
REMARK  status: ('A' for Active; 'I' for Inactive)
REMARK    1  A    between atoms: C_1  and  C_2
REMARK    2  A    between atoms: N_11  and  C_15
REMARK    3  A    between atoms: C_15  and  C_16
REMARK    4  A    between atoms: N_18  and  C_19
REMARK    5  A    between atoms: C_20  and  C_28
REMARK    6  A    between atoms: C_28  and  C_30
REMARK                            x       y       z     vdW  Elec       q    Type
REMARK                         _______ _______ _______ _____ _____    ______ ____
ROOT
ATOM      1  C   UNL     1       3.432   2.874   2.237  0.00  0.00    +0.236 C 
ATOM      2  O   UNL     1       2.501   3.242   1.553  0.00  0.00    -0.274 OA
ATOM      3  N   UNL     1       4.452   3.717   2.497  0.00  0.00    -0.278 N 
ATOM      4  H   UNL     1       5.197   3.422   3.045  0.00  0.00    +0.155 HD
ENDROOT
BRANCH   3   5
ATOM      5  C   UNL     1       4.436   5.003   1.983  0.00  0.00    +0.083 A 
ATOM      6  C   UNL     1       5.335   6.032   2.229  0.00  0.00    +0.054 A 
ATOM      7  C   UNL     1       5.093   7.298   1.558  0.00  0.00    -0.024 A 
ATOM      8  C   UNL     1       3.999   7.304   0.767  0.00  0.00    -0.005 A 
ATOM      9  S   UNL     1       3.330   5.673   0.911  0.00  0.00    -0.077 S 
ATOM     10  C   UNL     1       3.486   8.449  -0.050  0.00  0.00    +0.043 C 
ATOM     11  C   UNL     1       4.171   9.734   0.437  0.00  0.00    +0.005 C 
ATOM     12  C   UNL     1       5.678   9.483   0.541  0.00  0.00    +0.005 C 
ATOM     13  C   UNL     1       5.968   8.534   1.707  0.00  0.00    +0.037 C 
BRANCH   6  14
ATOM     14  C   UNL     1       6.478   5.850   3.127  0.00  0.00    +0.196 C 
ATOM     15  O   UNL     1       7.563   5.533   2.675  0.00  0.00    -0.287 OA
BRANCH  14  16
ATOM     16  C   UNL     1       6.314   6.052   4.583  0.00  0.00    +0.022 A 
ATOM     17  C   UNL     1       5.050   6.306   5.117  0.00  0.00    +0.012 A 
ATOM     18  C   UNL     1       4.904   6.493   6.476  0.00  0.00    +0.001 A 
ATOM     19  C   UNL     1       6.007   6.430   7.309  0.00  0.00    +0.000 A 
ATOM     20  C   UNL     1       7.263   6.179   6.785  0.00  0.00    +0.001 A 
ATOM     21  C   UNL     1       7.422   5.984   5.429  0.00  0.00    +0.012 A 
ENDBRANCH  14  16
ENDBRANCH   6  14
ENDBRANCH   3   5
BRANCH   1  22
ATOM     22  C   UNL     1       3.450   1.475   2.797  0.00  0.00    +0.214 C 
BRANCH  22  32
ATOM     23  C   UNL     1      -0.041   1.547   0.028  0.00  0.00    +0.010 C 
ATOM     24  C   UNL     1      -0.022   0.017   0.006  0.00  0.00    +0.018 C 
ATOM     25  C   UNL     1      -1.459  -0.511   0.030  0.00  0.00    +0.006 C 
ATOM     26  C   UNL     1      -1.438  -2.041   0.029  0.00  0.00    +0.000 C 
ATOM     27  C   UNL     1      -0.698  -2.545   1.270  0.00  0.00    +0.003 C 
ATOM     28  C   UNL     1       0.742  -2.024   1.250  0.00  0.00    +0.035 C 
ATOM     29  C   UNL     1       0.731  -0.499   1.227  0.00  0.00    +0.115 C 
ATOM     30  C   UNL     1       2.143   0.039   1.243  0.00  0.00    +0.247 C 
ATOM     31  O   UNL     1       3.007  -0.144   0.412  0.00  0.00    -0.273 OA
ATOM     32  N   UNL     1       2.240   0.766   2.375  0.00  0.00    -0.215 N 
ATOM     33  C   UNL     1       1.093   0.757   3.066  0.00  0.00    +0.310 C 
ATOM     34  O   UNL     1       0.934   1.341   4.120  0.00  0.00    -0.252 OA
ATOM     35  N   UNL     1       0.134   0.030   2.461  0.00  0.00    -0.285 N 
ATOM     36  H   UNL     1      -0.771  -0.116   2.777  0.00  0.00    +0.151 HD
ENDBRANCH  22  32
ENDBRANCH   1  22
TORSDOF 5
