REMARK  Name = ZINC20650473
REMARK  7 active torsions:
REMARK  status: ('A' for Active; 'I' for Inactive)
REMARK    1  A    between atoms: C_3  and  O_33
REMARK    2  A    between atoms: C_4  and  C_23
REMARK    3  A    between atoms: C_10  and  C_11
REMARK    4  A    between atoms: C_23  and  N_24
REMARK    5  A    between atoms: N_27  and  C_30
REMARK    6  A    between atoms: C_30  and  C_31
REMARK    7  A    between atoms: C_31  and  O_32
REMARK                            x       y       z     vdW  Elec       q    Type
REMARK                         _______ _______ _______ _____ _____    ______ ____
ROOT
ATOM      1  C   UNL     1       2.690   7.353   4.996  0.00  0.00    +0.019 A 
ATOM      2  C   UNL     1       2.388   7.233   3.669  0.00  0.00    +0.046 A 
ATOM      3  C   UNL     1       2.516   6.002   3.031  0.00  0.00    +0.122 A 
ATOM      4  C   UNL     1       2.938   4.885   3.733  0.00  0.00    +0.020 A 
ATOM      5  C   UNL     1       3.250   4.990   5.083  0.00  0.00    +0.144 A 
ATOM      6  C   UNL     1       3.123   6.238   5.714  0.00  0.00    +0.068 A 
ATOM      7  C   UNL     1       3.518   6.035   7.120  0.00  0.00    +0.231 C 
ATOM      8  O   UNL     1       3.551   6.865   8.013  0.00  0.00    -0.283 OA
ATOM      9  C   UNL     1       3.864   4.609   7.204  0.00  0.00    +0.176 C 
ATOM     10  C   UNL     1       4.289   3.951   8.312  0.00  0.00    +0.061 C 
ATOM     11  O   UNL     1       3.680   4.071   5.975  0.00  0.00    -0.451 OA
ENDROOT
BRANCH  10  12
ATOM     12  C   UNL     1       4.725   2.553   8.213  0.00  0.00    +0.022 A 
ATOM     13  C   UNL     1       5.038   2.000   6.966  0.00  0.00    +0.031 A 
ATOM     14  C   UNL     1       5.451   0.687   6.883  0.00  0.00    +0.042 A 
ATOM     15  C   UNL     1       5.545  -0.090   8.027  0.00  0.00    +0.029 A 
ATOM     16  C   UNL     1       5.233   0.442   9.265  0.00  0.00    +0.022 A 
ATOM     17  C   UNL     1       4.824   1.760   9.370  0.00  0.00    +0.136 A 
ATOM     18  O   UNL     1       4.522   2.297  10.579  0.00  0.00    -0.465 OA
ATOM     19  C   UNL     1       4.288   1.381  11.653  0.00  0.00    +0.395 C 
ATOM     20  O   UNL     1       5.340   0.408  11.660  0.00  0.00    -0.339 OA
ATOM     21  C   UNL     1       5.340  -0.424  10.496  0.00  0.00    +0.202 C 
ATOM     22 CL   UNL     1       5.847   0.002   5.338  0.00  0.00    -0.084 Cl
ENDBRANCH  10  12
BRANCH   3  23
ATOM     23  O   UNL     1       2.218   5.894   1.711  0.00  0.00    -0.506 OA
ATOM     24  H   UNL     1       2.318   4.924   1.202  0.00  0.00    +0.292 HD
ENDBRANCH   3  23
BRANCH   4  25
ATOM     25  C   UNL     1       3.066   3.558   3.032  0.00  0.00    -0.035 C 
BRANCH  25  26
ATOM     26  N   UNL     1       1.794   2.828   3.130  0.00  0.00    +0.384 N 
ATOM     27  C   UNL     1       0.734   3.515   2.381  0.00  0.00    -0.063 C 
ATOM     28  C   UNL     1      -0.589   2.769   2.573  0.00  0.00    +0.066 C 
ATOM     29  N   UNL     1      -0.437   1.382   2.112  0.00  0.00    -0.304 NA
ATOM     30  C   UNL     1       0.624   0.694   2.861  0.00  0.00    +0.066 C 
ATOM     31  C   UNL     1       1.947   1.441   2.669  0.00  0.00    -0.063 C 
ATOM     32  H   UNL     1       1.501   2.804   4.190  0.00  0.00    -0.081 HD
BRANCH  29  33
ATOM     33  C   UNL     1      -1.708   0.652   2.210  0.00  0.00    +0.112 C 
BRANCH  33  34
ATOM     34  C   UNL     1      -2.644   1.105   1.088  0.00  0.00    +0.171 C 
BRANCH  34  35
ATOM     35  O   UNL     1      -2.098   0.716  -0.174  0.00  0.00    -0.394 OA
ATOM     36  H   UNL     1      -2.635   0.957  -1.103  0.00  0.00    +0.209 HD
ENDBRANCH  34  35
ENDBRANCH  33  34
ENDBRANCH  29  33
ENDBRANCH  25  26
ENDBRANCH   4  25
TORSDOF 7
