REMARK  Name = ZINC34734524
REMARK  9 active torsions:
REMARK  status: ('A' for Active; 'I' for Inactive)
REMARK    1  A    between atoms: C_1  and  C_2
REMARK    2  A    between atoms: C_2  and  N_3
REMARK    3  A    between atoms: N_3  and  C_4
REMARK    4  A    between atoms: C_4  and  C_5
REMARK    5  A    between atoms: C_6  and  C_8
REMARK    6  A    between atoms: C_8  and  N_9
REMARK    7  A    between atoms: N_22  and  C_25
REMARK    8  A    between atoms: C_28  and  C_30
REMARK    9  A    between atoms: C_28  and  C_31
REMARK                            x       y       z     vdW  Elec       q    Type
REMARK                         _______ _______ _______ _____ _____    ______ ____
ROOT
ATOM      1  N   UNL     1      -3.949  -1.472   2.550  0.00  0.00    -0.271 N 
ATOM      2  C   UNL     1      -3.834  -2.680   3.130  0.00  0.00    +0.264 A 
ATOM      3  O   UNL     1      -3.447  -3.641   2.486  0.00  0.00    -0.267 OA
ATOM      4  C   UNL     1      -4.170  -2.823   4.514  0.00  0.00    +0.076 A 
ATOM      5  C   UNL     1      -4.123  -4.026   5.342  0.00  0.00    -0.018 A 
ATOM      6  C   UNL     1      -4.495  -3.898   6.634  0.00  0.00    +0.021 A 
ATOM      7  S   UNL     1      -4.924  -2.191   6.822  0.00  0.00    -0.071 S 
ATOM      8  C   UNL     1      -4.603  -1.652   5.161  0.00  0.00    +0.118 A 
ATOM      9  N   UNL     1      -4.694  -0.488   4.528  0.00  0.00    -0.208 NA
ATOM     10  C   UNL     1      -4.373  -0.385   3.255  0.00  0.00    +0.202 A 
ATOM     11  N   UNL     1      -4.472   0.833   2.629  0.00  0.00    -0.304 N 
ATOM     12  C   UNL     1      -5.719   1.243   1.966  0.00  0.00    +0.089 C 
ATOM     13  C   UNL     1      -6.094   2.644   2.461  0.00  0.00    -0.060 C 
ATOM     14  N   UNL     1      -4.964   3.557   2.244  0.00  0.00    +0.380 N 
ATOM     15  C   UNL     1      -3.820   3.140   3.066  0.00  0.00    -0.060 C 
ATOM     16  C   UNL     1      -3.335   1.766   2.606  0.00  0.00    +0.089 C 
ATOM     17  C   UNL     1      -5.360   4.921   2.616  0.00  0.00    -0.096 C 
ATOM     18  C   UNL     1      -4.528  -4.989   7.659  0.00  0.00    +0.203 C 
ATOM     19  O   UNL     1      -4.407  -6.245   6.971  0.00  0.00    -0.368 OA
ATOM     20  C   UNL     1      -3.339  -6.273   6.021  0.00  0.00    +0.068 C 
ATOM     21  C   UNL     1      -3.679  -5.389   4.818  0.00  0.00    +0.071 C 
ATOM     22  C   UNL     1      -2.058  -5.758   6.681  0.00  0.00    +0.041 C 
ATOM     23  C   UNL     1      -3.119  -7.711   5.548  0.00  0.00    +0.041 C 
ATOM     24  H   UNL     1      -4.701   3.539   1.270  0.00  0.00    -0.082 HD
ENDROOT
BRANCH   1  25
ATOM     25  C   UNL     1      -3.606  -1.320   1.133  0.00  0.00    +0.224 C 
BRANCH  25  27
ATOM     26  N   UNL     1      -1.576  -0.921  -0.223  0.00  0.00    -0.301 N 
ATOM     27  C   UNL     1      -2.123  -1.089   0.998  0.00  0.00    +0.236 C 
ATOM     28  O   UNL     1      -1.421  -1.055   1.986  0.00  0.00    -0.274 OA
BRANCH  26  30
ATOM     29  C   UNL     1       0.155   0.805  -0.300  0.00  0.00    +0.024 C 
ATOM     30  C   UNL     1      -0.135  -0.697  -0.355  0.00  0.00    +0.104 C 
ENDBRANCH  26  30
BRANCH  26  31
ATOM     31  C   UNL     1      -2.424  -0.962  -1.417  0.00  0.00    +0.104 C 
ATOM     32  C   UNL     1      -2.506  -2.400  -1.934  0.00  0.00    +0.024 C 
ENDBRANCH  26  31
ENDBRANCH  25  27
ENDBRANCH   1  25
TORSDOF 4
