REMARK  Name = ZINC04694179
REMARK  3 active torsions:
REMARK  status: ('A' for Active; 'I' for Inactive)
REMARK    1  A    between atoms: C_3  and  C_8
REMARK    2  A    between atoms: C_10  and  C_21
REMARK    3  A    between atoms: C_11  and  C_19
REMARK                            x       y       z     vdW  Elec       q    Type
REMARK                         _______ _______ _______ _____ _____    ______ ____
ROOT
ATOM      1  C   UNL     1       0.002  -0.004   0.002  0.00  0.00    +0.077 C 
ATOM      2  C   UNL     1       1.261   0.864   0.029  0.00  0.00    +0.144 C 
ATOM      3  C   UNL     1      -0.134   1.520  -0.028  0.00  0.00    +0.165 C 
ATOM      4  C   UNL     1      -0.210   2.277   1.304  0.00  0.00    +0.274 C 
ATOM      5  C   UNL     1       1.840   1.274   1.360  0.00  0.00    +0.092 C 
ATOM      6  N   UNL     1       3.075   0.890   1.812  0.00  0.00    -0.347 N 
ATOM      7  O   UNL     1      -1.347   1.843   2.066  0.00  0.00    -0.328 OA
ATOM      8  C   UNL     1      -1.614   2.935   2.973  0.00  0.00    +0.193 C 
ATOM      9  C   UNL     1      -0.982   4.173   2.304  0.00  0.00    +0.193 C 
ATOM     10  O   UNL     1      -0.409   3.681   1.074  0.00  0.00    -0.328 OA
ATOM     11  H   UNL     1       3.636   0.318   1.265  0.00  0.00    +0.143 HD
ATOM     12  H   UNL     1       3.388   1.190   2.680  0.00  0.00    +0.143 HD
ATOM     13  N   UNL     1       1.039   2.035   2.036  0.00  0.00    -0.324 N 
ATOM     14  H   UNL     1       1.251   2.420   2.964  0.00  0.00    +0.166 HD
ENDROOT
BRANCH   1  17
ATOM     15  C   UNL     1       0.246  -1.763   3.334  0.00  0.00    +0.001 A 
ATOM     16  C   UNL     1       0.598  -1.119   2.162  0.00  0.00    +0.004 A 
ATOM     17  C   UNL     1      -0.382  -0.711   1.276  0.00  0.00    -0.039 A 
ATOM     18  C   UNL     1      -1.713  -0.956   1.557  0.00  0.00    +0.019 A 
ATOM     19  C   UNL     1      -2.065  -1.605   2.726  0.00  0.00    +0.018 A 
ATOM     20  C   UNL     1      -1.085  -2.009   3.615  0.00  0.00    +0.015 A 
ATOM     21 BR   UNL     1      -3.886  -1.942   3.109  0.00  0.00    -0.050 Br
ENDBRANCH   1  17
BRANCH   3  22
ATOM     22  C   UNL     1      -0.647   2.185  -1.236  0.00  0.00    +0.079 C 
ATOM     23  N   UNL     1      -1.043   2.699  -2.169  0.00  0.00    -0.196 NA
ENDBRANCH   3  22
BRANCH   2  24
ATOM     24  C   UNL     1       2.158   0.868  -1.139  0.00  0.00    +0.079 C 
ATOM     25  N   UNL     1       2.849   0.871  -2.039  0.00  0.00    -0.195 NA
ENDBRANCH   2  24
TORSDOF 3
