REMARK  Name = ZINC09065100
REMARK  12 active torsions:
REMARK  status: ('A' for Active; 'I' for Inactive)
REMARK    1  A    between atoms: C_1  and  C_2
REMARK    2  A    between atoms: C_2  and  N_63
REMARK    3  A    between atoms: C_3  and  C_4
REMARK    4  A    between atoms: C_3  and  N_63
REMARK    5  A    between atoms: C_5  and  C_6
REMARK    6  A    between atoms: C_5  and  N_63
REMARK    7  A    between atoms: C_6  and  C_7
REMARK    8  A    between atoms: C_7  and  N_8
REMARK    9  A    between atoms: C_9  and  C_28
REMARK   10  A    between atoms: C_12  and  C_13
REMARK   11  A    between atoms: C_12  and  O_23
REMARK   12  A    between atoms: C_14  and  C_22
REMARK                            x       y       z     vdW  Elec       q    Type
REMARK                         _______ _______ _______ _____ _____    ______ ____
ROOT
ATOM      1  N   UNL     1       0.373   4.387  -0.385  0.00  0.00    -0.284 N 
ATOM      2  C   UNL     1       0.117   2.957  -0.190  0.00  0.00    +0.145 C 
ATOM      3  C   UNL     1       1.431   2.249  -0.423  0.00  0.00    +0.073 C 
ATOM      4  C   UNL     1       1.667   0.879  -0.345  0.00  0.00    +0.151 C 
ATOM      5  C   UNL     1       2.358   3.241  -0.740  0.00  0.00    +0.249 C 
ATOM      6  O   UNL     1       3.537   3.060  -0.999  0.00  0.00    -0.282 OA
ATOM      7  C   UNL     1       1.667   4.555  -0.707  0.00  0.00    +0.288 C 
ATOM      8  O   UNL     1       2.194   5.624  -0.937  0.00  0.00    -0.266 OA
ENDROOT
BRANCH   4   9
ATOM      9  C   UNL     1       2.957   0.371  -0.599  0.00  0.00    +0.111 A 
ATOM     10  C   UNL     1       3.606   0.318  -1.829  0.00  0.00    +0.068 A 
ATOM     11  N   UNL     1       4.796  -0.224  -1.644  0.00  0.00    -0.232 NA
ATOM     12  C   UNL     1       4.957  -0.538  -0.358  0.00  0.00    +0.138 A 
ATOM     13  N   UNL     1       3.828  -0.181   0.324  0.00  0.00    -0.297 N 
ATOM     14  C   UNL     1       3.731  -0.394   1.663  0.00  0.00    +0.093 A 
ATOM     15  C   UNL     1       4.750  -0.964   2.347  0.00  0.00    +0.018 A 
ATOM     16  C   UNL     1       5.921  -1.342   1.677  0.00  0.00    +0.005 A 
ATOM     17  C   UNL     1       6.026  -1.132   0.334  0.00  0.00    +0.047 A 
ATOM     18  C   UNL     1       3.049   0.800  -3.144  0.00  0.00    +0.068 C 
ENDBRANCH   4   9
BRANCH   2  19
ATOM     19  C   UNL     1      -0.360   2.708   1.218  0.00  0.00    -0.022 A 
ATOM     20  C   UNL     1       0.196   3.411   2.270  0.00  0.00    +0.008 A 
ATOM     21  C   UNL     1      -0.244   3.188   3.561  0.00  0.00    +0.038 A 
ATOM     22  C   UNL     1      -1.236   2.252   3.801  0.00  0.00    +0.123 A 
ATOM     23  C   UNL     1      -1.789   1.545   2.747  0.00  0.00    +0.038 A 
ATOM     24  C   UNL     1      -1.351   1.774   1.457  0.00  0.00    +0.008 A 
ATOM     25  F   UNL     1      -1.664   2.029   5.063  0.00  0.00    -0.205 F 
ENDBRANCH   2  19
BRANCH   4  26
ATOM     26  O   UNL     1       0.659   0.036  -0.024  0.00  0.00    -0.504 OA
ATOM     27  H   UNL     1       1.002  -0.903  -0.013  0.00  0.00    +0.292 HD
ENDBRANCH   4  26
BRANCH   1  28
ATOM     28  C   UNL     1      -0.620   5.457  -0.258  0.00  0.00    +0.107 C 
BRANCH  28  29
ATOM     29  C   UNL     1      -1.294   5.691  -1.611  0.00  0.00    +0.000 C 
BRANCH  29  30
ATOM     30  C   UNL     1      -2.331   6.808  -1.478  0.00  0.00    -0.077 C 
BRANCH  30  31
ATOM     31  N   UNL     1      -2.958   7.037  -2.796  0.00  0.00    +0.379 N 
ATOM     32  H   UNL     1      -2.220   7.172  -3.498  0.00  0.00    -0.082 HD
BRANCH  31  34
ATOM     33  C   UNL     1      -4.871   5.615  -2.142  0.00  0.00    -0.017 C 
ATOM     34  C   UNL     1      -3.773   5.865  -3.178  0.00  0.00    -0.082 C 
ENDBRANCH  31  34
BRANCH  31  35
ATOM     35  C   UNL     1      -3.804   8.248  -2.751  0.00  0.00    -0.082 C 
ATOM     36  C   UNL     1      -4.139   8.668  -4.183  0.00  0.00    -0.017 C 
ENDBRANCH  31  35
ENDBRANCH  30  31
ENDBRANCH  29  30
ENDBRANCH  28  29
ENDBRANCH   1  28
TORSDOF 9
