REMARK  Name = ZINC39226196
REMARK  9 active torsions:
REMARK  status: ('A' for Active; 'I' for Inactive)
REMARK    1  A    between atoms: C_1  and  N_2
REMARK    2  A    between atoms: C_9  and  O_38
REMARK    3  A    between atoms: C_13  and  C_18
REMARK    4  A    between atoms: C_21  and  C_24
REMARK    5  A    between atoms: N_26  and  CA_27
REMARK    6  A    between atoms: CA_27  and  CB_29
REMARK    7  A    between atoms: CA_27  and  C_36
REMARK    8  A    between atoms: CB_29  and  CG_30
REMARK    9  A    between atoms: C_36  and  O_37
REMARK                            x       y       z     vdW  Elec       q    Type
REMARK                         _______ _______ _______ _____ _____    ______ ____
ROOT
ATOM      1  C   UNK A   0       6.240  -4.717   3.540  0.00  0.00    -0.018 A 
ATOM      2  C   UNK A   0       5.871  -5.897   4.187  0.00  0.00    +0.009 A 
ATOM      3  C   UNK A   0       6.743  -6.505   5.061  0.00  0.00    +0.013 A 
ATOM      4  C   UNK A   0       7.998  -5.940   5.301  0.00  0.00    +0.037 A 
ATOM      5  C   UNK A   0       8.367  -4.759   4.652  0.00  0.00    +0.013 A 
ATOM      6  C   UNK A   0       7.496  -4.155   3.774  0.00  0.00    +0.009 A 
ENDROOT
BRANCH   1  18
ATOM      7  C   UNK A   0      -0.018   1.465   0.010  0.00  0.00    -0.096 C 
ATOM      8  N   UNK A   0       0.002  -0.004   0.002  0.00  0.00    +0.378 N 
ATOM      9  C   UNK A   0       0.681  -0.476  -1.211  0.00  0.00    -0.075 C 
ATOM     10  C   UNK A   0       0.631  -2.005  -1.265  0.00  0.00    +0.029 C 
ATOM     11  C   UNK A   0       1.327  -2.578  -0.029  0.00  0.00    +0.110 C 
ATOM     12  C   UNK A   0       0.664  -2.018   1.231  0.00  0.00    +0.029 C 
ATOM     13  C   UNK A   0       0.712  -0.489   1.192  0.00  0.00    -0.075 C 
ATOM     14  C   UNK A   0       1.207  -4.105  -0.037  0.00  0.00    +0.084 C 
ATOM     15  C   UNK A   0       1.817  -4.644   1.259  0.00  0.00    +0.152 C 
ATOM     16  C   UNK A   0       3.168  -4.013   1.485  0.00  0.00    +0.023 A 
ATOM     17  C   UNK A   0       4.046  -4.621   2.363  0.00  0.00    +0.018 A 
ATOM     18  C   UNK A   0       5.300  -4.063   2.599  0.00  0.00    -0.017 A 
ATOM     19  C   UNK A   0       5.667  -2.886   1.947  0.00  0.00    +0.012 A 
ATOM     20  C   UNK A   0       4.790  -2.286   1.072  0.00  0.00    +0.046 A 
ATOM     21  C   UNK A   0       3.537  -2.847   0.834  0.00  0.00    +0.127 A 
ATOM     22  O   UNK A   0       2.709  -2.227  -0.046  0.00  0.00    -0.485 OA
ATOM     23  H   UNK A   0      -0.945  -0.352   0.012  0.00  0.00    -0.082 HD
BRANCH  15  24
ATOM     24  O   UNK A   0       1.967  -6.062   1.161  0.00  0.00    -0.387 OA
ATOM     25  H   UNK A   0       2.349  -6.473   1.948  0.00  0.00    +0.210 HD
ENDBRANCH  15  24
ENDBRANCH   1  18
BRANCH   4  26
ATOM     26  C   UNK A   0       8.935  -6.591   6.239  0.00  0.00    +0.244 C 
ATOM     27  O   UNK A   0       8.613  -7.619   6.804  0.00  0.00    -0.270 OA
ATOM     28  N   PHE A   1      10.146  -6.046   6.470  0.00  0.00    -0.306 N 
ATOM     29  H   PHE A   1      10.402  -5.226   6.019  0.00  0.00    +0.149 HD
BRANCH  28  30
ATOM     30  CA  PHE A   1      11.074  -6.692   7.401  0.00  0.00    +0.103 C 
BRANCH  30  31
ATOM     31  CB  PHE A   1      12.509  -6.299   7.044  0.00  0.00    +0.059 C 
BRANCH  31  32
ATOM     32  CG  PHE A   1      12.858  -6.850   5.686  0.00  0.00    -0.046 A 
ATOM     33  CD2 PHE A   1      13.416  -8.110   5.574  0.00  0.00    +0.004 A 
ATOM     34  CE2 PHE A   1      13.736  -8.616   4.328  0.00  0.00    +0.000 A 
ATOM     35  CZ  PHE A   1      13.499  -7.862   3.194  0.00  0.00    +0.000 A 
ATOM     36  CE1 PHE A   1      12.941  -6.602   3.306  0.00  0.00    +0.000 A 
ATOM     37  CD1 PHE A   1      12.616  -6.098   4.551  0.00  0.00    +0.004 A 
ENDBRANCH  31  32
ENDBRANCH  30  31
BRANCH  30  38
ATOM     38  C   PHE A   1      10.761  -6.240   8.829  0.00  0.00    +0.178 C 
BRANCH  38  39
ATOM     39  O   PHE A   1      11.016  -4.839   8.952  0.00  0.00    -0.393 OA
ATOM     40  H   PHE A   1      10.839  -4.483   9.833  0.00  0.00    +0.209 HD
ENDBRANCH  38  39
ENDBRANCH  30  38
ENDBRANCH  28  30
ENDBRANCH   4  26
TORSDOF 8
