REMARK  Name = ZINC39653749
REMARK  9 active torsions:
REMARK  status: ('A' for Active; 'I' for Inactive)
REMARK    1  A    between atoms: C_1  and  C_2
REMARK    2  A    between atoms: C_2  and  O_3
REMARK    3  A    between atoms: O_3  and  C_4
REMARK    4  A    between atoms: C_7  and  C_10
REMARK    5  A    between atoms: C_10  and  C_11
REMARK    6  A    between atoms: C_11  and  N_12
REMARK    7  A    between atoms: C_13  and  C_15
REMARK    8  A    between atoms: C_26  and  C_28
REMARK    9  A    between atoms: C_31  and  C_35
REMARK                            x       y       z     vdW  Elec       q    Type
REMARK                         _______ _______ _______ _____ _____    ______ ____
ROOT
ATOM      1  C   UNL     1      -1.210  -9.705  -3.649  0.00  0.00    +0.100 C 
ATOM      2  C   UNL     1      -0.909 -10.489  -2.352  0.00  0.00    +0.121 C 
ATOM      3  N   UNL     1      -2.206 -11.099  -1.974  0.00  0.00    -0.296 N 
ATOM      4  C   UNL     1      -2.804 -11.523  -3.263  0.00  0.00    +0.115 C 
ATOM      5  C   UNL     1      -2.451 -10.389  -4.246  0.00  0.00    -0.004 C 
ATOM      6  C   UNL     1      -3.607  -9.397  -4.340  0.00  0.00    -0.010 C 
ATOM      7  C   UNL     1      -4.812 -10.084  -4.989  0.00  0.00    -0.082 C 
ATOM      8  N   UNL     1      -4.442 -10.565  -6.325  0.00  0.00    +0.379 N 
ATOM      9  C   UNL     1      -3.394 -11.587  -6.218  0.00  0.00    -0.082 C 
ATOM     10  C   UNL     1      -2.129 -10.963  -5.622  0.00  0.00    -0.010 C 
ATOM     11  C   UNL     1      -2.726 -11.236  -0.738  0.00  0.00    +0.249 C 
ATOM     12  O   UNL     1      -3.766 -11.846  -0.580  0.00  0.00    -0.270 OA
ATOM     13  H   UNL     1      -5.253 -10.963  -6.774  0.00  0.00    -0.086 HD
ATOM     14  H   UNL     1      -4.101  -9.792  -6.877  0.00  0.00    -0.086 HD
ENDROOT
BRANCH  11  15
ATOM     15  C   UNL     1      -2.031 -10.646   0.424  0.00  0.00    +0.072 A 
ATOM     16  C   UNL     1      -0.636 -10.608   0.463  0.00  0.00    +0.016 A 
ATOM     17  C   UNL     1       0.006 -10.055   1.550  0.00  0.00    +0.013 A 
ATOM     18  C   UNL     1      -0.728  -9.539   2.605  0.00  0.00    +0.058 A 
ATOM     19  C   UNL     1      -2.110  -9.573   2.576  0.00  0.00    +0.051 A 
ATOM     20  C   UNL     1      -2.768 -10.118   1.489  0.00  0.00    +0.136 A 
ATOM     21  F   UNL     1      -4.118 -10.146   1.458  0.00  0.00    -0.205 F 
BRANCH  18  22
ATOM     22  C   UNL     1      -0.017  -8.938   3.790  0.00  0.00    +0.418 C 
ATOM     23  F   UNL     1       0.186  -7.572   3.567  0.00  0.00    -0.166 F 
ATOM     24  F   UNL     1      -0.796  -9.112   4.939  0.00  0.00    -0.166 F 
ATOM     25  F   UNL     1       1.218  -9.571   3.963  0.00  0.00    -0.166 F 
ENDBRANCH  18  22
ENDBRANCH  11  15
BRANCH   1  27
ATOM     26  N   UNL     1      -1.257  -7.306  -4.249  0.00  0.00    -0.315 N 
ATOM     27  C   UNL     1      -1.507  -8.262  -3.333  0.00  0.00    +0.218 C 
ATOM     28  O   UNL     1      -1.970  -7.961  -2.253  0.00  0.00    -0.275 OA
ATOM     29  H   UNL     1      -0.886  -7.546  -5.112  0.00  0.00    +0.149 HD
BRANCH  26  30
ATOM     30  C   UNL     1      -1.545  -5.903  -3.941  0.00  0.00    +0.109 C 
BRANCH  30  31
ATOM     31  C   UNL     1      -1.173  -5.030  -5.141  0.00  0.00    +0.054 C 
BRANCH  31  35
ATOM     32  C   UNL     1      -2.014  -0.938  -4.244  0.00  0.00    +0.121 A 
ATOM     33  C   UNL     1      -0.768  -1.471  -3.950  0.00  0.00    +0.046 A 
ATOM     34  C   UNL     1      -0.499  -2.795  -4.241  0.00  0.00    +0.007 A 
ATOM     35  C   UNL     1      -1.470  -3.587  -4.825  0.00  0.00    -0.046 A 
ATOM     36  C   UNL     1      -2.712  -3.057  -5.119  0.00  0.00    +0.007 A 
ATOM     37  C   UNL     1      -2.989  -1.736  -4.825  0.00  0.00    +0.046 A 
BRANCH  32  38
ATOM     38  O   UNL     1      -2.282   0.364  -3.959  0.00  0.00    -0.492 OA
BRANCH  38  40
ATOM     39  C   UNL     1      -1.716   2.557  -3.115  0.00  0.00    +0.048 C 
ATOM     40  C   UNL     1      -1.232   1.126  -3.361  0.00  0.00    +0.225 C 
ENDBRANCH  38  40
ENDBRANCH  32  38
ENDBRANCH  31  35
ENDBRANCH  30  31
ENDBRANCH  26  30
ENDBRANCH   1  27
TORSDOF 8
