REMARK  Name = ZINC13065474
REMARK  11 active torsions:
REMARK  status: ('A' for Active; 'I' for Inactive)
REMARK    1  A    between atoms: C_1  and  C_2
REMARK    2  A    between atoms: C_5  and  C_8
REMARK    3  A    between atoms: C_8  and  N_67
REMARK    4  A    between atoms: C_9  and  C_10
REMARK    5  A    between atoms: C_9  and  N_67
REMARK    6  A    between atoms: C_14  and  C_23
REMARK    7  A    between atoms: C_16  and  C_22
REMARK    8  A    between atoms: C_24  and  C_25
REMARK    9  A    between atoms: C_24  and  N_67
REMARK   10  A    between atoms: N_29  and  C_30
REMARK   11  A    between atoms: C_30  and  C_31
REMARK                            x       y       z     vdW  Elec       q    Type
REMARK                         _______ _______ _______ _____ _____    ______ ____
ROOT
ATOM      1  N   UNL     1       5.440   0.932  -1.497  0.00  0.00    +0.390 N 
ATOM      2  H   UNL     1       5.638   1.817  -1.979  0.00  0.00    -0.080 HD
ENDROOT
BRANCH   1   3
ATOM      3  C   UNL     1       4.247   0.309  -2.109  0.00  0.00    -0.042 C 
BRANCH   3   8
ATOM      4  C   UNL     1       4.728   0.639  -7.859  0.00  0.00    +0.044 C 
ATOM      5  C   UNL     1       4.602   0.552  -6.359  0.00  0.00    -0.050 A 
ATOM      6  C   UNL     1       4.942  -0.616  -5.703  0.00  0.00    +0.003 A 
ATOM      7  C   UNL     1       4.828  -0.695  -4.328  0.00  0.00    +0.002 A 
ATOM      8  C   UNL     1       4.373   0.395  -3.609  0.00  0.00    -0.064 A 
ATOM      9  C   UNL     1       4.027   1.561  -4.265  0.00  0.00    +0.002 A 
ATOM     10  C   UNL     1       4.146   1.641  -5.640  0.00  0.00    +0.003 A 
ENDBRANCH   3   8
ENDBRANCH   1   3
BRANCH   1  11
ATOM     11  C   UNL     1       5.187   1.210  -0.068  0.00  0.00    -0.036 C 
BRANCH  11  12
ATOM     12  C   UNL     1       4.223   2.363   0.038  0.00  0.00    +0.001 A 
ATOM     13  C   UNL     1       2.906   2.125   0.262  0.00  0.00    +0.017 A 
ATOM     14  C   UNL     1       1.996   3.268   0.359  0.00  0.00    -0.001 A 
ATOM     15  C   UNL     1       0.628   3.085   0.587  0.00  0.00    +0.013 A 
ATOM     16  C   UNL     1      -0.196   4.171   0.667  0.00  0.00    -0.050 A 
ATOM     17  C   UNL     1       0.314   5.456   0.536  0.00  0.00    +0.008 A 
ATOM     18  C   UNL     1       1.658   5.660   0.310  0.00  0.00    -0.026 A 
ATOM     19  C   UNL     1       2.515   4.568   0.219  0.00  0.00    +0.052 A 
ATOM     20  N   UNL     1       3.864   4.743  -0.006  0.00  0.00    -0.322 N 
ATOM     21  H   UNL     1       4.221   5.639  -0.103  0.00  0.00    +0.169 HD
ATOM     22  C   UNL     1       4.693   3.687  -0.095  0.00  0.00    +0.251 A 
ATOM     23  O   UNL     1       5.880   3.879  -0.295  0.00  0.00    -0.268 OA
ATOM     24  C   UNL     1       2.197   7.059   0.163  0.00  0.00    +0.046 C 
ATOM     25  C   UNL     1      -1.671   3.974   0.906  0.00  0.00    +0.044 C 
ENDBRANCH  11  12
ENDBRANCH   1  11
BRANCH   1  26
ATOM     26  C   UNL     1       6.607   0.036  -1.639  0.00  0.00    +0.001 C 
BRANCH  26  27
ATOM     27  C   UNL     1       7.158   0.180  -3.034  0.00  0.00    +0.135 A 
ATOM     28  N   UNL     1       6.907   1.150  -3.879  0.00  0.00    -0.115 NA
ATOM     29  N   UNL     1       7.564   0.915  -4.962  0.00  0.00    -0.023 NA
ATOM     30  N   UNL     1       8.229  -0.179  -4.829  0.00  0.00    -0.044 NA
ATOM     31  N   UNL     1       8.009  -0.660  -3.652  0.00  0.00    -0.229 N 
BRANCH  31  32
ATOM     32  C   UNL     1       8.577  -1.890  -3.095  0.00  0.00    +0.178 C 
BRANCH  32  33
ATOM     33  C   UNL     1       7.637  -3.062  -3.385  0.00  0.00    +0.140 C 
ATOM     34  C   UNL     1       8.195  -4.366  -2.761  0.00  0.00    +0.035 C 
ATOM     35  C   UNL     1       6.889  -5.192  -2.591  0.00  0.00    +0.031 C 
ATOM     36  C   UNL     1       5.848  -4.099  -2.270  0.00  0.00    +0.160 C 
ATOM     37  O   UNL     1       6.367  -2.852  -2.748  0.00  0.00    -0.375 OA
ENDBRANCH  32  33
ENDBRANCH  31  32
ENDBRANCH  26  27
ENDBRANCH   1  26
TORSDOF 8
