REMARK  Name = ZINC43741667
REMARK  8 active torsions:
REMARK  status: ('A' for Active; 'I' for Inactive)
REMARK    1  A    between atoms: C_1  and  C_2
REMARK    2  A    between atoms: C_5  and  C_37
REMARK    3  A    between atoms: C_6  and  N_8
REMARK    4  A    between atoms: N_11  and  C_14
REMARK    5  A    between atoms: C_14  and  C_15
REMARK    6  A    between atoms: C_26  and  C_33
REMARK    7  A    between atoms: C_28  and  C_32
REMARK    8  A    between atoms: C_29  and  O_31
REMARK                            x       y       z     vdW  Elec       q    Type
REMARK                         _______ _______ _______ _____ _____    ______ ____
ROOT
ATOM      1  C   UNL     1      -0.935  -6.543   5.697  0.00  0.00    +0.121 C 
ATOM      2  C   UNL     1      -0.804  -7.950   6.359  0.00  0.00    +0.074 C 
ATOM      3  C   UNL     1      -1.876  -8.704   5.548  0.00  0.00    +0.187 C 
ATOM      4  C   UNL     1      -2.335  -9.990   6.187  0.00  0.00    +0.076 C 
ATOM      5  C   UNL     1      -2.625  -9.785   7.661  0.00  0.00    -0.061 C 
ATOM      6  C   UNL     1      -3.756 -10.206   8.142  0.00  0.00    -0.027 C 
ATOM      7  C   UNL     1      -4.129 -10.056   9.591  0.00  0.00    +0.027 C 
ATOM      8  C   UNL     1      -2.844 -10.023  10.425  0.00  0.00    +0.008 C 
ATOM      9  C   UNL     1      -1.971  -8.876   9.918  0.00  0.00    -0.001 C 
ATOM     10  C   UNL     1      -1.561  -9.099   8.472  0.00  0.00    +0.018 C 
ATOM     11  C   UNL     1      -1.219  -7.769   7.820  0.00  0.00    +0.132 C 
ATOM     12  C   UNL     1      -0.292  -9.954   8.445  0.00  0.00    +0.018 C 
ATOM     13  C   UNL     1      -0.715  -8.780  10.786  0.00  0.00    +0.008 C 
ATOM     14  O   UNL     1      -2.920  -7.740   5.384  0.00  0.00    -0.460 OA
ATOM     15  C   UNL     1      -2.330  -6.553   5.098  0.00  0.00    +0.312 C 
ATOM     16  O   UNL     1      -2.831  -5.651   4.469  0.00  0.00    -0.250 OA
ENDROOT
BRANCH  11  17
ATOM     17  O   UNL     1      -0.160  -7.127   8.532  0.00  0.00    -0.391 OA
ATOM     18  H   UNL     1       0.073  -6.254   8.188  0.00  0.00    +0.210 HD
ENDBRANCH  11  17
BRANCH   1  19
ATOM     19  C   UNL     1       0.119  -6.362   4.603  0.00  0.00    +0.099 C 
BRANCH  19  23
ATOM     20  N   UNL     1       0.654  -2.563   2.902  0.00  0.00    -0.327 N 
ATOM     21  C   UNL     1       0.170  -2.611   4.290  0.00  0.00    +0.120 C 
ATOM     22  C   UNL     1       0.505  -3.988   4.875  0.00  0.00    +0.103 C 
ATOM     23  N   UNL     1      -0.030  -5.034   3.994  0.00  0.00    -0.299 NA
ATOM     24  C   UNL     1       0.602  -4.989   2.668  0.00  0.00    +0.103 C 
ATOM     25  C   UNL     1       0.265  -3.650   1.992  0.00  0.00    +0.120 C 
BRANCH  20  31
ATOM     26  C   UNL     1       1.037   1.910   0.902  0.00  0.00    +0.044 C 
ATOM     27  C   UNL     1       1.669   0.672   1.485  0.00  0.00    -0.049 A 
ATOM     28  C   UNL     1       3.045   0.579   1.581  0.00  0.00    +0.004 A 
ATOM     29  C   UNL     1       3.629  -0.555   2.115  0.00  0.00    +0.005 A 
ATOM     30  C   UNL     1       2.839  -1.599   2.554  0.00  0.00    -0.029 A 
ATOM     31  C   UNL     1       1.456  -1.509   2.459  0.00  0.00    +0.033 A 
ATOM     32  C   UNL     1       0.872  -0.365   1.927  0.00  0.00    +0.026 A 
ATOM     33  C   UNL     1       3.476  -2.835   3.135  0.00  0.00    +0.045 C 
ENDBRANCH  20  31
ENDBRANCH  19  23
ENDBRANCH   1  19
TORSDOF 4
