REMARK  Name = ZINC62627668
REMARK  7 active torsions:
REMARK  status: ('A' for Active; 'I' for Inactive)
REMARK    1  A    between atoms: C_1  and  C_2
REMARK    2  A    between atoms: C_2  and  C_3
REMARK    3  A    between atoms: C_2  and  C_4
REMARK    4  A    between atoms: C_4  and  N_5
REMARK    5  A    between atoms: N_5  and  C_6
REMARK    6  A    between atoms: C_7  and  C_9
REMARK    7  A    between atoms: C_19  and  N_21
REMARK                            x       y       z     vdW  Elec       q    Type
REMARK                         _______ _______ _______ _____ _____    ______ ____
ROOT
ATOM      1  C   UNL     1      -1.534  -3.696  -1.181  0.00  0.00    +0.306 C 
ATOM      2  O   UNL     1      -1.467  -2.531  -0.847  0.00  0.00    -0.265 OA
ATOM      3  N   UNL     1      -1.690  -4.016  -2.481  0.00  0.00    -0.263 N 
ATOM      4  C   UNL     1      -1.647  -5.419  -2.914  0.00  0.00    +0.114 C 
ATOM      5  C   UNL     1      -0.776  -5.494  -4.176  0.00  0.00    +0.024 C 
ATOM      6  C   UNL     1      -1.443  -4.680  -5.285  0.00  0.00    +0.038 C 
ATOM      7  C   UNL     1      -1.782  -3.297  -4.793  0.00  0.00    -0.024 A 
ATOM      8  C   UNL     1      -1.900  -3.017  -3.439  0.00  0.00    +0.040 A 
ATOM      9  C   UNL     1      -2.224  -1.732  -3.018  0.00  0.00    +0.026 A 
ATOM     10  C   UNL     1      -2.432  -0.733  -3.948  0.00  0.00    +0.034 A 
ATOM     11  C   UNL     1      -2.317  -1.011  -5.297  0.00  0.00    +0.127 A 
ATOM     12  C   UNL     1      -1.985  -2.288  -5.719  0.00  0.00    +0.038 A 
ENDROOT
BRANCH   1  15
ATOM     13  N   UNL     1      -2.551  -5.170   0.507  0.00  0.00    -0.297 N 
ATOM     14  C   UNL     1      -3.856  -4.606   0.154  0.00  0.00    +0.132 C 
ATOM     15  C   UNL     1      -1.444  -4.774  -0.152  0.00  0.00    +0.302 C 
ATOM     16  O   UNL     1      -0.375  -5.294   0.091  0.00  0.00    -0.265 OA
BRANCH  13  17
ATOM     17  C   UNL     1      -2.449  -6.166   1.577  0.00  0.00    +0.111 C 
BRANCH  17  19
ATOM     18  C   UNL     1      -2.380  -8.613   2.080  0.00  0.00    +0.009 C 
ATOM     19  C   UNL     1      -2.610  -7.568   0.986  0.00  0.00    +0.000 C 
ATOM     20  C   UNL     1      -4.023  -7.724   0.420  0.00  0.00    +0.009 C 
ENDBRANCH  17  19
ENDBRANCH  13  17
ENDBRANCH   1  15
BRANCH  11  21
ATOM     21  N   UNL     1      -2.538   0.061  -6.294  0.00  0.00    +0.056 N 
ATOM     22  O   UNL     1      -2.819   1.178  -5.928  0.00  0.00    -0.126 OA
ATOM     23  O   UNL     1      -2.438  -0.181  -7.474  0.00  0.00    -0.126 OA
ENDBRANCH  11  21
TORSDOF 4
