REMARK  Name = ZINC64538883
REMARK  10 active torsions:
REMARK  status: ('A' for Active; 'I' for Inactive)
REMARK    1  A    between atoms: C_1  and  C_2
REMARK    2  A    between atoms: C_8  and  C_11
REMARK    3  A    between atoms: C_11  and  C_12
REMARK    4  A    between atoms: C_12  and  N_13
REMARK    5  A    between atoms: C_14  and  C_16
REMARK    6  A    between atoms: C_16  and  C_17
REMARK    7  A    between atoms: C_17  and  C_18
REMARK    8  A    between atoms: C_18  and  C_19
REMARK    9  A    between atoms: C_23  and  C_26
REMARK   10  A    between atoms: N_28  and  C_29
REMARK                            x       y       z     vdW  Elec       q    Type
REMARK                         _______ _______ _______ _____ _____    ______ ____
ROOT
ATOM      1  C   UNL     1      -2.527  -2.355   7.781  0.00  0.00    +0.096 C 
ENDROOT
BRANCH   1   3
ATOM      2  N   UNL     1      -1.376  -2.620   5.607  0.00  0.00    -0.315 N 
ATOM      3  C   UNL     1      -2.535  -2.613   6.296  0.00  0.00    +0.213 C 
ATOM      4  O   UNL     1      -3.583  -2.813   5.720  0.00  0.00    -0.276 OA
ATOM      5  H   UNL     1      -0.537  -2.460   6.068  0.00  0.00    +0.149 HD
BRANCH   2   6
ATOM      6  C   UNL     1      -1.383  -2.871   4.164  0.00  0.00    +0.108 C 
BRANCH   6   7
ATOM      7  C   UNL     1       0.050  -2.825   3.631  0.00  0.00    +0.052 C 
BRANCH   7  15
ATOM      8  C   UNL     1      -0.001   1.486   0.011  0.00  0.00    +0.044 C 
ATOM      9  C   UNL     1       0.009  -0.021  -0.001  0.00  0.00    -0.050 A 
ATOM     10  C   UNL     1       0.005  -0.694  -1.230  0.00  0.00    +0.005 A 
ATOM     11  C   UNL     1       0.014  -2.041  -1.325  0.00  0.00    +0.026 A 
ATOM     12  C   UNL     1       0.027  -2.844  -0.151  0.00  0.00    +0.043 A 
ATOM     13  N   UNL     1       0.036  -4.144   0.018  0.00  0.00    -0.380 N 
ATOM     14  C   UNL     1       0.047  -4.429   1.457  0.00  0.00    +0.144 C 
ATOM     15  C   UNL     1       0.043  -3.083   2.147  0.00  0.00    -0.040 C 
ATOM     16  C   UNL     1       0.031  -2.157   1.161  0.00  0.00    -0.001 A 
ATOM     17  C   UNL     1       0.027  -0.689   1.175  0.00  0.00    +0.013 A 
ATOM     18  H   UNL     1       0.035  -4.806  -0.690  0.00  0.00    +0.160 HD
ENDBRANCH   7  15
ENDBRANCH   6   7
ENDBRANCH   2   6
ENDBRANCH   1   3
BRANCH   1  19
ATOM     19  C   UNL     1      -3.961  -2.401   8.313  0.00  0.00    +0.012 C 
BRANCH  19  20
ATOM     20  C   UNL     1      -3.954  -2.139   9.821  0.00  0.00    +0.040 C 
BRANCH  20  21
ATOM     21  C   UNL     1      -5.387  -2.185  10.353  0.00  0.00    +0.187 C 
ATOM     22  N   UNL     1      -5.428  -1.949  11.815  0.00  0.00    -0.177 NA
ATOM     23  N   UNL     1      -6.060  -2.686  12.545  0.00  0.00    -0.167 NA
ATOM     24  C   UNL     1      -6.808  -3.839  11.992  0.00  0.00    +0.272 C 
ATOM     25  S   UNL     1      -6.073  -3.901  10.295  0.00  0.00    -0.095 S 
BRANCH  24  26
ATOM     26  C   UNL     1      -6.519  -5.101  12.763  0.00  0.00    +0.254 C 
ATOM     27  O   UNL     1      -5.848  -5.979  12.262  0.00  0.00    -0.272 OA
ATOM     28  N   UNL     1      -7.006  -5.255  14.010  0.00  0.00    -0.283 N 
ATOM     29  H   UNL     1      -7.485  -4.527  14.437  0.00  0.00    +0.155 HD
BRANCH  28  30
ATOM     30  C   UNL     1      -6.821  -6.464  14.690  0.00  0.00    +0.033 A 
ATOM     31  C   UNL     1      -7.811  -6.945  15.537  0.00  0.00    +0.023 A 
ATOM     32  C   UNL     1      -7.625  -8.139  16.206  0.00  0.00    +0.002 A 
ATOM     33  C   UNL     1      -6.455  -8.855  16.033  0.00  0.00    +0.000 A 
ATOM     34  C   UNL     1      -5.467  -8.379  15.190  0.00  0.00    +0.002 A 
ATOM     35  C   UNL     1      -5.649  -7.189  14.514  0.00  0.00    +0.023 A 
ENDBRANCH  28  30
ENDBRANCH  24  26
ENDBRANCH  20  21
ENDBRANCH  19  20
ENDBRANCH   1  19
TORSDOF 9
