REMARK  Name = ZINC02828455
REMARK  4 active torsions:
REMARK  status: ('A' for Active; 'I' for Inactive)
REMARK    1  A    between atoms: C_9  and  C_12
REMARK    2  A    between atoms: C_20  and  C_21
REMARK    3  A    between atoms: C_24  and  C_26
REMARK    4  A    between atoms: C_30  and  N_32
REMARK                            x       y       z     vdW  Elec       q    Type
REMARK                         _______ _______ _______ _____ _____    ______ ____
ROOT
ATOM      1  C   UNL     1       3.489   2.013  -1.091  0.00  0.00    +0.196 A 
ATOM      2  N   UNL     1       4.284   2.183  -0.035  0.00  0.00    -0.201 NA
ATOM      3  C   UNL     1       5.378   2.787  -0.411  0.00  0.00    +0.200 A 
ATOM      4  N   UNL     1       5.319   3.039  -1.749  0.00  0.00    -0.169 N 
ATOM      5  N   UNL     1       4.061   2.514  -2.150  0.00  0.00    -0.142 NA
ATOM      6  C   UNL     1       6.358   3.664  -2.319  0.00  0.00    +0.288 A 
ATOM      7  O   UNL     1       6.371   3.920  -3.505  0.00  0.00    -0.265 OA
ATOM      8  C   UNL     1       7.497   4.029  -1.430  0.00  0.00    +0.085 A 
ATOM      9  C   UNL     1       8.698   4.679  -1.751  0.00  0.00    +0.067 C 
ATOM     10  S   UNL     1       6.947   3.439   0.107  0.00  0.00    -0.044 S 
ENDROOT
BRANCH   1  19
ATOM     11  C   UNL     1      -1.137  -2.084   0.362  0.00  0.00    +0.004 A 
ATOM     12  C   UNL     1       0.003  -2.775  -0.008  0.00  0.00    +0.004 A 
ATOM     13  C   UNL     1       1.144  -2.085  -0.372  0.00  0.00    +0.049 A 
ATOM     14  C   UNL     1       1.148  -0.698  -0.368  0.00  0.00    +0.163 A 
ATOM     15  C   UNL     1       0.002  -0.004   0.002  0.00  0.00    +0.162 A 
ATOM     16  C   UNL     1      -1.139  -0.703   0.368  0.00  0.00    +0.049 A 
ATOM     17  O   UNL     1      -0.016   1.357   0.009  0.00  0.00    -0.484 OA
ATOM     18  C   UNL     1       1.254   2.018   0.001  0.00  0.00    +0.281 C 
ATOM     19  C   UNL     1       2.135   1.351  -1.063  0.00  0.00    +0.280 C 
ATOM     20  O   UNL     1       2.281  -0.032  -0.723  0.00  0.00    -0.474 OA
ENDBRANCH   1  19
BRANCH   9  21
ATOM     21  C   UNL     1       9.639   4.926  -0.761  0.00  0.00    +0.130 A 
ATOM     22  C   UNL     1      10.932   5.590  -0.939  0.00  0.00    +0.050 A 
ATOM     23  C   UNL     1      11.520   5.616   0.290  0.00  0.00    +0.050 A 
ATOM     24  C   UNL     1      10.638   4.997   1.196  0.00  0.00    +0.136 A 
ATOM     25  O   UNL     1       9.530   4.604   0.547  0.00  0.00    -0.455 OA
BRANCH  24  26
ATOM     26  C   UNL     1      10.888   4.817   2.627  0.00  0.00    +0.019 A 
ATOM     27  C   UNL     1      12.085   5.278   3.201  0.00  0.00    +0.012 A 
ATOM     28  C   UNL     1      12.310   5.103   4.547  0.00  0.00    +0.003 A 
ATOM     29  C   UNL     1      11.359   4.476   5.338  0.00  0.00    +0.033 A 
ATOM     30  C   UNL     1      10.174   4.019   4.783  0.00  0.00    +0.127 A 
ATOM     31  C   UNL     1       9.928   4.187   3.438  0.00  0.00    +0.044 A 
BRANCH  30  32
ATOM     32  N   UNL     1       9.167   3.352   5.638  0.00  0.00    +0.056 N 
ATOM     33  O   UNL     1       9.398   3.193   6.925  0.00  0.00    -0.126 OA
ATOM     34  O   UNL     1       8.041   2.916   5.113  0.00  0.00    -0.126 OA
ENDBRANCH  30  32
ENDBRANCH  24  26
ENDBRANCH   9  21
TORSDOF 4
