REMARK  Name = ZINC01122902
REMARK  10 active torsions:
REMARK  status: ('A' for Active; 'I' for Inactive)
REMARK    1  A    between atoms: C_1  and  C_2
REMARK    2  A    between atoms: C_2  and  O_3
REMARK    3  A    between atoms: O_3  and  C_4
REMARK    4  A    between atoms: C_7  and  C_12
REMARK    5  A    between atoms: C_9  and  O_10
REMARK    6  A    between atoms: O_10  and  C_11
REMARK    7  A    between atoms: C_17  and  C_27
REMARK    8  A    between atoms: C_30  and  O_34
REMARK    9  A    between atoms: C_31  and  O_33
REMARK   10  A    between atoms: O_34  and  C_35
REMARK                            x       y       z     vdW  Elec       q    Type
REMARK                         _______ _______ _______ _____ _____    ______ ____
ROOT
ATOM      1  C   UNL     1       5.263   5.087  -1.603  0.00  0.00    +0.032 C 
ATOM      2  C   UNL     1       3.801   5.192  -1.173  0.00  0.00    +0.059 C 
ATOM      3  C   UNL     1       3.262   3.811  -0.835  0.00  0.00    +0.017 C 
ATOM      4  C   UNL     1       3.701   2.730  -1.499  0.00  0.00    +0.036 C 
ATOM      5  C   UNL     1       3.230   1.310  -1.291  0.00  0.00    +0.136 C 
ATOM      6  N   UNL     1       2.421   1.115  -0.106  0.00  0.00    -0.331 N 
ATOM      7  C   UNL     1       1.174   1.724   0.024  0.00  0.00    +0.049 A 
ATOM      8  C   UNL     1       0.004   0.983   0.029  0.00  0.00    +0.025 A 
ATOM      9  C   UNL     1      -1.215   1.637   0.058  0.00  0.00    +0.002 A 
ATOM     10  C   UNL     1      -1.268   3.018   0.092  0.00  0.00    +0.002 A 
ATOM     11  C   UNL     1      -0.100   3.762   0.102  0.00  0.00    +0.025 A 
ATOM     12  C   UNL     1       1.120   3.109   0.084  0.00  0.00    +0.052 A 
ATOM     13  N   UNL     1       2.329   3.792   0.151  0.00  0.00    -0.316 N 
ATOM     14  C   UNL     1       4.698   2.861  -2.495  0.00  0.00    +0.163 C 
ATOM     15  O   UNL     1       5.061   1.868  -3.094  0.00  0.00    -0.292 OA
ATOM     16  C   UNL     1       5.322   4.180  -2.838  0.00  0.00    +0.088 C 
ATOM     17  H   UNL     1       2.753   0.551   0.609  0.00  0.00    +0.147 HD
ATOM     18  H   UNL     1       2.520   4.291   0.960  0.00  0.00    +0.152 HD
ENDROOT
BRANCH   1  22
ATOM     19  C   UNL     1       6.767   8.969  -2.584  0.00  0.00    +0.162 A 
ATOM     20  C   UNL     1       5.667   8.459  -3.255  0.00  0.00    +0.050 A 
ATOM     21  C   UNL     1       5.184   7.203  -2.936  0.00  0.00    +0.008 A 
ATOM     22  C   UNL     1       5.795   6.454  -1.948  0.00  0.00    -0.040 A 
ATOM     23  C   UNL     1       6.889   6.959  -1.271  0.00  0.00    +0.053 A 
ATOM     24  C   UNL     1       7.382   8.214  -1.589  0.00  0.00    +0.162 A 
BRANCH  24  25
ATOM     25  O   UNL     1       8.462   8.710  -0.928  0.00  0.00    -0.491 OA
ATOM     26  C   UNL     1       9.043   7.881   0.081  0.00  0.00    +0.277 C 
ENDBRANCH  24  25
BRANCH  19  27
ATOM     27  O   UNL     1       7.243  10.203  -2.896  0.00  0.00    -0.489 OA
BRANCH  27  29
ATOM     28  C   UNL     1       7.236  12.278  -4.136  0.00  0.00    +0.048 C 
ATOM     29  C   UNL     1       6.561  10.920  -3.927  0.00  0.00    +0.226 C 
ENDBRANCH  27  29
ENDBRANCH  19  27
ENDBRANCH   1  22
BRANCH   5  30
ATOM     30  C   UNL     1       2.425   0.892  -2.494  0.00  0.00    -0.019 A 
ATOM     31  C   UNL     1       2.869  -0.142  -3.297  0.00  0.00    +0.009 A 
ATOM     32  C   UNL     1       2.131  -0.533  -4.398  0.00  0.00    +0.050 A 
ATOM     33  C   UNL     1       0.948   0.120  -4.707  0.00  0.00    +0.161 A 
ATOM     34  C   UNL     1       0.504   1.165  -3.902  0.00  0.00    +0.159 A 
ATOM     35  C   UNL     1       1.246   1.548  -2.796  0.00  0.00    +0.055 A 
BRANCH  34  36
ATOM     36  O   UNL     1      -0.656   1.810  -4.201  0.00  0.00    -0.503 OA
ATOM     37  H   UNL     1      -0.543   2.571  -4.787  0.00  0.00    +0.292 HD
ENDBRANCH  34  36
BRANCH  33  38
ATOM     38  O   UNL     1       0.224  -0.259  -5.793  0.00  0.00    -0.491 OA
ATOM     39  C   UNL     1       0.741  -1.339  -6.573  0.00  0.00    +0.277 C 
ENDBRANCH  33  38
ENDBRANCH   5  30
TORSDOF 7
