REMARK  Name = ZINC09720466
REMARK  4 active torsions:
REMARK  status: ('A' for Active; 'I' for Inactive)
REMARK    1  A    between atoms: C_3  and  N_11
REMARK    2  A    between atoms: C_6  and  N_7
REMARK    3  A    between atoms: N_14  and  S_17
REMARK    4  A    between atoms: S_17  and  C_20
REMARK                            x       y       z     vdW  Elec       q    Type
REMARK                         _______ _______ _______ _____ _____    ______ ____
ROOT
ATOM      1  N   UNL     1       2.401   1.107  -0.015  0.00  0.00    -0.326 N 
ATOM      2  C   UNL     1       2.559   0.338  -1.256  0.00  0.00    +0.122 C 
ATOM      3  C   UNL     1       3.976  -0.243  -1.316  0.00  0.00    +0.128 C 
ATOM      4  N   UNL     1       4.223  -1.000  -0.079  0.00  0.00    -0.174 NA
ATOM      5  C   UNL     1       3.954  -0.339   1.207  0.00  0.00    +0.128 C 
ATOM      6  C   UNL     1       2.538   0.245   1.167  0.00  0.00    +0.122 C 
ENDROOT
BRANCH   1   9
ATOM      7  C   UNL     1      -1.218   1.751   0.017  0.00  0.00    +0.034 A 
ATOM      8  C   UNL     1      -0.013   1.076   0.008  0.00  0.00    +0.027 A 
ATOM      9  C   UNL     1       1.180   1.787   0.000  0.00  0.00    +0.048 A 
ATOM     10  C   UNL     1       1.157   3.177   0.008  0.00  0.00    +0.064 A 
ATOM     11  C   UNL     1      -0.053   3.846   0.022  0.00  0.00    +0.054 A 
ATOM     12  C   UNL     1      -1.238   3.133   0.029  0.00  0.00    +0.128 A 
ATOM     13 CL   UNL     1       2.644   4.072  -0.002  0.00  0.00    -0.082 Cl
BRANCH  12  14
ATOM     14  N   UNL     1      -2.532   3.853   0.044  0.00  0.00    +0.056 N 
ATOM     15  O   UNL     1      -2.551   5.070   0.050  0.00  0.00    -0.126 OA
ATOM     16  O   UNL     1      -3.576   3.227   0.050  0.00  0.00    -0.126 OA
ENDBRANCH  12  14
ENDBRANCH   1   9
BRANCH   4  17
ATOM     17  S   UNL     1       4.790  -2.555  -0.134  0.00  0.00    +0.061 S 
ATOM     18  O   UNL     1       5.457  -2.701  -1.380  0.00  0.00    -0.153 OA
ATOM     19  O   UNL     1       5.435  -2.796   1.109  0.00  0.00    -0.153 OA
BRANCH  17  20
ATOM     20  C   UNL     1       3.386  -3.619  -0.186  0.00  0.00    +0.107 A 
ATOM     21  C   UNL     1       2.829  -4.086   0.990  0.00  0.00    +0.030 A 
ATOM     22  C   UNL     1       1.725  -4.917   0.950  0.00  0.00    +0.023 A 
ATOM     23  C   UNL     1       1.183  -5.289  -0.267  0.00  0.00    +0.059 A 
ATOM     24  C   UNL     1       1.744  -4.826  -1.445  0.00  0.00    +0.061 A 
ATOM     25  C   UNL     1       2.846  -3.990  -1.403  0.00  0.00    +0.050 A 
ATOM     26 CL   UNL     1       1.065  -5.292  -2.973  0.00  0.00    -0.082 Cl
ATOM     27 CL   UNL     1      -0.200  -6.337  -0.318  0.00  0.00    -0.082 Cl
ENDBRANCH  17  20
ENDBRANCH   4  17
TORSDOF 4
