REMARK  Name = ZINC41584756
REMARK  6 active torsions:
REMARK  status: ('A' for Active; 'I' for Inactive)
REMARK    1  A    between atoms: C_1  and  O_2
REMARK    2  A    between atoms: O_2  and  C_3
REMARK    3  A    between atoms: C_8  and  C_9
REMARK    4  A    between atoms: C_16  and  O_37
REMARK    5  A    between atoms: C_17  and  C_20
REMARK    6  A    between atoms: C_20  and  N_21
REMARK                            x       y       z     vdW  Elec       q    Type
REMARK                         _______ _______ _______ _____ _____    ______ ____
ROOT
ATOM      1  C   UNL     1       0.072  -2.830   0.039  0.00  0.00    +0.061 C 
ATOM      2  C   UNL     1       0.218  -4.180   0.047  0.00  0.00    +0.176 C 
ATOM      3  C   UNL     1      -0.239  -5.109  -0.997  0.00  0.00    +0.231 C 
ATOM      4  O   UNL     1      -0.819  -4.838  -2.034  0.00  0.00    -0.283 OA
ATOM      5  C   UNL     1       0.162  -6.441  -0.508  0.00  0.00    +0.068 A 
ATOM      6  C   UNL     1       0.022  -7.729  -1.025  0.00  0.00    +0.019 A 
ATOM      7  C   UNL     1       0.505  -8.799  -0.327  0.00  0.00    +0.046 A 
ATOM      8  C   UNL     1       1.136  -8.607   0.899  0.00  0.00    +0.122 A 
ATOM      9  C   UNL     1       1.282  -7.334   1.425  0.00  0.00    +0.020 A 
ATOM     10  C   UNL     1       0.796  -6.234   0.727  0.00  0.00    +0.144 A 
ATOM     11  O   UNL     1       0.817  -4.914   1.014  0.00  0.00    -0.451 OA
ENDROOT
BRANCH   1  17
ATOM     12  C   UNL     1       0.888  -0.633   0.883  0.00  0.00    +0.127 A 
ATOM     13  C   UNL     1       1.499   0.125   1.869  0.00  0.00    +0.046 A 
ATOM     14  C   UNL     1       1.948  -0.476   3.029  0.00  0.00    +0.004 A 
ATOM     15  C   UNL     1       1.792  -1.841   3.218  0.00  0.00    +0.001 A 
ATOM     16  C   UNL     1       1.188  -2.612   2.251  0.00  0.00    +0.011 A 
ATOM     17  C   UNL     1       0.722  -2.016   1.072  0.00  0.00    +0.020 A 
BRANCH  12  19
ATOM     18  C   UNL     1       0.650   1.366  -0.378  0.00  0.00    +0.277 C 
ATOM     19  O   UNL     1       0.447  -0.043  -0.256  0.00  0.00    -0.495 OA
ENDBRANCH  12  19
ENDBRANCH   1  17
BRANCH   8  20
ATOM     20  O   UNL     1       1.613  -9.677   1.586  0.00  0.00    -0.506 OA
ATOM     21  H   UNL     1       2.528  -9.905   1.372  0.00  0.00    +0.292 HD
ENDBRANCH   8  20
BRANCH   9  22
ATOM     22  C   UNL     1       1.966  -7.141   2.754  0.00  0.00    -0.036 C 
BRANCH  22  23
ATOM     23  N   UNL     1       3.407  -6.950   2.540  0.00  0.00    +0.383 N 
ATOM     24  C   UNL     1       4.052  -6.636   3.817  0.00  0.00    -0.073 C 
ATOM     25  C   UNL     1       5.549  -6.433   3.642  0.00  0.00    -0.007 C 
ATOM     26  C   UNL     1       6.191  -7.664   2.995  0.00  0.00    +0.011 C 
ATOM     27  C   UNL     1       5.466  -7.914   1.667  0.00  0.00    +0.020 C 
ATOM     28  C   UNL     1       3.984  -8.181   1.979  0.00  0.00    -0.069 C 
ATOM     29  C   UNL     1       5.546  -6.665   0.817  0.00  0.00    +0.023 A 
ATOM     30  C   UNL     1       5.526  -6.822  -0.532  0.00  0.00    +0.022 A 
ATOM     31  C   UNL     1       5.532  -5.707  -1.378  0.00  0.00    +0.007 A 
ATOM     32  C   UNL     1       5.534  -4.461  -0.824  0.00  0.00    +0.070 A 
ATOM     33  C   UNL     1       5.552  -4.334   0.573  0.00  0.00    +0.251 A 
ATOM     34  O   UNL     1       5.491  -3.226   1.080  0.00  0.00    -0.268 OA
ATOM     35  N   UNL     1       5.635  -5.431   1.365  0.00  0.00    -0.312 N 
ATOM     36  C   UNL     1       5.857  -5.212   2.791  0.00  0.00    +0.126 C 
ATOM     37  H   UNL     1       3.552  -6.188   1.895  0.00  0.00    -0.081 HD
ENDBRANCH  22  23
ENDBRANCH   9  22
TORSDOF 5
