REMARK  Name = ZINC20618102
REMARK  12 active torsions:
REMARK  status: ('A' for Active; 'I' for Inactive)
REMARK    1  A    between atoms: C_1  and  O_2
REMARK    2  A    between atoms: O_2  and  C_3
REMARK    3  A    between atoms: C_3  and  C_4
REMARK    4  A    between atoms: C_4  and  C_5
REMARK    5  A    between atoms: C_5  and  N_6
REMARK    6  A    between atoms: N_6  and  C_7
REMARK    7  A    between atoms: N_6  and  C_31
REMARK    8  A    between atoms: C_7  and  C_8
REMARK    9  A    between atoms: C_8  and  N_9
REMARK   10  A    between atoms: C_10  and  C_12
REMARK   11  A    between atoms: C_15  and  N_18
REMARK   12  A    between atoms: C_31  and  C_32
REMARK                            x       y       z     vdW  Elec       q    Type
REMARK                         _______ _______ _______ _____ _____    ______ ____
ROOT
ATOM      1  N   UNL     1      -4.777  -7.004   0.160  0.00  0.00    -0.313 N 
ATOM      2  C   UNL     1      -4.881  -8.345   0.241  0.00  0.00    +0.244 C 
ATOM      3  O   UNL     1      -3.879  -9.031   0.306  0.00  0.00    -0.270 OA
ATOM      4  H   UNL     1      -5.576  -6.457   0.108  0.00  0.00    +0.149 HD
ENDROOT
BRANCH   2   5
ATOM      5  C   UNL     1      -6.210  -8.981   0.251  0.00  0.00    +0.037 A 
ATOM      6  C   UNL     1      -7.364  -8.193   0.170  0.00  0.00    +0.015 A 
ATOM      7  C   UNL     1      -8.595  -8.781   0.179  0.00  0.00    +0.028 A 
ATOM      8  C   UNL     1      -8.704 -10.174   0.268  0.00  0.00    +0.067 A 
ATOM      9  C   UNL     1      -7.550 -10.963   0.348  0.00  0.00    +0.028 A 
ATOM     10  C   UNL     1      -6.319 -10.374   0.334  0.00  0.00    +0.015 A 
BRANCH   8  11
ATOM     11  N   UNL     1      -9.934 -10.763   0.278  0.00  0.00    -0.226 NA
ATOM     12  C   UNL     1     -10.161 -11.825  -0.466  0.00  0.00    +0.155 C 
ATOM     13  N   UNL     1     -11.334 -12.536  -0.581  0.00  0.00    -0.318 N 
ATOM     14  C   UNL     1     -11.388 -13.648  -1.515  0.00  0.00    +0.108 C 
ATOM     15  C   UNL     1     -12.336 -14.749  -1.007  0.00  0.00    +0.189 C 
ATOM     16  S   UNL     1     -11.200 -15.938  -0.186  0.00  0.00    -0.028 S 
ATOM     17  O   UNL     1     -11.440 -15.915   1.214  0.00  0.00    -0.174 OA
ATOM     18  O   UNL     1     -11.244 -17.175  -0.883  0.00  0.00    -0.174 OA
ATOM     19  C   UNL     1      -9.591 -15.113  -0.532  0.00  0.00    +0.182 C 
ATOM     20  C   UNL     1      -9.964 -14.240  -1.735  0.00  0.00    +0.097 C 
ATOM     21  S   UNL     1      -9.015 -12.661  -1.557  0.00  0.00    -0.084 S 
ATOM     22  H   UNL     1     -12.109 -12.299  -0.049  0.00  0.00    +0.148 HD
ENDBRANCH   8  11
ENDBRANCH   2   5
BRANCH   1  23
ATOM     23  C   UNL     1      -3.455  -6.372   0.150  0.00  0.00    +0.086 C 
BRANCH  23  24
ATOM     24  C   UNL     1      -3.617  -4.853   0.053  0.00  0.00    -0.059 C 
BRANCH  24  25
ATOM     25  N   UNL     1      -2.292  -4.219   0.043  0.00  0.00    +0.385 N 
ATOM     26  H   UNL     1      -1.771  -4.517   0.854  0.00  0.00    -0.081 HD
BRANCH  25  27
ATOM     27  C   UNL     1      -2.448  -2.759   0.070  0.00  0.00    -0.076 C 
BRANCH  27  28
ATOM     28  C   UNL     1      -3.067  -2.337   1.404  0.00  0.00    +0.009 C 
BRANCH  28  29
ATOM     29  C   UNL     1      -3.106  -0.809   1.488  0.00  0.00    +0.157 C 
BRANCH  29  31
ATOM     30  C   UNL     1      -3.768   1.000   2.913  0.00  0.00    +0.193 C 
ATOM     31  O   UNL     1      -3.685  -0.415   2.733  0.00  0.00    -0.383 OA
ENDBRANCH  29  31
ENDBRANCH  28  29
ENDBRANCH  27  28
ENDBRANCH  25  27
BRANCH  25  32
ATOM     32  C   UNL     1      -1.570  -4.612  -1.174  0.00  0.00    -0.003 C 
BRANCH  32  33
ATOM     33  C   UNL     1      -0.164  -4.074  -1.120  0.00  0.00    +0.089 A 
ATOM     34  C   UNL     1       0.883  -4.667  -0.518  0.00  0.00    +0.042 A 
ATOM     35  C   UNL     1       2.000  -3.821  -0.711  0.00  0.00    +0.041 A 
ATOM     36  C   UNL     1       1.569  -2.762  -1.420  0.00  0.00    +0.195 A 
ATOM     37  O   UNL     1       0.259  -2.924  -1.670  0.00  0.00    -0.470 OA
ENDBRANCH  32  33
ENDBRANCH  25  32
ENDBRANCH  24  25
ENDBRANCH  23  24
ENDBRANCH   1  23
TORSDOF 11
