REMARK  Name = ZINC20509322
REMARK  10 active torsions:
REMARK  status: ('A' for Active; 'I' for Inactive)
REMARK    1  A    between atoms: C_4  and  C_7
REMARK    2  A    between atoms: C_7  and  C_8
REMARK    3  A    between atoms: C_7  and  C_35
REMARK    4  A    between atoms: C_8  and  C_9
REMARK    5  A    between atoms: N_11  and  C_12
REMARK    6  A    between atoms: C_15  and  N_18
REMARK    7  A    between atoms: C_19  and  C_21
REMARK    8  A    between atoms: C_21  and  C_22
REMARK    9  A    between atoms: C_22  and  C_23
REMARK   10  A    between atoms: C_22  and  C_29
REMARK                            x       y       z     vdW  Elec       q    Type
REMARK                         _______ _______ _______ _____ _____    ______ ____
ROOT
ATOM      1  C   UNL     1       2.062  -1.171   2.054  0.00  0.00    +0.073 C 
ATOM      2  C   UNL     1       2.555  -1.177   3.502  0.00  0.00    +0.024 C 
ATOM      3  C   UNL     1       3.639  -2.244   3.667  0.00  0.00    +0.024 C 
ATOM      4  C   UNL     1       4.809  -1.931   2.732  0.00  0.00    +0.073 C 
ATOM      5  C   UNL     1       4.316  -1.925   1.284  0.00  0.00    +0.024 C 
ATOM      6  C   UNL     1       3.231  -0.858   1.119  0.00  0.00    +0.024 C 
ENDROOT
BRANCH   1   9
ATOM      7  C   UNL     1      -0.259  -0.440   2.195  0.00  0.00    +0.214 C 
ATOM      8  O   UNL     1      -0.552  -1.547   2.595  0.00  0.00    -0.276 OA
ATOM      9  N   UNL     1       1.023  -0.150   1.896  0.00  0.00    -0.312 N 
ATOM     10  H   UNL     1       1.290   0.854   1.534  0.00  0.00    +0.149 HD
BRANCH   7  11
ATOM     11  C   UNL     1      -1.328   0.609   2.027  0.00  0.00    +0.108 C 
BRANCH  11  12
ATOM     12  C   UNL     1      -2.684   0.023   2.426  0.00  0.00    +0.058 C 
BRANCH  12  16
ATOM     13  C   UNL     1      -2.661  -0.909   6.595  0.00  0.00    +0.000 A 
ATOM     14  C   UNL     1      -2.285   0.350   6.166  0.00  0.00    +0.000 A 
ATOM     15  C   UNL     1      -2.292   0.652   4.817  0.00  0.00    +0.004 A 
ATOM     16  C   UNL     1      -2.676  -0.306   3.897  0.00  0.00    -0.040 A 
ATOM     17  C   UNL     1      -3.057  -1.563   4.326  0.00  0.00    +0.004 A 
ATOM     18  C   UNL     1      -3.045  -1.866   5.675  0.00  0.00    +0.000 A 
ENDBRANCH  12  16
BRANCH  12  19
ATOM     19  C   UNL     1      -3.769   1.030   2.142  0.00  0.00    -0.040 A 
ATOM     20  C   UNL     1      -3.660   2.319   2.629  0.00  0.00    +0.004 A 
ATOM     21  C   UNL     1      -4.653   3.244   2.364  0.00  0.00    +0.000 A 
ATOM     22  C   UNL     1      -5.759   2.876   1.622  0.00  0.00    +0.000 A 
ATOM     23  C   UNL     1      -5.871   1.585   1.140  0.00  0.00    +0.000 A 
ATOM     24  C   UNL     1      -4.875   0.662   1.400  0.00  0.00    +0.004 A 
ENDBRANCH  12  19
ENDBRANCH  11  12
ENDBRANCH   7  11
ENDBRANCH   1   9
BRANCH   4  25
ATOM     25  N   UNL     1       5.847  -2.952   2.890  0.00  0.00    -0.312 N 
ATOM     26  C   UNL     1       6.766  -2.833   3.868  0.00  0.00    +0.214 C 
ATOM     27  O   UNL     1       6.734  -1.880   4.618  0.00  0.00    -0.276 OA
ATOM     28  H   UNL     1       5.877  -3.816   2.210  0.00  0.00    +0.149 HD
BRANCH  26  29
ATOM     29  C   UNL     1       7.835  -3.883   4.031  0.00  0.00    +0.108 C 
BRANCH  29  30
ATOM     30  C   UNL     1       8.742  -3.511   5.205  0.00  0.00    +0.058 C 
BRANCH  30  31
ATOM     31  C   UNL     1       9.733  -4.620   5.445  0.00  0.00    -0.040 A 
ATOM     32  C   UNL     1       9.857  -5.175   6.705  0.00  0.00    +0.004 A 
ATOM     33  C   UNL     1      10.763  -6.196   6.924  0.00  0.00    +0.000 A 
ATOM     34  C   UNL     1      11.553  -6.655   5.886  0.00  0.00    +0.000 A 
ATOM     35  C   UNL     1      11.432  -6.096   4.628  0.00  0.00    +0.000 A 
ATOM     36  C   UNL     1      10.523  -5.079   4.407  0.00  0.00    +0.004 A 
ENDBRANCH  30  31
BRANCH  30  37
ATOM     37  C   UNL     1       9.481  -2.237   4.885  0.00  0.00    -0.040 A 
ATOM     38  C   UNL     1      10.183  -2.125   3.700  0.00  0.00    +0.004 A 
ATOM     39  C   UNL     1      10.857  -0.955   3.404  0.00  0.00    +0.000 A 
ATOM     40  C   UNL     1      10.836   0.100   4.298  0.00  0.00    +0.000 A 
ATOM     41  C   UNL     1      10.139  -0.015   5.486  0.00  0.00    +0.000 A 
ATOM     42  C   UNL     1       9.460  -1.183   5.779  0.00  0.00    +0.004 A 
ENDBRANCH  30  37
ENDBRANCH  29  30
ENDBRANCH  26  29
ENDBRANCH   4  25
TORSDOF 10
