REMARK  Name = ZINC05818374
REMARK  7 active torsions:
REMARK  status: ('A' for Active; 'I' for Inactive)
REMARK    1  A    between atoms: C_1  and  C_2
REMARK    2  A    between atoms: C_5  and  C_7
REMARK    3  A    between atoms: C_10  and  C_21
REMARK    4  A    between atoms: C_16  and  N_20
REMARK    5  A    between atoms: C_17  and  C_18
REMARK    6  A    between atoms: C_25  and  O_27
REMARK    7  A    between atoms: O_27  and  C_28
REMARK                            x       y       z     vdW  Elec       q    Type
REMARK                         _______ _______ _______ _____ _____    ______ ____
ROOT
ATOM      1  C   UNL     1       1.684  -3.245  -0.023  0.00  0.00    +0.138 C 
ATOM      2  C   UNL     1       2.560  -3.185  -1.247  0.00  0.00    +0.057 A 
ATOM      3  C   UNL     1       2.229  -3.426  -2.584  0.00  0.00    +0.101 A 
ATOM      4  N   UNL     1       3.318  -3.253  -3.309  0.00  0.00    -0.171 NA
ATOM      5  N   UNL     1       4.370  -2.897  -2.450  0.00  0.00    -0.246 N 
ATOM      6  H   UNL     1       5.284  -2.710  -2.714  0.00  0.00    +0.192 HD
ATOM      7  C   UNL     1       3.885  -2.862  -1.191  0.00  0.00    +0.223 A 
ATOM      8  O   UNL     1       4.519  -2.572  -0.028  0.00  0.00    -0.423 OA
ATOM      9  C   UNL     1       3.883  -2.873   1.123  0.00  0.00    +0.201 C 
ATOM     10  C   UNL     1       2.572  -3.196   1.196  0.00  0.00    +0.101 C 
ENDROOT
BRANCH   1  15
ATOM     11  C   UNL     1      -0.018   1.503   0.010  0.00  0.00    +0.086 C 
ATOM     12  C   UNL     1       0.002  -0.004   0.002  0.00  0.00    +0.102 A 
ATOM     13  C   UNL     1      -1.078  -0.805   0.003  0.00  0.00    +0.044 A 
ATOM     14  C   UNL     1      -0.601  -2.136  -0.007  0.00  0.00    +0.046 A 
ATOM     15  C   UNL     1       0.742  -2.069  -0.013  0.00  0.00    +0.118 A 
ATOM     16  O   UNL     1       1.102  -0.775  -0.013  0.00  0.00    -0.464 OA
ENDBRANCH   1  15
BRANCH   3  17
ATOM     17  C   UNL     1       0.890  -3.809  -3.097  0.00  0.00    +0.006 A 
ATOM     18  C   UNL     1       0.058  -4.628  -2.336  0.00  0.00    +0.010 A 
ATOM     19  C   UNL     1      -1.187  -4.982  -2.814  0.00  0.00    +0.004 A 
ATOM     20  C   UNL     1      -1.612  -4.528  -4.049  0.00  0.00    +0.045 A 
ATOM     21  C   UNL     1      -0.789  -3.713  -4.814  0.00  0.00    +0.121 A 
ATOM     22  C   UNL     1       0.460  -3.347  -4.338  0.00  0.00    +0.055 A 
BRANCH  21  23
ATOM     23  O   UNL     1      -1.210  -3.269  -6.027  0.00  0.00    -0.495 OA
ATOM     24  C   UNL     1      -2.511  -3.680  -6.452  0.00  0.00    +0.277 C 
ENDBRANCH  21  23
ENDBRANCH   3  17
BRANCH   9  25
ATOM     25  N   UNL     1       4.609  -2.851   2.288  0.00  0.00    -0.328 N 
ATOM     26  H   UNL     1       5.552  -2.623   2.268  0.00  0.00    +0.145 HD
ATOM     27  H   UNL     1       4.179  -3.062   3.131  0.00  0.00    +0.145 HD
ENDBRANCH   9  25
BRANCH  10  28
ATOM     28  C   UNL     1       2.006  -3.503   2.475  0.00  0.00    +0.101 C 
ATOM     29  N   UNL     1       1.557  -3.745   3.490  0.00  0.00    -0.191 NA
ENDBRANCH  10  28
TORSDOF 5
