REMARK  Name = ZINC63576359
REMARK  9 active torsions:
REMARK  status: ('A' for Active; 'I' for Inactive)
REMARK    1  A    between atoms: C_1  and  C_2
REMARK    2  A    between atoms: C_2  and  O_3
REMARK    3  A    between atoms: O_3  and  C_4
REMARK    4  A    between atoms: C_4  and  C_6
REMARK    5  A    between atoms: C_7  and  C_35
REMARK    6  A    between atoms: C_14  and  N_15
REMARK    7  A    between atoms: N_15  and  C_16
REMARK    8  A    between atoms: C_16  and  C_17
REMARK    9  A    between atoms: C_17  and  C_18
REMARK                            x       y       z     vdW  Elec       q    Type
REMARK                         _______ _______ _______ _____ _____    ______ ____
ROOT
ATOM      1  C   UNL     1       1.436  -2.061  -2.556  0.00  0.00    +0.085 C 
ATOM      2  C   UNL     1       1.594  -3.376  -2.885  0.00  0.00    +0.106 C 
ATOM      3  O   UNL     1       2.306  -3.528  -4.044  0.00  0.00    -0.487 OA
ATOM      4  C   UNL     1       3.149  -2.388  -4.103  0.00  0.00    +0.216 C 
ATOM      5  C   UNL     1       2.117  -1.302  -3.655  0.00  0.00    +0.109 C 
ATOM      6  C   UNL     1       2.894  -0.077  -3.313  0.00  0.00    +0.025 C 
ATOM      7  C   UNL     1       2.651   0.645  -2.196  0.00  0.00    +0.075 C 
ATOM      8  C   UNL     1       3.918   0.282  -4.251  0.00  0.00    +0.191 C 
ATOM      9  O   UNL     1       4.625   1.257  -4.064  0.00  0.00    -0.287 OA
ATOM     10  C   UNL     1       4.093  -0.569  -5.457  0.00  0.00    +0.029 A 
ATOM     11  C   UNL     1       3.719  -1.927  -5.391  0.00  0.00    +0.004 A 
ATOM     12  C   UNL     1       3.881  -2.732  -6.491  0.00  0.00    +0.008 A 
ATOM     13  C   UNL     1       4.417  -2.211  -7.658  0.00  0.00    +0.000 A 
ATOM     14  C   UNL     1       4.792  -0.881  -7.723  0.00  0.00    +0.001 A 
ATOM     15  C   UNL     1       4.622  -0.056  -6.634  0.00  0.00    +0.012 A 
ATOM     16  C   UNL     1       1.051  -4.522  -2.071  0.00  0.00    +0.086 C 
ENDROOT
BRANCH   1  17
ATOM     17  C   UNL     1       0.770  -1.530  -1.426  0.00  0.00    +0.339 C 
ATOM     18  O   UNL     1      -0.328  -1.019  -1.551  0.00  0.00    -0.245 OA
BRANCH  17  19
ATOM     19  O   UNL     1       1.351  -1.589  -0.209  0.00  0.00    -0.462 OA
BRANCH  19  21
ATOM     20  C   UNL     1       1.437  -1.162   2.168  0.00  0.00    +0.048 C 
ATOM     21  C   UNL     1       0.577  -1.135   0.903  0.00  0.00    +0.229 C 
ENDBRANCH  19  21
ENDBRANCH  17  19
ENDBRANCH   1  17
BRANCH   7  22
ATOM     22  N   UNL     1       3.297   1.831  -1.996  0.00  0.00    -0.349 N 
ATOM     23  H   UNL     1       3.865   2.197  -2.691  0.00  0.00    +0.146 HD
BRANCH  22  24
ATOM     24  C   UNL     1       3.134   2.549  -0.730  0.00  0.00    +0.105 C 
BRANCH  24  25
ATOM     25  C   UNL     1       3.857   3.895  -0.809  0.00  0.00    +0.052 C 
BRANCH  25  26
ATOM     26  C   UNL     1       3.689   4.634   0.493  0.00  0.00    -0.040 C 
ATOM     27  C   UNL     1       4.549   4.648   1.537  0.00  0.00    -0.001 A 
ATOM     28  C   UNL     1       5.849   4.004   1.763  0.00  0.00    +0.010 A 
ATOM     29  C   UNL     1       6.487   4.211   2.937  0.00  0.00    +0.001 A 
ATOM     30  C   UNL     1       5.941   5.022   3.941  0.00  0.00    +0.002 A 
ATOM     31  C   UNL     1       4.752   5.647   3.806  0.00  0.00    +0.026 A 
ATOM     32  C   UNL     1       3.994   5.501   2.612  0.00  0.00    +0.043 A 
ATOM     33  N   UNL     1       2.835   5.994   2.247  0.00  0.00    -0.380 N 
ATOM     34  C   UNL     1       2.527   5.514   0.895  0.00  0.00    +0.144 C 
ATOM     35  H   UNL     1       2.277   6.581   2.780  0.00  0.00    +0.160 HD
ENDBRANCH  25  26
ENDBRANCH  24  25
ENDBRANCH  22  24
ENDBRANCH   7  22
TORSDOF 7
