REMARK  Name = ZINC11966317
REMARK  9 active torsions:
REMARK  status: ('A' for Active; 'I' for Inactive)
REMARK    1  A    between atoms: C_1  and  C_2
REMARK    2  A    between atoms: C_7  and  N_8
REMARK    3  A    between atoms: N_8  and  S_9
REMARK    4  A    between atoms: S_9  and  C_12
REMARK    5  A    between atoms: C_13  and  C_29
REMARK    6  A    between atoms: C_20  and  C_21
REMARK    7  A    between atoms: C_20  and  N_55
REMARK    8  A    between atoms: C_29  and  O_31
REMARK    9  A    between atoms: O_31  and  C_32
REMARK                            x       y       z     vdW  Elec       q    Type
REMARK                         _______ _______ _______ _____ _____    ______ ____
ROOT
ATOM      1  C   UNL     1      -4.426   1.829   6.173  0.00  0.00    +0.160 A 
ATOM      2  C   UNL     1      -4.931   0.816   5.386  0.00  0.00    +0.096 A 
ATOM      3  C   UNL     1      -4.573   0.810   3.982  0.00  0.00    -0.025 A 
ATOM      4  C   UNL     1      -3.763   1.822   3.589  0.00  0.00    -0.021 A 
ATOM      5  S   UNL     1      -3.484   2.765   5.059  0.00  0.00    -0.074 S 
ATOM      6  C   UNL     1      -3.240   2.056   2.208  0.00  0.00    -0.035 C 
ATOM      7  C   UNL     1      -4.827   0.341   1.566  0.00  0.00    -0.073 C 
ATOM      8  C   UNL     1      -5.041  -0.230   2.971  0.00  0.00    +0.018 C 
ATOM      9  N   UNL     1      -3.431   0.806   1.433  0.00  0.00    +0.386 N 
ATOM     10  H   UNL     1      -2.801   0.084   1.803  0.00  0.00    -0.081 HD
ENDROOT
BRANCH   1  11
ATOM     11  S   UNL     1      -4.678   2.107   7.894  0.00  0.00    +0.079 S 
ATOM     12  O   UNL     1      -6.054   2.420   8.058  0.00  0.00    -0.149 OA
ATOM     13  O   UNL     1      -4.057   1.025   8.575  0.00  0.00    -0.149 OA
BRANCH  11  14
ATOM     14  N   UNL     1      -3.830   3.470   8.300  0.00  0.00    -0.216 N 
ATOM     15  H   UNL     1      -3.123   3.422   8.963  0.00  0.00    +0.174 HD
BRANCH  14  22
ATOM     16  C   UNL     1      -1.691   5.260   7.743  0.00  0.00    +0.046 C 
ATOM     17  C   UNL     1      -3.120   5.593   7.399  0.00  0.00    -0.028 A 
ATOM     18  C   UNL     1      -3.423   6.797   6.793  0.00  0.00    +0.005 A 
ATOM     19  C   UNL     1      -4.733   7.102   6.476  0.00  0.00    +0.000 A 
ATOM     20  C   UNL     1      -5.745   6.204   6.764  0.00  0.00    +0.002 A 
ATOM     21  C   UNL     1      -5.449   4.997   7.364  0.00  0.00    +0.025 A 
ATOM     22  C   UNL     1      -4.133   4.689   7.689  0.00  0.00    +0.051 A 
ENDBRANCH  14  22
ENDBRANCH  11  14
ENDBRANCH   1  11
BRANCH   2  23
ATOM     23  C   UNL     1      -5.804  -0.224   5.952  0.00  0.00    +0.342 C 
ATOM     24  O   UNL     1      -5.320  -1.243   6.404  0.00  0.00    -0.245 OA
BRANCH  23  25
ATOM     25  O   UNL     1      -7.140  -0.045   5.970  0.00  0.00    -0.464 OA
ATOM     26  C   UNL     1      -7.939  -1.113   6.544  0.00  0.00    +0.280 C 
ENDBRANCH  23  25
ENDBRANCH   2  23
BRANCH   9  27
ATOM     27  C   UNL     1      -3.109   1.039   0.008  0.00  0.00    -0.037 C 
BRANCH  27  28
ATOM     28  C   UNL     1      -1.789   1.760  -0.089  0.00  0.00    +0.006 A 
ATOM     29  C   UNL     1      -1.756   3.144  -0.105  0.00  0.00    +0.127 A 
ATOM     30  C   UNL     1      -0.543   3.806  -0.201  0.00  0.00    +0.039 A 
ATOM     31  C   UNL     1       0.634   3.085  -0.273  0.00  0.00    +0.006 A 
ATOM     32  C   UNL     1       0.602   1.704  -0.252  0.00  0.00    +0.039 A 
ATOM     33  C   UNL     1      -0.609   1.040  -0.156  0.00  0.00    +0.127 A 
ATOM     34  F   UNL     1      -0.640  -0.311  -0.135  0.00  0.00    -0.205 F 
ATOM     35  F   UNL     1      -2.906   3.849  -0.035  0.00  0.00    -0.205 F 
ENDBRANCH  27  28
ENDBRANCH   9  27
TORSDOF 7
