REMARK  Name = ZINC03321463
REMARK  8 active torsions:
REMARK  status: ('A' for Active; 'I' for Inactive)
REMARK    1  A    between atoms: C_1  and  C_2
REMARK    2  A    between atoms: C_2  and  C_3
REMARK    3  A    between atoms: C_3  and  C_5
REMARK    4  A    between atoms: C_3  and  N_6
REMARK    5  A    between atoms: C_15  and  S_16
REMARK    6  A    between atoms: S_16  and  C_17
REMARK    7  A    between atoms: C_17  and  C_18
REMARK    8  A    between atoms: C_30  and  C_34
REMARK                            x       y       z     vdW  Elec       q    Type
REMARK                         _______ _______ _______ _____ _____    ______ ____
ROOT
ATOM      1  N   UNL     1       0.691   3.356   1.377  0.00  0.00    -0.284 N 
ATOM      2  C   UNL     1       1.316   4.030   0.395  0.00  0.00    +0.263 A 
ATOM      3  O   UNL     1       0.693   4.433  -0.572  0.00  0.00    -0.267 OA
ATOM      4  C   UNL     1       2.723   4.268   0.501  0.00  0.00    +0.076 A 
ATOM      5  C   UNL     1       3.598   4.972  -0.439  0.00  0.00    -0.023 A 
ATOM      6  C   UNL     1       4.902   5.066  -0.109  0.00  0.00    -0.004 A 
ATOM      7  S   UNL     1       5.043   4.234   1.450  0.00  0.00    -0.073 S 
ATOM      8  C   UNL     1       3.344   3.761   1.655  0.00  0.00    +0.117 A 
ATOM      9  N   UNL     1       2.669   3.103   2.590  0.00  0.00    -0.216 NA
ATOM     10  C   UNL     1       1.372   2.902   2.469  0.00  0.00    +0.173 A 
ATOM     11  C   UNL     1       5.991   5.730  -0.895  0.00  0.00    +0.043 C 
ATOM     12  C   UNL     1       5.479   5.975  -2.322  0.00  0.00    +0.005 C 
ATOM     13  C   UNL     1       4.088   6.609  -2.243  0.00  0.00    +0.005 C 
ATOM     14  C   UNL     1       3.076   5.580  -1.738  0.00  0.00    +0.037 C 
ENDROOT
BRANCH   1  15
ATOM     15  C   UNL     1      -0.750   3.109   1.275  0.00  0.00    +0.089 C 
ATOM     16  C   UNL     1      -1.043   2.317  -0.001  0.00  0.00    +0.031 C 
BRANCH  15  18
ATOM     17  C   UNL     1      -1.271   5.199   2.541  0.00  0.00    +0.006 C 
ATOM     18  C   UNL     1      -1.494   4.445   1.228  0.00  0.00    +0.021 C 
ENDBRANCH  15  18
ENDBRANCH   1  15
BRANCH  10  19
ATOM     19  S   UNL     1       0.507   2.030   3.733  0.00  0.00    -0.080 S 
BRANCH  19  20
ATOM     20  C   UNL     1       1.872   1.693   4.873  0.00  0.00    +0.151 C 
BRANCH  20  21
ATOM     21  C   UNL     1       1.354   0.932   6.066  0.00  0.00    +0.121 A 
ATOM     22  N   UNL     1       2.214   0.574   7.053  0.00  0.00    -0.310 N 
ATOM     23  H   UNL     1       3.151   0.813   6.977  0.00  0.00    +0.170 HD
ATOM     24  C   UNL     1       1.793  -0.107   8.136  0.00  0.00    +0.260 A 
ATOM     25  O   UNL     1       2.578  -0.422   9.014  0.00  0.00    -0.267 OA
ATOM     26  C   UNL     1       0.406  -0.455   8.240  0.00  0.00    +0.075 A 
ATOM     27  C   UNL     1      -0.270  -1.184   9.312  0.00  0.00    -0.023 A 
ATOM     28  C   UNL     1      -1.597  -1.387   9.172  0.00  0.00    -0.004 A 
ATOM     29  S   UNL     1      -2.017  -0.628   7.626  0.00  0.00    -0.073 S 
ATOM     30  C   UNL     1      -0.405  -0.041   7.171  0.00  0.00    +0.116 A 
ATOM     31  N   UNL     1       0.084   0.635   6.135  0.00  0.00    -0.226 NA
ATOM     32  C   UNL     1      -2.511  -2.099  10.121  0.00  0.00    +0.046 C 
ATOM     33  C   UNL     1      -1.653  -2.898  11.112  0.00  0.00    -0.009 C 
ATOM     34  C   UNL     1      -0.545  -1.987  11.647  0.00  0.00    +0.008 C 
ATOM     35  C   UNL     1       0.472  -1.701  10.542  0.00  0.00    +0.037 C 
ATOM     36  C   UNL     1      -2.526  -3.385  12.271  0.00  0.00    +0.008 C 
ENDBRANCH  20  21
ENDBRANCH  19  20
ENDBRANCH  10  19
TORSDOF 5
