REMARK  Name = ZINC17782369
REMARK  5 active torsions:
REMARK  status: ('A' for Active; 'I' for Inactive)
REMARK    1  A    between atoms: C_1  and  C_2
REMARK    2  A    between atoms: N_9  and  N_10
REMARK    3  A    between atoms: C_11  and  C_12
REMARK    4  A    between atoms: C_11  and  C_13
REMARK    5  A    between atoms: C_16  and  N_19
REMARK                            x       y       z     vdW  Elec       q    Type
REMARK                         _______ _______ _______ _____ _____    ______ ____
ROOT
ATOM      1  N   UNL     1      -2.101  -2.894   3.548  0.00  0.00    -0.185 NA
ATOM      2  C   UNL     1      -2.243  -3.596   4.630  0.00  0.00    +0.063 C 
ATOM      3  C   UNL     1      -1.086  -3.752   5.584  0.00  0.00    +0.068 C 
ENDROOT
BRANCH   1  11
ATOM      4  C   UNL     1      -0.019   1.526   0.010  0.00  0.00    +0.029 C 
ATOM      5  C   UNL     1       0.002  -0.004   0.002  0.00  0.00    +0.139 C 
ATOM      6  C   UNL     1      -1.404  -0.581   0.118  0.00  0.00    +0.251 C 
ATOM      7  O   UNL     1      -2.259  -0.383  -0.722  0.00  0.00    -0.272 OA
ATOM      8  N   UNL     1      -1.625  -1.301   1.184  0.00  0.00    -0.157 NA
ATOM      9  C   UNL     1      -0.724  -1.544   2.127  0.00  0.00    +0.166 C 
ATOM     10  S   UNL     1       0.732  -0.676   1.554  0.00  0.00    -0.079 S 
ATOM     11  N   UNL     1      -0.873  -2.282   3.266  0.00  0.00    -0.217 N 
ATOM     12  H   UNL     1      -0.129  -2.382   3.879  0.00  0.00    +0.176 HD
ENDBRANCH   1  11
BRANCH   2  13
ATOM     13  C   UNL     1      -3.535  -4.241   4.927  0.00  0.00    -0.002 A 
ATOM     14  C   UNL     1      -3.693  -4.992   6.094  0.00  0.00    +0.012 A 
ATOM     15  C   UNL     1      -4.905  -5.592   6.366  0.00  0.00    +0.033 A 
ATOM     16  C   UNL     1      -5.963  -5.451   5.486  0.00  0.00    +0.126 A 
ATOM     17  C   UNL     1      -5.814  -4.709   4.327  0.00  0.00    +0.033 A 
ATOM     18  C   UNL     1      -4.610  -4.098   4.046  0.00  0.00    +0.012 A 
BRANCH  16  19
ATOM     19  N   UNL     1      -7.261  -6.098   5.784  0.00  0.00    +0.056 N 
ATOM     20  O   UNL     1      -7.394  -6.748   6.795  0.00  0.00    -0.126 OA
ATOM     21  O   UNL     1      -8.187  -5.977   5.016  0.00  0.00    -0.126 OA
ENDBRANCH  16  19
ENDBRANCH   2  13
TORSDOF 3
