REMARK  Name = ZINC09420091
REMARK  5 active torsions:
REMARK  status: ('A' for Active; 'I' for Inactive)
REMARK    1  A    between atoms: C_4  and  N_26
REMARK    2  A    between atoms: C_5  and  C_7
REMARK    3  A    between atoms: C_9  and  C_11
REMARK    4  A    between atoms: C_9  and  C_23
REMARK    5  A    between atoms: C_13  and  C_16
REMARK                            x       y       z     vdW  Elec       q    Type
REMARK                         _______ _______ _______ _____ _____    ______ ____
ROOT
ATOM      1  C   UNL     1       2.676   4.073  -0.181  0.00  0.00    +0.200 C 
ATOM      2  C   UNL     1       1.264   3.516   0.008  0.00  0.00    +0.223 C 
ATOM      3  O   UNL     1       1.683   4.143  -1.206  0.00  0.00    -0.343 OA
ENDROOT
BRANCH   1   8
ATOM      4  C   UNL     1       3.241   7.732   0.557  0.00  0.00    +0.000 A 
ATOM      5  C   UNL     1       3.684   7.684   1.866  0.00  0.00    +0.002 A 
ATOM      6  C   UNL     1       3.801   6.468   2.512  0.00  0.00    +0.033 A 
ATOM      7  C   UNL     1       3.474   5.299   1.849  0.00  0.00    +0.132 A 
ATOM      8  C   UNL     1       3.032   5.347   0.541  0.00  0.00    +0.015 A 
ATOM      9  C   UNL     1       2.920   6.563  -0.107  0.00  0.00    +0.008 A 
BRANCH   7  10
ATOM     10  N   UNL     1       3.600   3.997   2.541  0.00  0.00    +0.057 N 
ATOM     11  O   UNL     1       3.990   3.955   3.695  0.00  0.00    -0.126 OA
ATOM     12  O   UNL     1       3.313   2.967   1.958  0.00  0.00    -0.126 OA
ENDBRANCH   7  10
ENDBRANCH   1   8
BRANCH   2  13
ATOM     13  C   UNL     1       1.093   2.019   0.003  0.00  0.00    +0.123 A 
ATOM     14  N   UNL     1      -0.016   1.320   0.009  0.00  0.00    -0.240 NA
ATOM     15  C   UNL     1       0.002  -0.004   0.002  0.00  0.00    +0.079 A 
ATOM     16  C   UNL     1       1.220  -0.628  -0.013  0.00  0.00    +0.075 A 
ATOM     17  S   UNL     1       2.314   0.785  -0.016  0.00  0.00    -0.076 S 
BRANCH  15  18
ATOM     18  C   UNL     1      -1.258  -0.786   0.009  0.00  0.00    +0.001 A 
ATOM     19  C   UNL     1      -2.487  -0.134  -0.075  0.00  0.00    +0.011 A 
ATOM     20  C   UNL     1      -3.656  -0.866  -0.073  0.00  0.00    +0.020 A 
ATOM     21  C   UNL     1      -3.611  -2.247   0.024  0.00  0.00    +0.041 A 
ATOM     22  C   UNL     1      -2.393  -2.899   0.113  0.00  0.00    +0.020 A 
ATOM     23  C   UNL     1      -1.218  -2.176   0.107  0.00  0.00    +0.011 A 
ATOM     24 CL   UNL     1      -5.086  -3.162   0.033  0.00  0.00    -0.084 Cl
ENDBRANCH  15  18
ENDBRANCH   2  13
BRANCH   2  25
ATOM     25  C   UNL     1       0.322   4.279   0.903  0.00  0.00    +0.252 C 
ATOM     26  O   UNL     1       0.761   4.975   1.794  0.00  0.00    -0.272 OA
ATOM     27  N   UNL     1      -1.010   4.188   0.714  0.00  0.00    -0.327 N 
ATOM     28  H   UNL     1      -1.361   3.631   0.002  0.00  0.00    +0.145 HD
ATOM     29  H   UNL     1      -1.616   4.678   1.290  0.00  0.00    +0.145 HD
ENDBRANCH   2  25
TORSDOF 5
