REMARK  Name = ZINC45744067
REMARK  5 active torsions:
REMARK  status: ('A' for Active; 'I' for Inactive)
REMARK    1  A    between atoms: C_1  and  C_2
REMARK    2  A    between atoms: C_3  and  N_27
REMARK    3  A    between atoms: C_7  and  S_8
REMARK    4  A    between atoms: S_8  and  N_11
REMARK    5  A    between atoms: C_15  and  C_17
REMARK                            x       y       z     vdW  Elec       q    Type
REMARK                         _______ _______ _______ _____ _____    ______ ____
ROOT
ATOM      1  N   UNL     1       1.569   1.051   2.956  0.00  0.00    -0.166 NA
ATOM      2  C   UNL     1       2.866   0.635   3.519  0.00  0.00    +0.110 C 
ATOM      3  C   UNL     1       3.911   1.540   2.820  0.00  0.00    +0.019 C 
ATOM      4  C   UNL     1       3.142   2.884   2.722  0.00  0.00    +0.030 C 
ATOM      5  C   UNL     1       1.690   2.431   2.464  0.00  0.00    +0.148 C 
ENDROOT
BRANCH   5   6
ATOM      6  C   UNL     1       0.736   3.327   3.212  0.00  0.00    +0.152 A 
ATOM      7  N   UNL     1       0.540   3.345   4.504  0.00  0.00    -0.133 NA
ATOM      8  N   UNL     1      -0.338   4.240   4.797  0.00  0.00    -0.134 NA
ATOM      9  C   UNL     1      -0.737   4.833   3.708  0.00  0.00    +0.133 A 
ATOM     10  N   UNL     1      -0.072   4.267   2.674  0.00  0.00    -0.313 N 
ATOM     11  C   UNL     1      -0.220   4.600   1.257  0.00  0.00    +0.125 C 
ATOM     12  C   UNL     1      -0.650   6.063   1.121  0.00  0.00    +0.022 C 
ATOM     13  C   UNL     1      -2.175   6.156   1.145  0.00  0.00    +0.002 C 
ATOM     14  C   UNL     1      -2.722   5.634   2.469  0.00  0.00    +0.008 C 
ATOM     15  C   UNL     1      -1.740   5.951   3.594  0.00  0.00    +0.076 C 
ENDBRANCH   5   6
BRANCH   1  16
ATOM     16  S   UNL     1       0.204   0.117   2.884  0.00  0.00    +0.062 S 
ATOM     17  O   UNL     1      -0.879   0.999   2.624  0.00  0.00    -0.153 OA
ATOM     18  O   UNL     1       0.235  -0.737   4.019  0.00  0.00    -0.153 OA
BRANCH  16  25
ATOM     19  C   UNL     1       0.323   1.130   0.036  0.00  0.00    +0.048 C 
ATOM     20  C   UNL     1       0.404  -0.365   0.204  0.00  0.00    +0.006 A 
ATOM     21  C   UNL     1       0.531  -1.179  -0.905  0.00  0.00    +0.131 A 
ATOM     22  C   UNL     1       0.605  -2.551  -0.751  0.00  0.00    +0.033 A 
ATOM     23  C   UNL     1       0.554  -3.108   0.513  0.00  0.00    +0.004 A 
ATOM     24  C   UNL     1       0.428  -2.294   1.623  0.00  0.00    +0.029 A 
ATOM     25  C   UNL     1       0.358  -0.922   1.469  0.00  0.00    +0.111 A 
BRANCH  21  26
ATOM     26  N   UNL     1       0.587  -0.583  -2.259  0.00  0.00    +0.057 N 
ATOM     27  O   UNL     1       0.579  -1.296  -3.235  0.00  0.00    -0.126 OA
ATOM     28  O   UNL     1       0.640   0.618  -2.388  0.00  0.00    -0.126 OA
ENDBRANCH  21  26
ENDBRANCH  16  25
ENDBRANCH   1  16
TORSDOF 4
