REMARK  Name = ZINC17837880
REMARK  4 active torsions:
REMARK  status: ('A' for Active; 'I' for Inactive)
REMARK    1  A    between atoms: C_4  and  N_7
REMARK    2  A    between atoms: C_8  and  C_32
REMARK    3  A    between atoms: N_17  and  C_20
REMARK    4  A    between atoms: C_23  and  N_26
REMARK                            x       y       z     vdW  Elec       q    Type
REMARK                         _______ _______ _______ _____ _____    ______ ____
ROOT
ATOM      1  N   UNL     1       3.717  -0.666  -0.134  0.00  0.00    -0.244 N 
ATOM      2  C   UNL     1       3.883  -2.148  -0.064  0.00  0.00    +0.157 C 
ATOM      3  C   UNL     1       5.368  -2.324   0.224  0.00  0.00    +0.145 C 
ATOM      4  C   UNL     1       5.871  -1.033  -0.530  0.00  0.00    +0.249 C 
ATOM      5  O   UNL     1       5.033  -0.064  -0.056  0.00  0.00    -0.257 OA
ATOM      6  C   UNL     1       7.285  -1.324  -0.677  0.00  0.00    +0.259 C 
ATOM      7  O   UNL     1       8.205  -0.535  -0.656  0.00  0.00    -0.272 OA
ATOM      8  N   UNL     1       7.359  -2.683  -0.843  0.00  0.00    -0.208 N 
ATOM      9  C   UNL     1       6.184  -3.329  -0.526  0.00  0.00    +0.235 C 
ATOM     10  O   UNL     1       5.868  -4.468  -0.797  0.00  0.00    -0.274 OA
ENDROOT
BRANCH   2  11
ATOM     11  C   UNL     1       3.514  -2.786  -1.378  0.00  0.00    -0.019 A 
ATOM     12  C   UNL     1       2.964  -4.058  -1.420  0.00  0.00    +0.023 A 
ATOM     13  C   UNL     1       2.638  -4.611  -2.644  0.00  0.00    +0.083 A 
ATOM     14  N   UNL     1       2.845  -3.944  -3.762  0.00  0.00    -0.367 N 
ATOM     15  C   UNL     1       3.365  -2.732  -3.760  0.00  0.00    +0.083 A 
ATOM     16  C   UNL     1       3.710  -2.112  -2.574  0.00  0.00    +0.023 A 
ATOM     17  H   UNL     1       2.607  -4.355  -4.608  0.00  0.00    +0.165 HD
ENDBRANCH   2  11
BRANCH   1  21
ATOM     18  C   UNL     1       0.108   1.377  -0.506  0.00  0.00    +0.000 A 
ATOM     19  C   UNL     1       1.297   2.082  -0.442  0.00  0.00    +0.002 A 
ATOM     20  C   UNL     1       2.495   1.407  -0.318  0.00  0.00    +0.028 A 
ATOM     21  C   UNL     1       2.506   0.019  -0.258  0.00  0.00    +0.065 A 
ATOM     22  C   UNL     1       1.311  -0.685  -0.323  0.00  0.00    +0.028 A 
ATOM     23  C   UNL     1       0.116  -0.004  -0.447  0.00  0.00    +0.002 A 
ENDBRANCH   1  21
BRANCH   8  24
ATOM     24  C   UNL     1       8.513  -3.351  -1.280  0.00  0.00    +0.044 A 
ATOM     25  C   UNL     1       8.502  -4.731  -1.428  0.00  0.00    +0.026 A 
ATOM     26  C   UNL     1       9.637  -5.389  -1.858  0.00  0.00    +0.025 A 
ATOM     27  C   UNL     1      10.790  -4.670  -2.142  0.00  0.00    +0.030 A 
ATOM     28  C   UNL     1      10.801  -3.288  -1.994  0.00  0.00    +0.025 A 
ATOM     29  C   UNL     1       9.664  -2.631  -1.569  0.00  0.00    +0.026 A 
BRANCH  27  30
ATOM     30  N   UNL     1      11.940  -5.335  -2.577  0.00  0.00    -0.326 N 
ATOM     31  C   UNL     1      11.917  -6.778  -2.865  0.00  0.00    +0.133 C 
ATOM     32  C   UNL     1      12.527  -7.004  -4.253  0.00  0.00    +0.178 C 
ATOM     33  O   UNL     1      13.805  -6.365  -4.315  0.00  0.00    -0.377 OA
ATOM     34  C   UNL     1      13.757  -4.945  -4.154  0.00  0.00    +0.178 C 
ATOM     35  C   UNL     1      13.208  -4.613  -2.767  0.00  0.00    +0.133 C 
ENDBRANCH  27  30
ENDBRANCH   8  24
TORSDOF 4
