REMARK  Name = ZINC32594673
REMARK  7 active torsions:
REMARK  status: ('A' for Active; 'I' for Inactive)
REMARK    1  A    between atoms: C_3  and  C_28
REMARK    2  A    between atoms: C_5  and  N_7
REMARK    3  A    between atoms: C_8  and  C_10
REMARK    4  A    between atoms: C_10  and  C_11
REMARK    5  A    between atoms: N_17  and  N_18
REMARK    6  A    between atoms: C_19  and  C_20
REMARK    7  A    between atoms: C_23  and  N_26
REMARK                            x       y       z     vdW  Elec       q    Type
REMARK                         _______ _______ _______ _____ _____    ______ ____
ROOT
ATOM      1  C   UNL     1      -1.310  -4.810   0.304  0.00  0.00    +0.149 C 
ATOM      2  C   UNL     1      -1.323  -6.324   0.441  0.00  0.00    +0.233 C 
ATOM      3  O   UNL     1      -0.810  -6.891   1.383  0.00  0.00    -0.274 OA
ATOM      4  N   UNL     1      -1.928  -6.985  -0.530  0.00  0.00    -0.263 N 
ATOM      5  C   UNL     1      -2.514  -6.349  -1.605  0.00  0.00    +0.183 C 
ATOM      6  N   UNL     1      -3.142  -6.891  -2.627  0.00  0.00    -0.127 NA
ATOM      7  S   UNL     1      -2.222  -4.615  -1.282  0.00  0.00    -0.075 S 
ATOM      8  H   UNL     1      -1.962  -7.954  -0.486  0.00  0.00    +0.157 HD
ENDROOT
BRANCH   6   9
ATOM      9  N   UNL     1      -3.264  -8.173  -2.702  0.00  0.00    -0.155 NA
ATOM     10  C   UNL     1      -3.887  -8.711  -3.716  0.00  0.00    +0.143 C 
BRANCH  10  11
ATOM     11  C   UNL     1      -4.026 -10.173  -3.802  0.00  0.00    -0.005 A 
ATOM     12  C   UNL     1      -3.498 -10.988  -2.796  0.00  0.00    +0.011 A 
ATOM     13  C   UNL     1      -3.631 -12.357  -2.880  0.00  0.00    +0.023 A 
ATOM     14  C   UNL     1      -4.290 -12.928  -3.964  0.00  0.00    +0.025 A 
ATOM     15  C   UNL     1      -4.816 -12.120  -4.967  0.00  0.00    +0.023 A 
ATOM     16  C   UNL     1      -4.693 -10.751  -4.888  0.00  0.00    +0.011 A 
BRANCH  14  17
ATOM     17  N   UNL     1      -4.422 -14.314  -4.046  0.00  0.00    -0.358 N 
ATOM     18  H   UNL     1      -4.055 -14.878  -3.348  0.00  0.00    +0.142 HD
ATOM     19  H   UNL     1      -4.881 -14.714  -4.801  0.00  0.00    +0.142 HD
ENDBRANCH  14  17
ENDBRANCH  10  11
ENDBRANCH   6   9
BRANCH   1  20
ATOM     20  C   UNL     1       0.119  -4.276   0.192  0.00  0.00    +0.120 C 
BRANCH  20  22
ATOM     21  N   UNL     1       1.237  -2.080  -0.021  0.00  0.00    -0.285 N 
ATOM     22  C   UNL     1       0.087  -2.773   0.087  0.00  0.00    +0.219 C 
ATOM     23  O   UNL     1      -0.975  -2.187   0.101  0.00  0.00    -0.275 OA
ATOM     24  H   UNL     1       2.081  -2.551  -0.110  0.00  0.00    +0.155 HD
BRANCH  21  29
ATOM     25  C   UNL     1       2.115   1.418  -0.740  0.00  0.00    +0.002 A 
ATOM     26  C   UNL     1       1.173   2.086   0.021  0.00  0.00    +0.012 A 
ATOM     27  C   UNL     1       0.252   1.374   0.767  0.00  0.00    +0.057 A 
ATOM     28  C   UNL     1       0.271  -0.007   0.755  0.00  0.00    +0.035 A 
ATOM     29  C   UNL     1       1.216  -0.681  -0.007  0.00  0.00    +0.034 A 
ATOM     30  C   UNL     1       2.139   0.037  -0.756  0.00  0.00    +0.023 A 
BRANCH  27  31
ATOM     31  C   UNL     1      -0.772   2.106   1.595  0.00  0.00    +0.417 C 
ATOM     32  F   UNL     1      -0.593   3.485   1.448  0.00  0.00    -0.166 F 
ATOM     33  F   UNL     1      -2.057   1.754   1.166  0.00  0.00    -0.166 F 
ATOM     34  F   UNL     1      -0.619   1.757   2.942  0.00  0.00    -0.166 F 
ENDBRANCH  27  31
ENDBRANCH  21  29
ENDBRANCH  20  22
ENDBRANCH   1  20
TORSDOF 7
