REMARK  Name = ZINC39691336
REMARK  7 active torsions:
REMARK  status: ('A' for Active; 'I' for Inactive)
REMARK    1  A    between atoms: C_10  and  C_11
REMARK    2  A    between atoms: C_11  and  C_12
REMARK    3  A    between atoms: N_14  and  C_15
REMARK    4  A    between atoms: C_15  and  C_16
REMARK    5  A    between atoms: C_16  and  N_17
REMARK    6  A    between atoms: C_18  and  C_20
REMARK    7  A    between atoms: C_31  and  C_33
REMARK                            x       y       z     vdW  Elec       q    Type
REMARK                         _______ _______ _______ _____ _____    ______ ____
ROOT
ATOM      1  N   UNL     1       9.450   2.981   3.471  0.00  0.00    -0.314 N 
ATOM      2  C   UNL     1       9.170   4.083   4.194  0.00  0.00    +0.218 C 
ATOM      3  O   UNL     1       8.450   4.943   3.734  0.00  0.00    -0.275 OA
ATOM      4  H   UNL     1      10.026   2.292   3.838  0.00  0.00    +0.149 HD
ENDROOT
BRANCH   2   5
ATOM      5  C   UNL     1       9.752   4.245   5.575  0.00  0.00    +0.100 C 
ATOM      6  C   UNL     1       8.801   5.077   6.465  0.00  0.00    +0.121 C 
ATOM      7  N   UNL     1       9.700   5.912   7.295  0.00  0.00    -0.296 N 
ATOM      8  C   UNL     1      10.785   6.318   6.370  0.00  0.00    +0.115 C 
ATOM      9  C   UNL     1      11.053   5.064   5.515  0.00  0.00    -0.004 C 
ATOM     10  C   UNL     1      12.210   4.261   6.103  0.00  0.00    -0.010 C 
ATOM     11  C   UNL     1      13.502   5.073   5.980  0.00  0.00    -0.082 C 
ATOM     12  N   UNL     1      13.759   5.377   4.567  0.00  0.00    +0.379 N 
ATOM     13  C   UNL     1      12.687   6.226   4.035  0.00  0.00    -0.082 C 
ATOM     14  C   UNL     1      11.360   5.463   4.075  0.00  0.00    -0.010 C 
ATOM     15  C   UNL     1       9.562   6.231   8.598  0.00  0.00    +0.247 C 
ATOM     16  O   UNL     1       8.683   5.715   9.260  0.00  0.00    -0.270 OA
ATOM     17  H   UNL     1      14.642   5.858   4.483  0.00  0.00    -0.086 HD
ATOM     18  H   UNL     1      13.797   4.516   4.041  0.00  0.00    -0.086 HD
BRANCH  15  19
ATOM     19  C   UNL     1      10.481   7.208   9.220  0.00  0.00    +0.038 A 
ATOM     20  C   UNL     1      11.188   8.111   8.425  0.00  0.00    +0.013 A 
ATOM     21  C   UNL     1      12.043   9.021   9.011  0.00  0.00    +0.002 A 
ATOM     22  C   UNL     1      12.200   9.040  10.386  0.00  0.00    +0.020 A 
ATOM     23  C   UNL     1      11.502   8.148  11.181  0.00  0.00    +0.042 A 
ATOM     24  C   UNL     1      10.639   7.236  10.607  0.00  0.00    +0.033 A 
ATOM     25 CL   UNL     1      11.706   8.181  12.905  0.00  0.00    -0.084 Cl
ENDBRANCH  15  19
ENDBRANCH   2   5
BRANCH   1  26
ATOM     26  C   UNL     1       8.885   2.823   2.128  0.00  0.00    +0.123 C 
BRANCH  26  27
ATOM     27  C   UNL     1       9.356   1.496   1.530  0.00  0.00    +0.123 C 
BRANCH  27  30
ATOM     28  C   UNL     1       9.070   0.235  -0.536  0.00  0.00    +0.217 C 
ATOM     29  O   UNL     1       9.791  -0.625  -0.076  0.00  0.00    -0.275 OA
ATOM     30  N   UNL     1       8.790   1.337   0.188  0.00  0.00    -0.314 N 
ATOM     31  H   UNL     1       8.214   2.026  -0.180  0.00  0.00    +0.149 HD
BRANCH  28  32
ATOM     32  C   UNL     1       8.489   0.073  -1.917  0.00  0.00    +0.131 C 
BRANCH  32  42
ATOM     33  C   UNL     1       6.924  -4.796  -1.690  0.00  0.00    +0.001 A 
ATOM     34  C   UNL     1       6.481  -3.597  -1.135  0.00  0.00    +0.001 A 
ATOM     35  C   UNL     1       7.127  -2.426  -1.389  0.00  0.00    +0.009 A 
ATOM     36  C   UNL     1       8.259  -2.423  -2.222  0.00  0.00    -0.014 A 
ATOM     37  C   UNL     1       8.710  -3.643  -2.786  0.00  0.00    -0.018 A 
ATOM     38  C   UNL     1       8.016  -4.831  -2.502  0.00  0.00    +0.008 A 
ATOM     39  C   UNL     1       9.842  -3.639  -3.619  0.00  0.00    +0.008 A 
ATOM     40  C   UNL     1      10.488  -2.469  -3.872  0.00  0.00    +0.001 A 
ATOM     41  C   UNL     1      10.045  -1.270  -3.317  0.00  0.00    +0.005 A 
ATOM     42  C   UNL     1       8.952  -1.234  -2.506  0.00  0.00    -0.031 A 
ENDBRANCH  32  42
ENDBRANCH  28  32
ENDBRANCH  27  30
ENDBRANCH  26  27
ENDBRANCH   1  26
TORSDOF 7
