REMARK  Name = ZINC39582285
REMARK  9 active torsions:
REMARK  status: ('A' for Active; 'I' for Inactive)
REMARK    1  A    between atoms: C_1  and  C_2
REMARK    2  A    between atoms: C_2  and  N_3
REMARK    3  A    between atoms: N_6  and  C_9
REMARK    4  A    between atoms: C_9  and  C_11
REMARK    5  A    between atoms: C_9  and  C_12
REMARK    6  A    between atoms: N_14  and  C_15
REMARK    7  A    between atoms: C_23  and  C_25
REMARK    8  A    between atoms: C_25  and  O_27
REMARK    9  A    between atoms: O_27  and  C_28
REMARK                            x       y       z     vdW  Elec       q    Type
REMARK                         _______ _______ _______ _____ _____    ______ ____
ROOT
ATOM      1  C   UNL     1      -4.947  -4.143  -1.190  0.00  0.00    +0.234 C 
ATOM      2  O   UNL     1      -3.859  -4.651  -1.357  0.00  0.00    -0.274 OA
ATOM      3  N   UNL     1      -6.040  -4.919  -1.053  0.00  0.00    -0.285 N 
ATOM      4  H   UNL     1      -6.902  -4.515  -0.870  0.00  0.00    +0.155 HD
ENDROOT
BRANCH   3   5
ATOM      5  C   UNL     1      -5.933  -6.272  -1.170  0.00  0.00    +0.053 C 
ATOM      6  C   UNL     1      -6.966  -7.182  -1.319  0.00  0.00    +0.019 A 
ATOM      7  C   UNL     1      -8.371  -7.027  -1.392  0.00  0.00    +0.031 A 
ATOM      8  C   UNL     1      -9.161  -8.121  -1.541  0.00  0.00    +0.042 A 
ATOM      9  C   UNL     1      -8.621  -9.408  -1.626  0.00  0.00    +0.022 A 
ATOM     10  C   UNL     1      -7.286  -9.630  -1.563  0.00  0.00    +0.027 A 
ATOM     11  C   UNL     1      -6.395  -8.537  -1.408  0.00  0.00    +0.045 A 
ATOM     12  N   UNL     1      -5.081  -8.489  -1.322  0.00  0.00    -0.367 N 
ATOM     13  C   UNL     1      -4.661  -7.091  -1.173  0.00  0.00    +0.234 C 
ATOM     14 CL   UNL     1     -10.883  -7.916  -1.629  0.00  0.00    -0.084 Cl
ATOM     15  H   UNL     1      -4.486  -9.254  -1.355  0.00  0.00    +0.161 HD
BRANCH  13  16
ATOM     16  C   UNL     1      -3.925  -6.909   0.129  0.00  0.00    +0.335 C 
ATOM     17  O   UNL     1      -3.982  -7.765   0.980  0.00  0.00    -0.248 OA
BRANCH  16  18
ATOM     18  O   UNL     1      -3.205  -5.797   0.343  0.00  0.00    -0.466 OA
ATOM     19  C   UNL     1      -2.532  -5.691   1.599  0.00  0.00    +0.280 C 
ENDBRANCH  16  18
ENDBRANCH  13  16
ENDBRANCH   3   5
BRANCH   1  20
ATOM     20  C   UNL     1      -5.077  -2.642  -1.138  0.00  0.00    +0.140 C 
ATOM     21  C   UNL     1      -5.657  -2.228   0.216  0.00  0.00    +0.034 C 
BRANCH  20  25
ATOM     22  N   UNL     1      -1.571  -0.361  -0.531  0.00  0.00    +0.381 N 
ATOM     23  C   UNL     1      -2.467   0.030  -1.626  0.00  0.00    -0.063 C 
ATOM     24  C   UNL     1      -3.857  -0.565  -1.385  0.00  0.00    +0.066 C 
ATOM     25  N   UNL     1      -3.753  -2.029  -1.312  0.00  0.00    -0.295 NA
ATOM     26  C   UNL     1      -2.839  -2.435  -0.236  0.00  0.00    +0.066 C 
ATOM     27  C   UNL     1      -1.458  -1.825  -0.486  0.00  0.00    -0.063 C 
ATOM     28  H   UNL     1      -1.944  -0.026   0.345  0.00  0.00    -0.082 HD
BRANCH  22  30
ATOM     29  C   UNL     1      -0.338   1.750  -0.675  0.00  0.00    -0.017 C 
ATOM     30  C   UNL     1      -0.242   0.225  -0.753  0.00  0.00    -0.082 C 
ENDBRANCH  22  30
ENDBRANCH  20  25
ENDBRANCH   1  20
TORSDOF 6
