REMARK  Name = ZINC39674807
REMARK  12 active torsions:
REMARK  status: ('A' for Active; 'I' for Inactive)
REMARK    1  A    between atoms: C_1  and  C_2
REMARK    2  A    between atoms: C_4  and  C_11
REMARK    3  A    between atoms: N_5  and  C_7
REMARK    4  A    between atoms: C_7  and  C_8
REMARK    5  A    between atoms: C_7  and  C_9
REMARK    6  A    between atoms: C_7  and  C_10
REMARK    7  A    between atoms: C_15  and  C_24
REMARK    8  A    between atoms: N_26  and  C_27
REMARK    9  A    between atoms: C_27  and  C_28
REMARK   10  A    between atoms: C_28  and  C_29
REMARK   11  A    between atoms: C_32  and  C_40
REMARK   12  A    between atoms: C_37  and  C_39
REMARK                            x       y       z     vdW  Elec       q    Type
REMARK                         _______ _______ _______ _____ _____    ______ ____
ROOT
ATOM      1  C   UNL     1      -0.571  -3.605  -1.416  0.00  0.00    +0.265 C 
ATOM      2  O   UNL     1      -0.779  -3.646  -2.614  0.00  0.00    -0.268 OA
ATOM      3  N   UNL     1      -0.521  -4.747  -0.701  0.00  0.00    -0.295 N 
ATOM      4  C   UNL     1      -0.413  -4.893   0.769  0.00  0.00    +0.121 C 
ATOM      5  C   UNL     1      -1.341  -6.080   1.113  0.00  0.00    +0.100 C 
ATOM      6  C   UNL     1      -1.434  -6.894  -0.188  0.00  0.00    -0.004 C 
ATOM      7  C   UNL     1      -0.570  -6.139  -1.208  0.00  0.00    +0.115 C 
ATOM      8  C   UNL     1      -2.880  -6.954  -0.672  0.00  0.00    -0.010 C 
ATOM      9  C   UNL     1      -2.955  -7.816  -1.935  0.00  0.00    -0.082 C 
ATOM     10  N   UNL     1      -2.462  -9.166  -1.638  0.00  0.00    +0.379 N 
ATOM     11  C   UNL     1      -1.044  -9.110  -1.262  0.00  0.00    -0.082 C 
ATOM     12  C   UNL     1      -0.887  -8.302   0.029  0.00  0.00    -0.010 C 
ATOM     13  H   UNL     1      -2.995  -9.558  -0.875  0.00  0.00    -0.086 HD
ATOM     14  H   UNL     1      -2.569  -9.750  -2.454  0.00  0.00    -0.086 HD
ENDROOT
BRANCH   1  18
ATOM     15  C   UNL     1       0.446   0.023   1.978  0.00  0.00    +0.067 C 
ATOM     16  C   UNL     1       0.068  -0.715   0.720  0.00  0.00    +0.061 A 
ATOM     17  C   UNL     1       0.023  -2.102   0.562  0.00  0.00    +0.057 A 
ATOM     18  C   UNL     1      -0.372  -2.309  -0.748  0.00  0.00    +0.124 A 
ATOM     19  N   UNL     1      -0.541  -1.069  -1.297  0.00  0.00    -0.254 N 
ATOM     20  N   UNL     1      -0.282  -0.170  -0.417  0.00  0.00    -0.175 NA
BRANCH  19  21
ATOM     21  C   UNL     1      -0.958  -0.806  -2.676  0.00  0.00    +0.056 C 
ATOM     22  C   UNL     1      -2.277  -1.529  -2.956  0.00  0.00    +0.036 C 
ATOM     23  C   UNL     1      -1.149   0.699  -2.873  0.00  0.00    +0.036 C 
ATOM     24  C   UNL     1       0.116  -1.315  -3.640  0.00  0.00    +0.036 C 
ENDBRANCH  19  21
ENDBRANCH   1  18
BRANCH   5  25
ATOM     25  C   UNL     1      -2.703  -5.580   1.521  0.00  0.00    +0.218 C 
ATOM     26  O   UNL     1      -3.147  -4.564   1.031  0.00  0.00    -0.275 OA
ATOM     27  N   UNL     1      -3.426  -6.263   2.430  0.00  0.00    -0.315 N 
ATOM     28  H   UNL     1      -3.041  -7.031   2.879  0.00  0.00    +0.149 HD
BRANCH  27  29
ATOM     29  C   UNL     1      -4.796  -5.844   2.739  0.00  0.00    +0.108 C 
BRANCH  29  30
ATOM     30  C   UNL     1      -5.389  -6.780   3.795  0.00  0.00    +0.052 C 
BRANCH  30  31
ATOM     31  C   UNL     1      -6.798  -6.350   4.113  0.00  0.00    -0.037 C 
ATOM     32  C   UNL     1      -7.475  -5.307   3.569  0.00  0.00    +0.000 A 
ATOM     33  C   UNL     1      -7.108  -4.346   2.591  0.00  0.00    +0.028 A 
ATOM     34  C   UNL     1      -8.002  -3.372   2.210  0.00  0.00    +0.052 A 
ATOM     35  C   UNL     1      -9.338  -3.300   2.793  0.00  0.00    +0.021 A 
ATOM     36  C   UNL     1      -9.742  -4.187   3.726  0.00  0.00    +0.027 A 
ATOM     37  C   UNL     1      -8.827  -5.246   4.168  0.00  0.00    +0.043 A 
ATOM     38  N   UNL     1      -8.980  -6.208   5.045  0.00  0.00    -0.378 N 
ATOM     39  C   UNL     1      -7.745  -6.996   5.099  0.00  0.00    +0.103 C 
ATOM     40  C   UNL     1      -8.021  -8.445   4.692  0.00  0.00    +0.035 C 
ATOM     41  H   UNL     1      -9.780  -6.374   5.568  0.00  0.00    +0.160 HD
BRANCH  34  42
ATOM     42  C   UNL     1      -7.615  -2.410   1.223  0.00  0.00    +0.099 C 
ATOM     43  N   UNL     1      -7.307  -1.647   0.439  0.00  0.00    -0.191 NA
ENDBRANCH  34  42
ENDBRANCH  30  31
ENDBRANCH  29  30
ENDBRANCH  27  29
ENDBRANCH   5  25
TORSDOF 7
