REMARK  Name = ZINC63710440
REMARK  6 active torsions:
REMARK  status: ('A' for Active; 'I' for Inactive)
REMARK    1  A    between atoms: C_1  and  C_2
REMARK    2  A    between atoms: C_2  and  C_3
REMARK    3  A    between atoms: C_2  and  N_4
REMARK    4  A    between atoms: C_8  and  C_10
REMARK    5  A    between atoms: C_10  and  N_11
REMARK    6  A    between atoms: C_12  and  C_14
REMARK                            x       y       z     vdW  Elec       q    Type
REMARK                         _______ _______ _______ _____ _____    ______ ____
ROOT
ATOM      1  N   UNL     1       4.826  -0.169  -3.804  0.00  0.00    -0.310 N 
ATOM      2  C   UNL     1       6.100   0.204  -4.038  0.00  0.00    +0.265 C 
ATOM      3  O   UNL     1       6.727   0.796  -3.181  0.00  0.00    -0.268 OA
ATOM      4  H   UNL     1       4.326  -0.641  -4.488  0.00  0.00    +0.149 HD
ENDROOT
BRANCH   2   5
ATOM      5  C   UNL     1       6.733  -0.104  -5.335  0.00  0.00    +0.153 A 
ATOM      6  C   UNL     1       8.125   0.294  -5.598  0.00  0.00    +0.020 A 
ATOM      7  C   UNL     1       8.905   0.968  -4.664  0.00  0.00    +0.011 A 
ATOM      8  C   UNL     1      10.202   1.308  -4.985  0.00  0.00    +0.001 A 
ATOM      9  C   UNL     1      10.735   0.987  -6.226  0.00  0.00    +0.001 A 
ATOM     10  C   UNL     1       9.980   0.320  -7.166  0.00  0.00    +0.014 A 
ATOM     11  C   UNL     1       8.669  -0.034  -6.862  0.00  0.00    +0.050 A 
ATOM     12  C   UNL     1       7.794  -0.745  -7.804  0.00  0.00    +0.272 A 
ATOM     13  O   UNL     1       8.195  -1.060  -8.910  0.00  0.00    -0.266 OA
ATOM     14  N   UNL     1       6.537  -1.042  -7.415  0.00  0.00    -0.242 N 
ATOM     15  H   UNL     1       5.963  -1.512  -8.040  0.00  0.00    +0.192 HD
ATOM     16  N   UNL     1       6.064  -0.742  -6.265  0.00  0.00    -0.166 NA
ENDBRANCH   2   5
BRANCH   1  17
ATOM     17  C   UNL     1       4.197   0.137  -2.517  0.00  0.00    +0.106 C 
BRANCH  17  22
ATOM     18  N   UNL     1       0.690  -0.478  -1.207  0.00  0.00    +0.381 N 
ATOM     19  C   UNL     1       0.701  -1.946  -1.218  0.00  0.00    -0.078 C 
ATOM     20  C   UNL     1       1.344  -2.445  -2.514  0.00  0.00    -0.018 C 
ATOM     21  C   UNL     1       2.781  -1.921  -2.599  0.00  0.00    +0.001 C 
ATOM     22  C   UNL     1       2.762  -0.392  -2.511  0.00  0.00    -0.011 C 
ATOM     23  C   UNL     1       2.067   0.031  -1.216  0.00  0.00    -0.074 C 
ATOM     24  H   UNL     1       0.202  -0.141  -2.023  0.00  0.00    -0.081 HD
BRANCH  18  26
ATOM     25  C   UNL     1      -0.019   1.526   0.010  0.00  0.00    -0.014 C 
ATOM     26  C   UNL     1       0.002  -0.004   0.002  0.00  0.00    -0.075 C 
ATOM     27  C   UNL     1      -1.433  -0.534   0.013  0.00  0.00    -0.014 C 
ENDBRANCH  18  26
ENDBRANCH  17  22
ENDBRANCH   1  17
TORSDOF 4
