REMARK  Name = ZINC39678257
REMARK  8 active torsions:
REMARK  status: ('A' for Active; 'I' for Inactive)
REMARK    1  A    between atoms: C_1  and  C_2
REMARK    2  A    between atoms: C_2  and  O_3
REMARK    3  A    between atoms: O_3  and  C_4
REMARK    4  A    between atoms: C_7  and  C_10
REMARK    5  A    between atoms: C_14  and  C_23
REMARK    6  A    between atoms: N_25  and  C_26
REMARK    7  A    between atoms: C_26  and  C_27
REMARK    8  A    between atoms: C_32  and  N_33
REMARK                            x       y       z     vdW  Elec       q    Type
REMARK                         _______ _______ _______ _____ _____    ______ ____
ROOT
ATOM      1  C   UNL     1      -1.942  -5.819  -0.475  0.00  0.00    +0.247 C 
ATOM      2  O   UNL     1      -1.028  -6.614  -0.367  0.00  0.00    -0.270 OA
ATOM      3  N   UNL     1      -3.209  -6.261  -0.600  0.00  0.00    -0.296 N 
ATOM      4  C   UNL     1      -4.450  -5.455  -0.675  0.00  0.00    +0.121 C 
ATOM      5  C   UNL     1      -5.321  -6.176  -1.728  0.00  0.00    +0.100 C 
ATOM      6  C   UNL     1      -4.810  -7.626  -1.733  0.00  0.00    -0.004 C 
ATOM      7  C   UNL     1      -3.675  -7.665  -0.699  0.00  0.00    +0.115 C 
ATOM      8  C   UNL     1      -4.270  -7.991  -3.113  0.00  0.00    -0.010 C 
ATOM      9  C   UNL     1      -3.821  -9.455  -3.109  0.00  0.00    -0.082 C 
ATOM     10  N   UNL     1      -4.957 -10.317  -2.762  0.00  0.00    +0.379 N 
ATOM     11  C   UNL     1      -5.411 -10.022  -1.398  0.00  0.00    -0.082 C 
ATOM     12  C   UNL     1      -5.928  -8.582  -1.329  0.00  0.00    -0.010 C 
ATOM     13  H   UNL     1      -5.713 -10.151  -3.410  0.00  0.00    -0.086 HD
ATOM     14  H   UNL     1      -4.674 -11.284  -2.820  0.00  0.00    -0.086 HD
ENDROOT
BRANCH   1  18
ATOM     15  C   UNL     1      -1.142  -1.648  -0.460  0.00  0.00    +0.121 A 
ATOM     16  C   UNL     1      -0.152  -2.542  -0.849  0.00  0.00    +0.046 A 
ATOM     17  C   UNL     1      -0.407  -3.896  -0.855  0.00  0.00    +0.016 A 
ATOM     18  C   UNL     1      -1.664  -4.369  -0.469  0.00  0.00    +0.037 A 
ATOM     19  C   UNL     1      -2.657  -3.467  -0.078  0.00  0.00    +0.016 A 
ATOM     20  C   UNL     1      -2.392  -2.116  -0.070  0.00  0.00    +0.046 A 
BRANCH  15  21
ATOM     21  O   UNL     1      -0.887  -0.315  -0.455  0.00  0.00    -0.492 OA
BRANCH  21  23
ATOM     22  C   UNL     1       0.432   1.634  -1.003  0.00  0.00    +0.048 C 
ATOM     23  C   UNL     1       0.374   0.105  -0.979  0.00  0.00    +0.225 C 
ENDBRANCH  21  23
ENDBRANCH  15  21
ENDBRANCH   1  18
BRANCH   5  24
ATOM     24  C   UNL     1      -5.134  -5.546  -3.084  0.00  0.00    +0.218 C 
ATOM     25  O   UNL     1      -4.055  -5.088  -3.397  0.00  0.00    -0.275 OA
ATOM     26  N   UNL     1      -6.165  -5.492  -3.950  0.00  0.00    -0.311 N 
ATOM     27  H   UNL     1      -7.046  -5.793  -3.675  0.00  0.00    +0.149 HD
BRANCH  26  28
ATOM     28  C   UNL     1      -5.957  -4.979  -5.306  0.00  0.00    +0.141 C 
BRANCH  28  29
ATOM     29  C   UNL     1      -7.279  -4.910  -6.026  0.00  0.00    -0.009 A 
ATOM     30  C   UNL     1      -7.621  -5.889  -6.939  0.00  0.00    +0.007 A 
ATOM     31  C   UNL     1      -8.833  -5.827  -7.601  0.00  0.00    +0.000 A 
ATOM     32  C   UNL     1      -9.709  -4.786  -7.350  0.00  0.00    +0.002 A 
ATOM     33  C   UNL     1      -9.374  -3.805  -6.438  0.00  0.00    +0.023 A 
ATOM     34  C   UNL     1      -8.159  -3.867  -5.768  0.00  0.00    +0.034 A 
BRANCH  34  35
ATOM     35  N   UNL     1      -7.819  -2.878  -4.841  0.00  0.00    -0.330 N 
ATOM     36  C   UNL     1      -7.189  -1.625  -5.280  0.00  0.00    +0.105 C 
ATOM     37  C   UNL     1      -8.008  -0.448  -4.741  0.00  0.00    +0.019 C 
ATOM     38  C   UNL     1      -8.150  -0.582  -3.223  0.00  0.00    +0.003 C 
ATOM     39  C   UNL     1      -8.893  -1.878  -2.892  0.00  0.00    +0.019 C 
ATOM     40  C   UNL     1      -8.090  -3.070  -3.410  0.00  0.00    +0.105 C 
ENDBRANCH  34  35
ENDBRANCH  28  29
ENDBRANCH  26  28
ENDBRANCH   5  24
TORSDOF 7
