REMARK  Name = ZINC33705517
REMARK  10 active torsions:
REMARK  status: ('A' for Active; 'I' for Inactive)
REMARK    1  A    between atoms: C_1  and  C_2
REMARK    2  A    between atoms: C_2  and  O_3
REMARK    3  A    between atoms: O_3  and  C_4
REMARK    4  A    between atoms: C_4  and  C_6
REMARK    5  A    between atoms: C_9  and  N_12
REMARK    6  A    between atoms: N_14  and  C_31
REMARK    7  A    between atoms: C_18  and  C_21
REMARK    8  A    between atoms: N_23  and  C_24
REMARK    9  A    between atoms: C_31  and  C_32
REMARK   10  A    between atoms: C_32  and  C_33
REMARK                            x       y       z     vdW  Elec       q    Type
REMARK                         _______ _______ _______ _____ _____    ______ ____
ROOT
ATOM      1  N   UNL     1       3.350  -3.852  -5.811  0.00  0.00    -0.226 NA
ATOM      2  C   UNL     1       4.208  -4.842  -5.691  0.00  0.00    +0.164 C 
ATOM      3  N   UNL     1       4.862  -5.364  -6.790  0.00  0.00    -0.250 N 
ATOM      4  C   UNL     1       5.487  -6.531  -6.800  0.00  0.00    +0.223 C 
ATOM      5  O   UNL     1       5.894  -6.900  -7.882  0.00  0.00    -0.275 OA
ATOM      6  C   UNL     1       5.758  -7.451  -5.660  0.00  0.00    +0.120 C 
ATOM      7  C   UNL     1       4.717  -7.324  -4.546  0.00  0.00    +0.149 C 
ATOM      8  S   UNL     1       4.578  -5.555  -4.111  0.00  0.00    -0.077 S 
ENDROOT
BRANCH   1  12
ATOM      9  C   UNL     1       1.456  -2.345  -2.467  0.00  0.00    +0.059 A 
ATOM     10  C   UNL     1       1.996  -1.472  -3.419  0.00  0.00    +0.017 A 
ATOM     11  C   UNL     1       2.622  -1.970  -4.524  0.00  0.00    +0.028 A 
ATOM     12  C   UNL     1       2.725  -3.354  -4.706  0.00  0.00    +0.067 A 
ATOM     13  C   UNL     1       2.186  -4.228  -3.753  0.00  0.00    +0.028 A 
ATOM     14  C   UNL     1       1.565  -3.729  -2.646  0.00  0.00    +0.017 A 
BRANCH   9  15
ATOM     15  C   UNL     1       0.781  -1.807  -1.274  0.00  0.00    +0.339 C 
ATOM     16  O   UNL     1       0.318  -2.565  -0.445  0.00  0.00    -0.245 OA
BRANCH  15  17
ATOM     17  O   UNL     1       0.677  -0.475  -1.102  0.00  0.00    -0.461 OA
BRANCH  17  19
ATOM     18  C   UNL     1      -0.010   1.506   0.099  0.00  0.00    +0.048 C 
ATOM     19  C   UNL     1       0.010  -0.023   0.078  0.00  0.00    +0.229 C 
ENDBRANCH  17  19
ENDBRANCH  15  17
ENDBRANCH   9  15
ENDBRANCH   1  12
BRANCH   7  20
ATOM     20  C   UNL     1       5.161  -8.113  -3.341  0.00  0.00    +0.231 C 
ATOM     21  O   UNL     1       6.340  -8.182  -3.062  0.00  0.00    -0.274 OA
ATOM     22  N   UNL     1       4.249  -8.741  -2.574  0.00  0.00    -0.282 N 
ATOM     23  H   UNL     1       3.303  -8.633  -2.758  0.00  0.00    +0.155 HD
BRANCH  22  24
ATOM     24  C   UNL     1       4.667  -9.550  -1.509  0.00  0.00    +0.069 A 
ATOM     25  C   UNL     1       5.797  -9.209  -0.779  0.00  0.00    +0.026 A 
ATOM     26  C   UNL     1       6.207 -10.008   0.270  0.00  0.00    +0.002 A 
ATOM     27  C   UNL     1       5.493 -11.147   0.595  0.00  0.00    +0.003 A 
ATOM     28  C   UNL     1       4.367 -11.491  -0.129  0.00  0.00    +0.040 A 
ATOM     29  C   UNL     1       3.947 -10.692  -1.178  0.00  0.00    +0.144 A 
ATOM     30  F   UNL     1       2.843 -11.025  -1.882  0.00  0.00    -0.204 F 
ENDBRANCH  22  24
ENDBRANCH   7  20
BRANCH   3  31
ATOM     31  C   UNL     1       4.864  -4.575  -8.024  0.00  0.00    +0.120 C 
BRANCH  31  32
ATOM     32  C   UNL     1       6.083  -3.651  -8.037  0.00  0.00    +0.054 C 
BRANCH  32  33
ATOM     33  C   UNL     1       6.084  -2.839  -9.307  0.00  0.00    -0.046 A 
ATOM     34  C   UNL     1       6.721  -3.322 -10.435  0.00  0.00    +0.004 A 
ATOM     35  C   UNL     1       6.722  -2.578 -11.600  0.00  0.00    +0.000 A 
ATOM     36  C   UNL     1       6.087  -1.350 -11.637  0.00  0.00    +0.000 A 
ATOM     37  C   UNL     1       5.450  -0.868 -10.509  0.00  0.00    +0.000 A 
ATOM     38  C   UNL     1       5.445  -1.614  -9.345  0.00  0.00    +0.004 A 
ENDBRANCH  32  33
ENDBRANCH  31  32
ENDBRANCH   3  31
TORSDOF 9
