REMARK  Name = ZINC09414090
REMARK  4 active torsions:
REMARK  status: ('A' for Active; 'I' for Inactive)
REMARK    1  A    between atoms: C_4  and  C_7
REMARK    2  A    between atoms: C_12  and  N_21
REMARK    3  A    between atoms: C_14  and  C_16
REMARK    4  A    between atoms: C_24  and  C_27
REMARK                            x       y       z     vdW  Elec       q    Type
REMARK                         _______ _______ _______ _____ _____    ______ ____
ROOT
ATOM      1  C   UNL     1       1.106   2.293  -1.158  0.00  0.00    +0.002 A 
ATOM      2  C   UNL     1       0.078   1.573  -1.665  0.00  0.00    +0.056 A 
ATOM      3  S   UNL     1      -1.356   2.551  -1.260  0.00  0.00    -0.076 S 
ATOM      4  C   UNL     1      -0.555   3.888  -0.415  0.00  0.00    +0.114 A 
ATOM      5  C   UNL     1       0.814   3.549  -0.475  0.00  0.00    +0.055 A 
ATOM      6  C   UNL     1       1.704   4.474   0.137  0.00  0.00    +0.134 A 
ATOM      7  N   UNL     1       1.217   5.562   0.706  0.00  0.00    -0.211 NA
ATOM      8  C   UNL     1      -0.088   5.824   0.728  0.00  0.00    +0.169 A 
ATOM      9  N   UNL     1      -0.965   4.994   0.172  0.00  0.00    -0.219 NA
ENDROOT
BRANCH   6  10
ATOM     10  N   UNL     1       3.067   4.238   0.134  0.00  0.00    -0.317 N 
ATOM     11  C   UNL     1       3.801   5.395  -0.397  0.00  0.00    +0.087 C 
ATOM     12  C   UNL     1       5.295   5.064  -0.457  0.00  0.00    -0.062 C 
ATOM     13  C   UNL     1       5.036   3.556   1.419  0.00  0.00    +0.033 C 
ATOM     14  C   UNL     1       3.543   3.887   1.479  0.00  0.00    +0.100 C 
ATOM     15  N   UNL     1       5.778   4.718   0.893  0.00  0.00    +0.389 N 
ATOM     16  H   UNL     1       5.639   5.520   1.519  0.00  0.00    -0.085 HD
ATOM     17  H   UNL     1       6.778   4.489   0.847  0.00  0.00    -0.085 HD
BRANCH  13  18
ATOM     18  C   UNL     1       5.536   3.235   2.804  0.00  0.00    +0.198 C 
ATOM     19  O   UNL     1       6.130   4.076   3.444  0.00  0.00    -0.278 OA
ATOM     20  N   UNL     1       5.324   2.013   3.331  0.00  0.00    -0.331 N 
ATOM     21  H   UNL     1       4.848   1.340   2.818  0.00  0.00    +0.145 HD
ATOM     22  H   UNL     1       5.646   1.806   4.222  0.00  0.00    +0.145 HD
ENDBRANCH  13  18
ENDBRANCH   6  10
BRANCH   1  26
ATOM     23  C   UNL     1       5.110   0.920  -1.547  0.00  0.00    +0.000 A 
ATOM     24  C   UNL     1       4.165   0.121  -0.929  0.00  0.00    +0.001 A 
ATOM     25  C   UNL     1       2.863   0.561  -0.800  0.00  0.00    +0.008 A 
ATOM     26  C   UNL     1       2.502   1.815  -1.293  0.00  0.00    -0.017 A 
ATOM     27  C   UNL     1       3.458   2.613  -1.919  0.00  0.00    +0.008 A 
ATOM     28  C   UNL     1       4.758   2.165  -2.038  0.00  0.00    +0.001 A 
ENDBRANCH   1  26
BRANCH   8  29
ATOM     29  C   UNL     1      -0.570   7.057   1.380  0.00  0.00    +0.056 A 
ATOM     30  C   UNL     1      -1.853   7.520   1.511  0.00  0.00    +0.019 A 
ATOM     31  C   UNL     1      -2.063   8.709   2.170  0.00  0.00    +0.008 A 
ATOM     32  C   UNL     1      -0.995   9.392   2.661  0.00  0.00    +0.046 A 
ATOM     33  S   UNL     1       0.368   8.338   2.196  0.00  0.00    -0.094 S 
ENDBRANCH   8  29
TORSDOF 4
