REMARK  Name = ZINC40138791
REMARK  9 active torsions:
REMARK  status: ('A' for Active; 'I' for Inactive)
REMARK    1  A    between atoms: C_4  and  C_7
REMARK    2  A    between atoms: N_9  and  C_10
REMARK    3  A    between atoms: C_10  and  C_11
REMARK    4  A    between atoms: N_13  and  N_14
REMARK    5  A    between atoms: N_22  and  C_25
REMARK    6  A    between atoms: C_25  and  C_26
REMARK    7  A    between atoms: C_26  and  C_27
REMARK    8  A    between atoms: C_27  and  O_28
REMARK    9  A    between atoms: O_28  and  C_29
REMARK                            x       y       z     vdW  Elec       q    Type
REMARK                         _______ _______ _______ _____ _____    ______ ____
ROOT
ATOM      1  N   UNL     1       5.551  -6.471  -0.086  0.00  0.00    -0.174 NA
ATOM      2  C   UNL     1       6.555  -7.305  -0.200  0.00  0.00    +0.153 C 
ATOM      3  C   UNL     1       8.000  -6.979  -0.224  0.00  0.00    +0.028 A 
ATOM      4  C   UNL     1       8.709  -5.786  -0.141  0.00  0.00    +0.012 A 
ATOM      5  C   UNL     1      10.088  -5.803  -0.193  0.00  0.00    +0.001 A 
ATOM      6  C   UNL     1      10.762  -7.005  -0.328  0.00  0.00    +0.002 A 
ATOM      7  C   UNL     1      10.068  -8.195  -0.411  0.00  0.00    +0.024 A 
ATOM      8  C   UNL     1       8.678  -8.197  -0.360  0.00  0.00    +0.046 A 
ATOM      9  N   UNL     1       7.753  -9.234  -0.420  0.00  0.00    -0.265 N 
ATOM     10  C   UNL     1       6.494  -8.775  -0.325  0.00  0.00    +0.271 C 
ATOM     11  O   UNL     1       5.482  -9.451  -0.343  0.00  0.00    -0.268 OA
ENDROOT
BRANCH   1  14
ATOM     12  C   UNL     1       4.763  -4.229   0.067  0.00  0.00    +0.249 C 
ATOM     13  O   UNL     1       3.658  -4.650   0.334  0.00  0.00    -0.272 OA
ATOM     14  N   UNL     1       5.775  -5.090  -0.159  0.00  0.00    -0.205 N 
ATOM     15  H   UNL     1       6.659  -4.753  -0.373  0.00  0.00    +0.177 HD
BRANCH  12  16
ATOM     16  C   UNL     1       5.005  -2.744  -0.011  0.00  0.00    +0.202 C 
BRANCH  16  19
ATOM     17  C   UNL     1       3.733  -0.683   0.260  0.00  0.00    +0.244 C 
ATOM     18  O   UNL     1       4.747  -0.059   0.011  0.00  0.00    -0.270 OA
ATOM     19  N   UNL     1       3.757  -2.030   0.273  0.00  0.00    -0.303 N 
ATOM     20  H   UNL     1       2.948  -2.528   0.471  0.00  0.00    +0.150 HD
BRANCH  17  24
ATOM     21  C   UNL     1       0.116   1.385   1.083  0.00  0.00    +0.000 A 
ATOM     22  C   UNL     1       1.268   2.098   0.801  0.00  0.00    +0.001 A 
ATOM     23  C   UNL     1       2.446   1.432   0.533  0.00  0.00    +0.013 A 
ATOM     24  C   UNL     1       2.474   0.037   0.546  0.00  0.00    +0.037 A 
ATOM     25  C   UNL     1       1.308  -0.676   0.832  0.00  0.00    +0.013 A 
ATOM     26  C   UNL     1       0.137   0.002   1.098  0.00  0.00    +0.001 A 
ENDBRANCH  17  24
ENDBRANCH  16  19
ENDBRANCH  12  16
ENDBRANCH   1  14
BRANCH   9  27
ATOM     27  C   UNL     1       8.108 -10.648  -0.563  0.00  0.00    +0.117 C 
BRANCH  27  28
ATOM     28  C   UNL     1       8.284 -11.272   0.823  0.00  0.00    +0.060 C 
BRANCH  28  29
ATOM     29  C   UNL     1       8.654 -12.749   0.675  0.00  0.00    +0.230 C 
BRANCH  29  30
ATOM     30  O   UNL     1       8.819 -13.331   1.969  0.00  0.00    -0.491 OA
BRANCH  30  31
ATOM     31  C   UNL     1       9.151 -14.647   2.016  0.00  0.00    +0.128 A 
ATOM     32  C   UNL     1       9.319 -15.356   0.859  0.00  0.00    +0.046 A 
ATOM     33  C   UNL     1       9.660 -16.705   0.889  0.00  0.00    +0.004 A 
ATOM     34  C   UNL     1       9.836 -17.358   2.071  0.00  0.00    +0.009 A 
ATOM     35  C   UNL     1       9.672 -16.666   3.283  0.00  0.00    -0.014 A 
ATOM     36  C   UNL     1       9.331 -15.291   3.257  0.00  0.00    +0.024 A 
ATOM     37  C   UNL     1       9.172 -14.597   4.468  0.00  0.00    +0.012 A 
ATOM     38  C   UNL     1       9.353 -15.252   5.647  0.00  0.00    +0.001 A 
ATOM     39  C   UNL     1       9.694 -16.603   5.674  0.00  0.00    +0.001 A 
ATOM     40  C   UNL     1       9.846 -17.309   4.520  0.00  0.00    +0.008 A 
ENDBRANCH  30  31
ENDBRANCH  29  30
ENDBRANCH  28  29
ENDBRANCH  27  28
ENDBRANCH   9  27
TORSDOF 9
