REMARK  Name = ZINC63557909
REMARK  7 active torsions:
REMARK  status: ('A' for Active; 'I' for Inactive)
REMARK    1  A    between atoms: C_4  and  N_16
REMARK    2  A    between atoms: C_5  and  C_7
REMARK    3  A    between atoms: N_9  and  C_10
REMARK    4  A    between atoms: C_17  and  C_19
REMARK    5  A    between atoms: N_24  and  C_26
REMARK    6  A    between atoms: C_26  and  C_27
REMARK    7  A    between atoms: C_27  and  C_28
REMARK                            x       y       z     vdW  Elec       q    Type
REMARK                         _______ _______ _______ _____ _____    ______ ____
ROOT
ATOM      1  N   UNL     1       3.624  -0.617  -0.039  0.00  0.00    -0.285 N 
ATOM      2  C   UNL     1       4.769   0.086  -0.144  0.00  0.00    +0.222 C 
ATOM      3  O   UNL     1       4.739   1.299  -0.132  0.00  0.00    -0.275 OA
ATOM      4  H   UNL     1       3.653  -1.585   0.018  0.00  0.00    +0.155 HD
ENDROOT
BRANCH   1   8
ATOM      5  C   UNL     1      -0.042   1.370   0.046  0.00  0.00    +0.001 A 
ATOM      6  C   UNL     1       1.073   1.934   0.645  0.00  0.00    +0.002 A 
ATOM      7  C   UNL     1       2.288   1.278   0.619  0.00  0.00    +0.024 A 
ATOM      8  C   UNL     1       2.399   0.046  -0.010  0.00  0.00    +0.046 A 
ATOM      9  C   UNL     1       1.273  -0.528  -0.618  0.00  0.00    +0.058 A 
ATOM     10  C   UNL     1       0.051   0.147  -0.583  0.00  0.00    +0.015 A 
BRANCH   9  11
ATOM     11  C   UNL     1       1.379  -1.837  -1.290  0.00  0.00    +0.246 C 
ATOM     12  O   UNL     1       2.420  -2.463  -1.242  0.00  0.00    -0.270 OA
ATOM     13  N   UNL     1       0.321  -2.339  -1.958  0.00  0.00    -0.308 N 
ATOM     14  H   UNL     1      -0.509  -1.839  -1.997  0.00  0.00    +0.149 HD
BRANCH  13  15
ATOM     15  C   UNL     1       0.426  -3.639  -2.626  0.00  0.00    +0.073 C 
ATOM     16  C   UNL     1       1.030  -3.449  -4.019  0.00  0.00    +0.022 C 
ATOM     17  C   UNL     1       1.140  -4.807  -4.716  0.00  0.00    +0.002 C 
ATOM     18  C   UNL     1      -0.252  -5.428  -4.844  0.00  0.00    +0.000 C 
ATOM     19  C   UNL     1      -0.856  -5.618  -3.451  0.00  0.00    +0.002 C 
ATOM     20  C   UNL     1      -0.966  -4.260  -2.754  0.00  0.00    +0.022 C 
ENDBRANCH  13  15
ENDBRANCH   9  11
ENDBRANCH   1   8
BRANCH   2  21
ATOM     21  C   UNL     1       6.086  -0.633  -0.276  0.00  0.00    +0.101 C 
ATOM     22  C   UNL     1       6.399  -1.453   0.997  0.00  0.00    +0.110 C 
ATOM     23  C   UNL     1       7.895  -1.312   1.171  0.00  0.00    +0.216 C 
ATOM     24  O   UNL     1       8.582  -2.020   1.877  0.00  0.00    -0.276 OA
ATOM     25  N   UNL     1       8.352  -0.290   0.428  0.00  0.00    -0.300 N 
ATOM     26  C   UNL     1       7.263   0.367  -0.304  0.00  0.00    +0.121 C 
BRANCH  25  27
ATOM     27  C   UNL     1       9.758   0.117   0.357  0.00  0.00    +0.112 C 
BRANCH  27  28
ATOM     28  C   UNL     1      10.451  -0.639  -0.779  0.00  0.00    +0.052 C 
BRANCH  28  29
ATOM     29  C   UNL     1      11.897  -0.221  -0.851  0.00  0.00    -0.040 C 
ATOM     30  C   UNL     1      12.954  -0.845  -0.283  0.00  0.00    +0.002 A 
ATOM     31  C   UNL     1      13.068  -2.054   0.542  0.00  0.00    +0.048 A 
ATOM     32  C   UNL     1      14.291  -2.440   0.975  0.00  0.00    +0.124 A 
ATOM     33  C   UNL     1      15.449  -1.714   0.655  0.00  0.00    +0.040 A 
ATOM     34  C   UNL     1      15.423  -0.594  -0.097  0.00  0.00    +0.029 A 
ATOM     35  C   UNL     1      14.190  -0.098  -0.606  0.00  0.00    +0.043 A 
ATOM     36  N   UNL     1      13.909   0.948  -1.345  0.00  0.00    -0.380 N 
ATOM     37  C   UNL     1      12.461   0.978  -1.580  0.00  0.00    +0.144 C 
ATOM     38  F   UNL     1      14.400  -3.552   1.735  0.00  0.00    -0.205 F 
ATOM     39  H   UNL     1      14.551   1.591  -1.683  0.00  0.00    +0.160 HD
ENDBRANCH  28  29
ENDBRANCH  27  28
ENDBRANCH  25  27
ENDBRANCH   2  21
TORSDOF 7
