REMARK  Name = ZINC06193727
REMARK  11 active torsions:
REMARK  status: ('A' for Active; 'I' for Inactive)
REMARK    1  A    between atoms: C_1  and  C_2
REMARK    2  A    between atoms: C_2  and  N_67
REMARK    3  A    between atoms: C_3  and  C_4
REMARK    4  A    between atoms: C_3  and  N_67
REMARK    5  A    between atoms: C_10  and  C_12
REMARK    6  A    between atoms: C_10  and  C_26
REMARK    7  A    between atoms: C_10  and  N_67
REMARK    8  A    between atoms: C_16  and  C_25
REMARK    9  A    between atoms: C_18  and  C_24
REMARK   10  A    between atoms: N_30  and  C_31
REMARK   11  A    between atoms: C_31  and  C_32
REMARK                            x       y       z     vdW  Elec       q    Type
REMARK                         _______ _______ _______ _____ _____    ______ ____
ROOT
ATOM      1  C   UNL     1      -2.241   0.793   0.235  0.00  0.00    +0.039 C 
ENDROOT
BRANCH   1   2
ATOM      2  C   UNL     1      -1.140   1.656   0.797  0.00  0.00    +0.011 A 
ATOM      3  C   UNL     1      -0.496   2.538  -0.007  0.00  0.00    +0.017 A 
ATOM      4  C   UNL     1       0.564   3.366   0.571  0.00  0.00    -0.001 A 
ATOM      5  C   UNL     1       1.260   4.297  -0.208  0.00  0.00    +0.013 A 
ATOM      6  C   UNL     1       2.244   5.055   0.362  0.00  0.00    -0.050 A 
ATOM      7  C   UNL     1       2.560   4.909   1.706  0.00  0.00    +0.008 A 
ATOM      8  C   UNL     1       1.887   3.998   2.491  0.00  0.00    -0.026 A 
ATOM      9  C   UNL     1       0.881   3.215   1.933  0.00  0.00    +0.052 A 
ATOM     10  N   UNL     1       0.193   2.296   2.696  0.00  0.00    -0.322 N 
ATOM     11  H   UNL     1       0.420   2.189   3.664  0.00  0.00    +0.169 HD
ATOM     12  C   UNL     1      -0.779   1.539   2.156  0.00  0.00    +0.251 A 
ATOM     13  O   UNL     1      -1.367   0.736   2.860  0.00  0.00    -0.268 OA
ATOM     14  C   UNL     1       2.240   3.850   3.949  0.00  0.00    +0.046 C 
ATOM     15  C   UNL     1       2.993   6.058  -0.477  0.00  0.00    +0.044 C 
ENDBRANCH   1   2
BRANCH   1  16
ATOM     16  C   UNL     1      -2.504   1.183  -1.196  0.00  0.00    +0.143 A 
ATOM     17  N   UNL     1      -2.824   2.376  -1.636  0.00  0.00    -0.115 NA
ATOM     18  N   UNL     1      -2.963   2.304  -2.915  0.00  0.00    -0.023 NA
ATOM     19  N   UNL     1      -2.748   1.095  -3.301  0.00  0.00    -0.044 NA
ATOM     20  N   UNL     1      -2.462   0.374  -2.271  0.00  0.00    -0.228 N 
BRANCH  20  21
ATOM     21  C   UNL     1      -2.151  -1.058  -2.270  0.00  0.00    +0.178 C 
BRANCH  21  22
ATOM     22  C   UNL     1      -3.441  -1.860  -2.095  0.00  0.00    +0.140 C 
ATOM     23  C   UNL     1      -3.111  -3.364  -1.977  0.00  0.00    +0.035 C 
ATOM     24  C   UNL     1      -4.260  -4.018  -2.792  0.00  0.00    +0.031 C 
ATOM     25  C   UNL     1      -4.481  -2.954  -3.896  0.00  0.00    +0.160 C 
ATOM     26  O   UNL     1      -4.279  -1.690  -3.244  0.00  0.00    -0.375 OA
ENDBRANCH  21  22
ENDBRANCH  20  21
ENDBRANCH   1  16
BRANCH   1  27
ATOM     27  N   UNL     1      -3.457   0.979   1.055  0.00  0.00    +0.392 N 
ATOM     28  H   UNL     1      -3.212   0.862   2.046  0.00  0.00    -0.080 HD
BRANCH  27  30
ATOM     29  C   UNL     1      -3.171   3.326   1.675  0.00  0.00    -0.017 C 
ATOM     30  C   UNL     1      -4.000   2.338   0.852  0.00  0.00    -0.080 C 
ENDBRANCH  27  30
BRANCH  27  31
ATOM     31  C   UNL     1      -4.472  -0.031   0.689  0.00  0.00    -0.042 C 
BRANCH  31  32
ATOM     32  C   UNL     1      -5.604   0.037   1.681  0.00  0.00    -0.064 A 
ATOM     33  C   UNL     1      -5.518  -0.651   2.877  0.00  0.00    +0.002 A 
ATOM     34  C   UNL     1      -6.554  -0.585   3.789  0.00  0.00    +0.000 A 
ATOM     35  C   UNL     1      -7.683   0.160   3.500  0.00  0.00    +0.000 A 
ATOM     36  C   UNL     1      -7.772   0.843   2.301  0.00  0.00    +0.000 A 
ATOM     37  C   UNL     1      -6.733   0.781   1.391  0.00  0.00    +0.002 A 
ENDBRANCH  31  32
ENDBRANCH  27  31
ENDBRANCH   1  27
TORSDOF 8
