REMARK  Name = ZINC59057603
REMARK  9 active torsions:
REMARK  status: ('A' for Active; 'I' for Inactive)
REMARK    1  A    between atoms: C_1  and  C_2
REMARK    2  A    between atoms: C_5  and  C_35
REMARK    3  A    between atoms: N_8  and  C_10
REMARK    4  A    between atoms: C_10  and  C_11
REMARK    5  A    between atoms: C_14  and  C_17
REMARK    6  A    between atoms: C_17  and  N_18
REMARK    7  A    between atoms: C_19  and  C_21
REMARK    8  A    between atoms: C_26  and  C_27
REMARK    9  A    between atoms: C_27  and  N_28
REMARK                            x       y       z     vdW  Elec       q    Type
REMARK                         _______ _______ _______ _____ _____    ______ ____
ROOT
ATOM      1  N   UNL     1      -0.833   2.872   6.587  0.00  0.00    -0.307 N 
ATOM      2  C   UNL     1      -1.570   3.558   7.482  0.00  0.00    +0.245 C 
ATOM      3  O   UNL     1      -1.293   3.508   8.665  0.00  0.00    -0.270 OA
ATOM      4  H   UNL     1      -1.054   2.912   5.644  0.00  0.00    +0.149 HD
ENDROOT
BRANCH   2   5
ATOM      5  C   UNL     1      -2.717   4.372   7.026  0.00  0.00    +0.041 A 
ATOM      6  C   UNL     1      -2.966   4.530   5.662  0.00  0.00    +0.013 A 
ATOM      7  C   UNL     1      -4.038   5.291   5.243  0.00  0.00    +0.001 A 
ATOM      8  C   UNL     1      -4.865   5.897   6.172  0.00  0.00    +0.000 A 
ATOM      9  C   UNL     1      -4.624   5.745   7.525  0.00  0.00    +0.006 A 
ATOM     10  C   UNL     1      -3.559   4.982   7.958  0.00  0.00    -0.017 A 
BRANCH  10  11
ATOM     11  C   UNL     1      -3.301   4.812   9.433  0.00  0.00    +0.153 C 
BRANCH  11  12
ATOM     12  N   UNL     1      -4.370   5.464  10.194  0.00  0.00    -0.220 N 
ATOM     13  C   UNL     1      -4.376   6.771  10.523  0.00  0.00    +0.240 C 
ATOM     14  O   UNL     1      -3.530   7.597  10.256  0.00  0.00    -0.273 OA
ATOM     15  C   UNL     1      -5.661   6.992  11.296  0.00  0.00    +0.202 C 
ATOM     16  N   UNL     1      -6.288   5.660  11.314  0.00  0.00    -0.290 N 
ATOM     17  C   UNL     1      -5.463   4.837  10.642  0.00  0.00    +0.309 C 
ATOM     18  O   UNL     1      -5.684   3.655  10.466  0.00  0.00    -0.252 OA
ATOM     19  H   UNL     1      -7.133   5.423  11.728  0.00  0.00    +0.151 HD
ENDBRANCH  11  12
ENDBRANCH  10  11
ENDBRANCH   2   5
BRANCH   1  20
ATOM     20  C   UNL     1       0.304   2.065   7.040  0.00  0.00    +0.139 C 
BRANCH  20  24
ATOM     21  C   UNL     1       2.151   0.192   3.674  0.00  0.00    -0.064 A 
ATOM     22  C   UNL     1       2.574   1.440   4.089  0.00  0.00    +0.002 A 
ATOM     23  C   UNL     1       1.976   2.047   5.177  0.00  0.00    +0.005 A 
ATOM     24  C   UNL     1       0.955   1.405   5.852  0.00  0.00    -0.030 A 
ATOM     25  C   UNL     1       0.531   0.156   5.437  0.00  0.00    +0.005 A 
ATOM     26  C   UNL     1       1.126  -0.449   4.346  0.00  0.00    +0.002 A 
BRANCH  21  27
ATOM     27  C   UNL     1       2.803  -0.470   2.487  0.00  0.00    -0.043 C 
BRANCH  27  33
ATOM     28  C   UNL     1      -0.095   1.380   0.040  0.00  0.00    +0.005 C 
ATOM     29  C   UNL     1      -0.050  -0.149   0.070  0.00  0.00    -0.031 C 
ATOM     30  C   UNL     1       0.655  -0.664  -1.188  0.00  0.00    +0.003 C 
ATOM     31  C   UNL     1       2.105  -0.169  -1.188  0.00  0.00    -0.031 C 
ATOM     32  C   UNL     1       2.796  -0.633   0.096  0.00  0.00    -0.075 C 
ATOM     33  N   UNL     1       2.090  -0.086   1.261  0.00  0.00    +0.383 N 
ATOM     34  C   UNL     1       0.721  -0.614   1.307  0.00  0.00    -0.075 C 
ATOM     35  C   UNL     1       2.840  -0.741  -2.401  0.00  0.00    +0.005 C 
ATOM     36  H   UNL     1       2.060   0.920   1.193  0.00  0.00    -0.081 HD
ENDBRANCH  27  33
ENDBRANCH  21  27
ENDBRANCH  20  24
ENDBRANCH   1  20
TORSDOF 7
