REMARK  Name = ZINC12577719
REMARK  8 active torsions:
REMARK  status: ('A' for Active; 'I' for Inactive)
REMARK    1  A    between atoms: C_1  and  O_2
REMARK    2  A    between atoms: O_2  and  C_3
REMARK    3  A    between atoms: C_3  and  C_5
REMARK    4  A    between atoms: C_5  and  C_15
REMARK    5  A    between atoms: C_15  and  C_17
REMARK    6  A    between atoms: C_17  and  S_18
REMARK    7  A    between atoms: S_18  and  C_19
REMARK    8  A    between atoms: N_29  and  C_30
REMARK                            x       y       z     vdW  Elec       q    Type
REMARK                         _______ _______ _______ _____ _____    ______ ____
ROOT
ATOM      1  C   UNL     1       2.524   0.080  -0.022  0.00  0.00    +0.157 C 
ENDROOT
BRANCH   1   2
ATOM      2  C   UNL     1       1.230  -0.691  -0.013  0.00  0.00    +0.183 C 
ATOM      3  O   UNL     1       1.246  -1.906  -0.020  0.00  0.00    -0.291 OA
BRANCH   2   4
ATOM      4  C   UNL     1       0.002  -0.004   0.002  0.00  0.00    +0.138 C 
ATOM      5  C   UNL     1      -1.208  -0.725   0.010  0.00  0.00    +0.110 C 
ATOM      6  N   UNL     1      -1.316  -2.077  -0.002  0.00  0.00    -0.301 N 
ATOM      7  C   UNL     1      -2.667  -2.406   0.015  0.00  0.00    +0.054 A 
ATOM      8  C   UNL     1      -3.348  -3.616   0.015  0.00  0.00    +0.025 A 
ATOM      9  C   UNL     1      -4.728  -3.627   0.028  0.00  0.00    +0.002 A 
ATOM     10  C   UNL     1      -5.437  -2.438   0.041  0.00  0.00    +0.002 A 
ATOM     11  C   UNL     1      -4.769  -1.230   0.040  0.00  0.00    +0.025 A 
ATOM     12  C   UNL     1      -3.381  -1.206   0.028  0.00  0.00    +0.054 A 
ATOM     13  N   UNL     1      -2.449  -0.176   0.025  0.00  0.00    -0.301 N 
ATOM     14  H   UNL     1      -0.578  -2.706  -0.018  0.00  0.00    +0.153 HD
ATOM     15  H   UNL     1      -2.650   0.773   0.031  0.00  0.00    +0.153 HD
BRANCH   4  16
ATOM     16  C   UNL     1      -0.018   1.457   0.010  0.00  0.00    +0.345 C 
ATOM     17  O   UNL     1      -1.080   2.051   0.018  0.00  0.00    -0.245 OA
BRANCH  16  19
ATOM     18  C   UNL     1       1.047   3.574   0.011  0.00  0.00    +0.280 C 
ATOM     19  O   UNL     1       1.141   2.148   0.003  0.00  0.00    -0.464 OA
ENDBRANCH  16  19
ENDBRANCH   4  16
ENDBRANCH   2   4
ENDBRANCH   1   2
BRANCH   1  20
ATOM     20  S   UNL     1       3.916  -1.077  -0.041  0.00  0.00    -0.080 S 
BRANCH  20  21
ATOM     21  C   UNL     1       5.261   0.062  -0.048  0.00  0.00    +0.173 A 
ATOM     22  N   UNL     1       4.993   1.344  -0.038  0.00  0.00    -0.223 NA
ATOM     23  C   UNL     1       5.979   2.272  -0.043  0.00  0.00    +0.080 A 
ATOM     24  C   UNL     1       5.695   3.641  -0.032  0.00  0.00    +0.048 A 
ATOM     25  C   UNL     1       6.731   4.549  -0.036  0.00  0.00    +0.043 A 
ATOM     26  C   UNL     1       8.054   4.120  -0.052  0.00  0.00    +0.021 A 
ATOM     27  C   UNL     1       8.356   2.787  -0.062  0.00  0.00    +0.017 A 
ATOM     28  C   UNL     1       7.327   1.846  -0.058  0.00  0.00    +0.065 A 
ATOM     29  C   UNL     1       7.597   0.403  -0.068  0.00  0.00    +0.263 A 
ATOM     30  O   UNL     1       8.736  -0.026  -0.081  0.00  0.00    -0.267 OA
ATOM     31  N   UNL     1       6.533  -0.434  -0.057  0.00  0.00    -0.284 N 
ATOM     32 CL   UNL     1       6.381   6.249  -0.022  0.00  0.00    -0.083 Cl
BRANCH  31  33
ATOM     33  C   UNL     1       6.749  -1.883  -0.061  0.00  0.00    +0.093 C 
ATOM     34  C   UNL     1       7.596  -2.294   1.161  0.00  0.00    +0.025 C 
ATOM     35  C   UNL     1       8.509  -3.426   0.625  0.00  0.00    +0.002 C 
ATOM     36  C   UNL     1       8.854  -2.941  -0.804  0.00  0.00    +0.002 C 
ATOM     37  C   UNL     1       7.548  -2.294  -1.310  0.00  0.00    +0.025 C 
ENDBRANCH  31  33
ENDBRANCH  20  21
ENDBRANCH   1  20
TORSDOF 7
