REMARK  Name = ZINC23216223
REMARK  8 active torsions:
REMARK  status: ('A' for Active; 'I' for Inactive)
REMARK    1  A    between atoms: C_1  and  C_2
REMARK    2  A    between atoms: C_2  and  C_31
REMARK    3  A    between atoms: C_4  and  N_10
REMARK    4  A    between atoms: C_6  and  C_8
REMARK    5  A    between atoms: C_6  and  C_9
REMARK    6  A    between atoms: C_11  and  C_13
REMARK    7  A    between atoms: C_13  and  N_14
REMARK    8  A    between atoms: N_19  and  C_22
REMARK                            x       y       z     vdW  Elec       q    Type
REMARK                         _______ _______ _______ _____ _____    ______ ____
ROOT
ATOM      1  C   UNL     1       0.906  -2.142   3.931  0.00  0.00    +0.222 C 
ENDROOT
BRANCH   1   2
ATOM      2  N   UNL     1       0.768  -0.696   3.739  0.00  0.00    -0.288 N 
ATOM      3  C   UNL     1       1.301   0.164   4.665  0.00  0.00    +0.032 A 
ATOM      4  C   UNL     1       1.172   1.494   4.485  0.00  0.00    +0.037 A 
ATOM      5  C   UNL     1       0.492   1.973   3.337  0.00  0.00    +0.260 A 
ATOM      6  O   UNL     1       0.369   3.171   3.152  0.00  0.00    -0.267 OA
ATOM      7  N   UNL     1      -0.020   1.094   2.454  0.00  0.00    -0.258 N 
ATOM      8  C   UNL     1       0.122  -0.229   2.657  0.00  0.00    +0.333 A 
ATOM      9  O   UNL     1      -0.341  -1.012   1.850  0.00  0.00    -0.246 OA
ATOM     10  C   UNL     1       1.831   2.245   5.621  0.00  0.00    +0.043 C 
ATOM     11  C   UNL     1       2.007   1.198   6.743  0.00  0.00    +0.011 C 
ATOM     12  C   UNL     1       2.061  -0.121   5.942  0.00  0.00    +0.054 C 
BRANCH   7  13
ATOM     13  C   UNL     1      -0.729   1.579   1.267  0.00  0.00    +0.095 C 
ATOM     14  C   UNL     1      -0.013   1.086   0.008  0.00  0.00    +0.025 C 
ATOM     15  C   UNL     1      -0.753   1.593  -1.232  0.00  0.00    +0.002 C 
ATOM     16  C   UNL     1      -2.188   1.063  -1.221  0.00  0.00    +0.000 C 
ATOM     17  C   UNL     1      -2.904   1.556   0.038  0.00  0.00    +0.002 C 
ATOM     18  C   UNL     1      -2.164   1.050   1.278  0.00  0.00    +0.025 C 
ENDBRANCH   7  13
ENDBRANCH   1   2
BRANCH   1  20
ATOM     19  N   UNL     1       2.513  -3.921   3.324  0.00  0.00    -0.311 N 
ATOM     20  C   UNL     1       2.176  -2.617   3.275  0.00  0.00    +0.233 C 
ATOM     21  O   UNL     1       2.896  -1.826   2.703  0.00  0.00    -0.274 OA
ATOM     22  H   UNL     1       1.860  -4.639   3.842  0.00  0.00    +0.149 HD
BRANCH  19  26
ATOM     23  C   UNL     1       6.685  -5.317   3.142  0.00  0.00    -0.010 C 
ATOM     24  C   UNL     1       5.497  -6.185   2.708  0.00  0.00    -0.072 C 
ATOM     25  C   UNL     1       4.221  -5.668   3.368  0.00  0.00    +0.009 C 
ATOM     26  C   UNL     1       3.751  -4.384   2.684  0.00  0.00    +0.070 C 
ATOM     27  C   UNL     1       3.474  -4.691   1.213  0.00  0.00    +0.009 C 
ATOM     28  C   UNL     1       4.740  -5.197   0.527  0.00  0.00    -0.072 C 
ATOM     29  N   UNL     1       5.399  -6.254   1.265  0.00  0.00    +0.386 N 
ATOM     30  C   UNL     1       5.691  -4.021   0.274  0.00  0.00    -0.010 C 
ATOM     31  C   UNL     1       4.329  -5.757  -0.853  0.00  0.00    -0.010 C 
ATOM     32  C   UNL     1       5.753  -7.611   3.244  0.00  0.00    -0.010 C 
ATOM     33  H   UNL     1       6.409  -6.288   0.831  0.00  0.00    -0.084 HD
ATOM     34  H   UNL     1       4.846  -7.160   0.979  0.00  0.00    -0.084 HD
ENDBRANCH  19  26
ENDBRANCH   1  20
TORSDOF 4
