REMARK  Name = ZINC06600467
REMARK  6 active torsions:
REMARK  status: ('A' for Active; 'I' for Inactive)
REMARK    1  A    between atoms: C_1  and  C_2
REMARK    2  A    between atoms: C_2  and  O_3
REMARK    3  A    between atoms: O_3  and  C_4
REMARK    4  A    between atoms: C_6  and  C_11
REMARK    5  A    between atoms: C_9  and  O_10
REMARK    6  A    between atoms: C_16  and  C_21
REMARK                            x       y       z     vdW  Elec       q    Type
REMARK                         _______ _______ _______ _____ _____    ______ ____
ROOT
ATOM      1  C   UNL     1       0.654  -4.954  -0.018  0.00  0.00    +0.176 C 
ATOM      2  C   UNL     1       0.626  -5.817  -1.261  0.00  0.00    +0.041 C 
ATOM      3  C   UNL     1       0.315  -7.130  -1.216  0.00  0.00    +0.020 C 
ATOM      4  C   UNL     1       0.278  -7.962  -2.476  0.00  0.00    +0.060 C 
ATOM      5  C   UNL     1       1.301  -7.423  -3.478  0.00  0.00    +0.032 C 
ATOM      6  C   UNL     1       0.962  -5.958  -3.773  0.00  0.00    +0.088 C 
ATOM      7  C   UNL     1       0.942  -5.192  -2.481  0.00  0.00    +0.164 C 
ATOM      8  O   UNL     1       1.204  -4.005  -2.490  0.00  0.00    -0.292 OA
ATOM      9  N   UNL     1       0.025  -7.766  -0.033  0.00  0.00    -0.287 N 
ATOM     10  C   UNL     1       0.338  -7.116   1.150  0.00  0.00    +0.218 A 
ATOM     11  N   UNL     1       0.639  -5.796   1.171  0.00  0.00    -0.221 N 
ATOM     12  N   UNL     1       0.905  -5.475   2.502  0.00  0.00    -0.156 NA
ATOM     13  C   UNL     1       0.751  -6.577   3.194  0.00  0.00    +0.247 A 
ATOM     14  N   UNL     1       0.408  -7.566   2.372  0.00  0.00    -0.201 NA
ATOM     15  H   UNL     1      -0.386  -8.644  -0.026  0.00  0.00    +0.155 HD
ENDROOT
BRANCH   5  16
ATOM     16  C   UNL     1       1.236  -8.227  -4.751  0.00  0.00    -0.043 A 
ATOM     17  C   UNL     1       0.061  -8.275  -5.479  0.00  0.00    +0.005 A 
ATOM     18  C   UNL     1       0.002  -9.012  -6.647  0.00  0.00    +0.020 A 
ATOM     19  C   UNL     1       1.117  -9.701  -7.088  0.00  0.00    +0.041 A 
ATOM     20  C   UNL     1       2.292  -9.652  -6.359  0.00  0.00    +0.020 A 
ATOM     21  C   UNL     1       2.353  -8.911  -5.194  0.00  0.00    +0.005 A 
ATOM     22 CL   UNL     1       1.042 -10.627  -8.554  0.00  0.00    -0.084 Cl
ENDBRANCH   5  16
BRANCH   1  25
ATOM     23  C   UNL     1      -1.498  -1.849   0.006  0.00  0.00    +0.162 A 
ATOM     24  C   UNL     1      -0.389  -2.680  -0.003  0.00  0.00    +0.055 A 
ATOM     25  C   UNL     1      -0.553  -4.052  -0.008  0.00  0.00    -0.015 A 
ATOM     26  C   UNL     1      -1.823  -4.600  -0.005  0.00  0.00    +0.010 A 
ATOM     27  C   UNL     1      -2.934  -3.777   0.004  0.00  0.00    +0.049 A 
ATOM     28  C   UNL     1      -2.776  -2.400   0.016  0.00  0.00    +0.158 A 
BRANCH  28  29
ATOM     29  O   UNL     1      -3.868  -1.589   0.030  0.00  0.00    -0.503 OA
ATOM     30  H   UNL     1      -4.192  -1.350  -0.849  0.00  0.00    +0.292 HD
ENDBRANCH  28  29
BRANCH  23  31
ATOM     31  O   UNL     1      -1.339  -0.499   0.012  0.00  0.00    -0.489 OA
BRANCH  31  33
ATOM     32  C   UNL     1      -0.019   1.526   0.010  0.00  0.00    +0.048 C 
ATOM     33  C   UNL     1       0.002  -0.004   0.002  0.00  0.00    +0.226 C 
ENDBRANCH  31  33
ENDBRANCH  23  31
ENDBRANCH   1  25
TORSDOF 5
