REMARK  Name = ZINC02277465
REMARK  10 active torsions:
REMARK  status: ('A' for Active; 'I' for Inactive)
REMARK    1  A    between atoms: C_1  and  C_2
REMARK    2  A    between atoms: C_2  and  C_3
REMARK    3  A    between atoms: C_3  and  C_4
REMARK    4  A    between atoms: C_4  and  C_5
REMARK    5  A    between atoms: C_5  and  S_6
REMARK    6  A    between atoms: S_6  and  C_7
REMARK    7  A    between atoms: N_16  and  C_17
REMARK    8  A    between atoms: C_17  and  C_18
REMARK    9  A    between atoms: C_21  and  O_24
REMARK   10  A    between atoms: O_24  and  C_25
REMARK                            x       y       z     vdW  Elec       q    Type
REMARK                         _______ _______ _______ _____ _____    ______ ____
ROOT
ATOM      1  C   UNL     1       1.790   5.888   1.476  0.00  0.00    +0.198 A 
ATOM      2  N   UNL     1       2.318   7.091   1.583  0.00  0.00    -0.120 NA
ATOM      3  N   UNL     1       3.550   7.085   0.914  0.00  0.00    -0.109 NA
ATOM      4  C   UNL     1       3.726   5.897   0.425  0.00  0.00    +0.240 A 
ATOM      5  N   UNL     1       2.575   5.156   0.649  0.00  0.00    -0.255 N 
ATOM      6  C   UNL     1       2.431   3.905   0.089  0.00  0.00    +0.068 A 
ATOM      7  C   UNL     1       3.546   3.311  -0.455  0.00  0.00    +0.048 A 
ATOM      8  C   UNL     1       4.761   4.020  -0.522  0.00  0.00    +0.260 A 
ATOM      9  O   UNL     1       5.788   3.484  -0.892  0.00  0.00    -0.267 OA
ATOM     10  N   UNL     1       4.829   5.335  -0.195  0.00  0.00    -0.273 N 
ATOM     11  C   UNL     1       3.436   1.901  -0.981  0.00  0.00    +0.007 C 
ATOM     12  C   UNL     1       4.803   1.220  -1.017  0.00  0.00    +0.012 C 
ATOM     13  C   UNL     1       4.643  -0.214  -1.536  0.00  0.00    +0.001 C 
ATOM     14  C   UNL     1       4.088  -0.167  -2.961  0.00  0.00    +0.000 C 
ATOM     15  C   UNL     1       2.729   0.533  -2.962  0.00  0.00    +0.001 C 
ATOM     16  C   UNL     1       2.866   1.949  -2.403  0.00  0.00    +0.012 C 
ATOM     17  C   UNL     1       2.497   1.084  -0.089  0.00  0.00    +0.047 C 
ATOM     18  C   UNL     1       1.165   1.785   0.001  0.00  0.00    -0.037 A 
ATOM     19  C   UNL     1       1.152   3.182   0.047  0.00  0.00    +0.003 A 
ATOM     20  C   UNL     1      -0.069   3.852   0.001  0.00  0.00    +0.010 A 
ATOM     21  C   UNL     1      -1.248   3.133   0.004  0.00  0.00    +0.001 A 
ATOM     22  C   UNL     1      -1.223   1.750   0.014  0.00  0.00    +0.000 A 
ATOM     23  C   UNL     1      -0.013   1.076   0.008  0.00  0.00    +0.004 A 
ENDROOT
BRANCH   1  24
ATOM     24  S   UNL     1       0.344   5.347   2.327  0.00  0.00    -0.086 S 
BRANCH  24  25
ATOM     25  C   UNL     1      -0.201   6.815   3.243  0.00  0.00    +0.077 C 
BRANCH  25  26
ATOM     26  C   UNL     1      -1.466   6.481   4.036  0.00  0.00    +0.011 C 
BRANCH  26  27
ATOM     27  C   UNL     1      -1.925   7.719   4.809  0.00  0.00    +0.001 C 
BRANCH  27  29
ATOM     28  C   UNL     1      -3.650   8.623   6.375  0.00  0.00    +0.004 C 
ATOM     29  C   UNL     1      -3.190   7.385   5.602  0.00  0.00    -0.003 C 
ENDBRANCH  27  29
ENDBRANCH  26  27
ENDBRANCH  25  26
ENDBRANCH  24  25
ENDBRANCH   1  24
BRANCH  10  30
ATOM     30  C   UNL     1       6.027   6.124  -0.489  0.00  0.00    +0.163 C 
BRANCH  30  31
ATOM     31  C   UNL     1       6.976   6.051   0.679  0.00  0.00    -0.027 A 
ATOM     32  C   UNL     1       6.896   6.987   1.693  0.00  0.00    +0.009 A 
ATOM     33  C   UNL     1       7.761   6.919   2.768  0.00  0.00    +0.046 A 
ATOM     34  C   UNL     1       8.718   5.917   2.824  0.00  0.00    +0.120 A 
ATOM     35  C   UNL     1       8.801   4.982   1.802  0.00  0.00    +0.046 A 
ATOM     36  C   UNL     1       7.930   5.051   0.732  0.00  0.00    +0.009 A 
BRANCH  34  37
ATOM     37  O   UNL     1       9.574   5.851   3.878  0.00  0.00    -0.495 OA
ATOM     38  C   UNL     1       9.431   6.846   4.893  0.00  0.00    +0.277 C 
ENDBRANCH  34  37
ENDBRANCH  30  31
ENDBRANCH  10  30
TORSDOF 8
