REMARK  Name = ZINC08881700
REMARK  13 active torsions:
REMARK  status: ('A' for Active; 'I' for Inactive)
REMARK    1  A    between atoms: C_1  and  C_2
REMARK    2  A    between atoms: C_2  and  N_3
REMARK    3  A    between atoms: N_3  and  C_4
REMARK    4  A    between atoms: N_3  and  S_6
REMARK    5  A    between atoms: C_4  and  C_5
REMARK    6  A    between atoms: S_6  and  C_9
REMARK    7  A    between atoms: C_12  and  C_15
REMARK    8  A    between atoms: N_17  and  C_18
REMARK    9  A    between atoms: C_19  and  C_30
REMARK   10  A    between atoms: C_23  and  C_28
REMARK   11  A    between atoms: C_23  and  C_29
REMARK   12  A    between atoms: C_24  and  C_26
REMARK   13  A    between atoms: C_24  and  C_27
REMARK                            x       y       z     vdW  Elec       q    Type
REMARK                         _______ _______ _______ _____ _____    ______ ____
ROOT
ATOM      1  C   UNL     1      -6.375   2.341  -3.051  0.00  0.00    +0.249 C 
ATOM      2  O   UNL     1      -5.862   3.435  -3.182  0.00  0.00    -0.270 OA
ATOM      3  N   UNL     1      -5.872   1.462  -2.162  0.00  0.00    -0.275 N 
ATOM      4  H   UNL     1      -6.281   0.589  -2.058  0.00  0.00    +0.156 HD
ENDROOT
BRANCH   3   5
ATOM      5  C   UNL     1      -4.768   1.806  -1.396  0.00  0.00    +0.090 A 
ATOM      6  C   UNL     1      -4.113   1.043  -0.438  0.00  0.00    +0.084 A 
ATOM      7  C   UNL     1      -2.974   1.642   0.227  0.00  0.00    -0.021 A 
ATOM      8  C   UNL     1      -2.666   2.899  -0.168  0.00  0.00    -0.015 A 
ATOM      9  S   UNL     1      -3.873   3.290  -1.401  0.00  0.00    -0.078 S 
ATOM     10  C   UNL     1      -1.545   3.747   0.341  0.00  0.00    -0.041 C 
ATOM     11  C   UNL     1      -0.729   1.579   1.268  0.00  0.00    -0.069 C 
ATOM     12  C   UNL     1      -2.139   0.981   1.315  0.00  0.00    +0.024 C 
ATOM     13  C   UNL     1      -0.013   1.086   0.008  0.00  0.00    -0.010 C 
ATOM     14  C   UNL     1       0.047   1.048   2.488  0.00  0.00    -0.010 C 
ATOM     15  C   UNL     1      -2.154   4.999   1.004  0.00  0.00    -0.005 C 
ATOM     16  C   UNL     1      -0.673   4.212  -0.832  0.00  0.00    -0.005 C 
ATOM     17  N   UNL     1      -0.718   3.061   1.374  0.00  0.00    +0.389 N 
ATOM     18  H   UNL     1      -1.076   3.321   2.300  0.00  0.00    -0.084 HD
ATOM     19  H   UNL     1       0.252   3.384   1.279  0.00  0.00    -0.084 HD
BRANCH   6  20
ATOM     20  C   UNL     1      -4.557  -0.282  -0.125  0.00  0.00    +0.102 C 
ATOM     21  N   UNL     1      -4.910  -1.333   0.124  0.00  0.00    -0.191 NA
ENDBRANCH   6  20
ENDBRANCH   3   5
BRANCH   1  25
ATOM     22  C   UNL     1      -9.755   1.286  -5.398  0.00  0.00    +0.106 A 
ATOM     23  C   UNL     1      -9.173   2.533  -5.549  0.00  0.00    +0.029 A 
ATOM     24  C   UNL     1      -8.076   2.882  -4.790  0.00  0.00    +0.015 A 
ATOM     25  C   UNL     1      -7.551   1.974  -3.868  0.00  0.00    +0.037 A 
ATOM     26  C   UNL     1      -8.139   0.716  -3.725  0.00  0.00    +0.015 A 
ATOM     27  C   UNL     1      -9.240   0.382  -4.487  0.00  0.00    +0.029 A 
BRANCH  22  28
ATOM     28  S   UNL     1     -11.156   0.849  -6.372  0.00  0.00    +0.061 S 
ATOM     29  O   UNL     1     -11.847  -0.166  -5.656  0.00  0.00    -0.153 OA
ATOM     30  O   UNL     1     -11.779   2.067  -6.758  0.00  0.00    -0.153 OA
BRANCH  28  31
ATOM     31  N   UNL     1     -10.589   0.146  -7.760  0.00  0.00    -0.177 NA
BRANCH  31  33
ATOM     32  C   UNL     1     -11.608  -1.980  -8.408  0.00  0.00    +0.022 C 
ATOM     33  C   UNL     1     -10.373  -1.302  -7.812  0.00  0.00    +0.106 C 
ENDBRANCH  31  33
BRANCH  31  34
ATOM     34  C   UNL     1     -10.303   0.973  -8.935  0.00  0.00    +0.106 C 
ATOM     35  C   UNL     1      -8.818   1.343  -8.950  0.00  0.00    +0.022 C 
ENDBRANCH  31  34
ENDBRANCH  28  31
ENDBRANCH  22  28
ENDBRANCH   1  25
TORSDOF 7
