REMARK  Name = ZINC28308625
REMARK  6 active torsions:
REMARK  status: ('A' for Active; 'I' for Inactive)
REMARK    1  A    between atoms: C_4  and  N_7
REMARK    2  A    between atoms: C_8  and  C_10
REMARK    3  A    between atoms: C_10  and  N_21
REMARK    4  A    between atoms: C_11  and  C_12
REMARK    5  A    between atoms: C_16  and  N_18
REMARK    6  A    between atoms: C_22  and  C_24
REMARK                            x       y       z     vdW  Elec       q    Type
REMARK                         _______ _______ _______ _____ _____    ______ ____
ROOT
ATOM      1  C   UNL     1      -1.729   6.292   0.276  0.00  0.00    +0.097 C 
ATOM      2  C   UNL     1      -0.561   6.578  -0.345  0.00  0.00    +0.036 C 
ENDROOT
BRANCH   2   3
ATOM      3  C   UNL     1      -0.148   5.805  -1.527  0.00  0.00    -0.021 A 
ATOM      4  C   UNL     1      -1.105   5.353  -2.441  0.00  0.00    +0.008 A 
ATOM      5  C   UNL     1      -0.710   4.634  -3.549  0.00  0.00    +0.003 A 
ATOM      6  C   UNL     1       0.630   4.349  -3.752  0.00  0.00    +0.033 A 
ATOM      7  C   UNL     1       1.583   4.793  -2.851  0.00  0.00    +0.127 A 
ATOM      8  C   UNL     1       1.204   5.518  -1.741  0.00  0.00    +0.040 A 
BRANCH   7   9
ATOM      9  N   UNL     1       3.013   4.488  -3.081  0.00  0.00    +0.056 N 
ATOM     10  O   UNL     1       3.350   3.848  -4.061  0.00  0.00    -0.126 OA
ATOM     11  O   UNL     1       3.853   4.878  -2.289  0.00  0.00    -0.126 OA
ENDBRANCH   7   9
ENDBRANCH   2   3
BRANCH   1  13
ATOM     12  N   UNL     1      -2.044   3.873   0.191  0.00  0.00    -0.280 N 
ATOM     13  C   UNL     1      -2.499   5.103  -0.118  0.00  0.00    +0.262 C 
ATOM     14  O   UNL     1      -3.547   5.231  -0.722  0.00  0.00    -0.268 OA
ATOM     15  H   UNL     1      -1.136   3.759   0.801  0.00  0.00    +0.155 HD
BRANCH  12  19
ATOM     16  C   UNL     1      -4.079   0.500  -1.164  0.00  0.00    +0.000 A 
ATOM     17  C   UNL     1      -3.490   0.495   0.088  0.00  0.00    +0.002 A 
ATOM     18  C   UNL     1      -2.815   1.611   0.540  0.00  0.00    +0.023 A 
ATOM     19  C   UNL     1      -2.727   2.741  -0.264  0.00  0.00    +0.034 A 
ATOM     20  C   UNL     1      -3.324   2.745  -1.518  0.00  0.00    +0.023 A 
ATOM     21  C   UNL     1      -3.993   1.623  -1.966  0.00  0.00    +0.002 A 
ENDBRANCH  12  19
ENDBRANCH   1  13
BRANCH   1  22
ATOM     22  N   UNL     1      -2.202   7.126   1.293  0.00  0.00    -0.277 N 
ATOM     23  C   UNL     1      -3.294   6.774   2.000  0.00  0.00    +0.248 C 
ATOM     24  O   UNL     1      -3.811   5.688   1.820  0.00  0.00    -0.270 OA
ATOM     25  H   UNL     1      -1.684   8.070   1.515  0.00  0.00    +0.155 HD
BRANCH  23  26
ATOM     26  C   UNL     1      -3.864   7.708   2.993  0.00  0.00    +0.037 A 
ATOM     27  C   UNL     1      -3.270   8.953   3.206  0.00  0.00    +0.014 A 
ATOM     28  C   UNL     1      -3.810   9.823   4.130  0.00  0.00    +0.016 A 
ATOM     29  C   UNL     1      -4.932   9.458   4.855  0.00  0.00    +0.018 A 
ATOM     30  C   UNL     1      -5.522   8.222   4.653  0.00  0.00    +0.016 A 
ATOM     31  C   UNL     1      -4.995   7.346   3.728  0.00  0.00    +0.014 A 
ATOM     32 BR   UNL     1      -5.661  10.653   6.126  0.00  0.00    -0.050 Br
ENDBRANCH  23  26
ENDBRANCH   1  22
TORSDOF 6
