REMARK  Name = ZINC09334006
REMARK  6 active torsions:
REMARK  status: ('A' for Active; 'I' for Inactive)
REMARK    1  A    between atoms: C_1  and  C_2
REMARK    2  A    between atoms: C_2  and  C_38
REMARK    3  A    between atoms: C_6  and  C_26
REMARK    4  A    between atoms: C_16  and  C_18
REMARK    5  A    between atoms: C_18  and  C_19
REMARK    6  A    between atoms: C_29  and  N_32
REMARK                            x       y       z     vdW  Elec       q    Type
REMARK                         _______ _______ _______ _____ _____    ______ ____
ROOT
ATOM      1  C   UNL     1       4.007   8.505  -4.280  0.00  0.00    +0.011 C 
ATOM      2  C   UNL     1       3.614   9.984  -4.261  0.00  0.00    -0.023 C 
ATOM      3  C   UNL     1       3.191  10.390  -2.851  0.00  0.00    +0.058 C 
ATOM      4  C   UNL     1       2.009   9.545  -2.403  0.00  0.00    +0.017 C 
ATOM      5  C   UNL     1       1.096   9.129  -3.296  0.00  0.00    +0.037 C 
ATOM      6  C   UNL     1      -0.134   8.318  -2.987  0.00  0.00    +0.147 C 
ATOM      7  N   UNL     1      -0.173   7.762  -1.651  0.00  0.00    -0.258 N 
ATOM      8  C   UNL     1      -0.229   8.589  -0.528  0.00  0.00    +0.058 A 
ATOM      9  C   UNL     1      -1.330   8.595   0.313  0.00  0.00    +0.025 A 
ATOM     10  C   UNL     1      -1.359   9.465   1.389  0.00  0.00    +0.002 A 
ATOM     11  C   UNL     1      -0.301  10.323   1.625  0.00  0.00    +0.002 A 
ATOM     12  C   UNL     1       0.808  10.308   0.796  0.00  0.00    +0.025 A 
ATOM     13  C   UNL     1       0.848   9.424  -0.268  0.00  0.00    +0.053 A 
ATOM     14  N   UNL     1       1.972   9.282  -1.072  0.00  0.00    -0.316 N 
ATOM     15  C   UNL     1      -0.149   6.424  -1.488  0.00  0.00    +0.225 C 
ATOM     16  O   UNL     1      -0.101   5.696  -2.457  0.00  0.00    -0.275 OA
ATOM     17  C   UNL     1       1.246   9.441  -4.668  0.00  0.00    +0.163 C 
ATOM     18  O   UNL     1       0.394   9.068  -5.450  0.00  0.00    -0.292 OA
ATOM     19  C   UNL     1       2.418  10.215  -5.192  0.00  0.00    +0.086 C 
ATOM     20  C   UNL     1       4.797  10.842  -4.715  0.00  0.00    +0.011 C 
ATOM     21  H   UNL     1       2.876   8.929  -0.556  0.00  0.00    +0.152 HD
ENDROOT
BRANCH   6  22
ATOM     22  C   UNL     1      -1.342   9.199  -3.173  0.00  0.00    -0.022 A 
ATOM     23  C   UNL     1      -2.245   8.930  -4.185  0.00  0.00    +0.008 A 
ATOM     24  C   UNL     1      -3.356   9.735  -4.353  0.00  0.00    +0.033 A 
ATOM     25  C   UNL     1      -3.558  10.816  -3.515  0.00  0.00    +0.126 A 
ATOM     26  C   UNL     1      -2.653  11.089  -2.507  0.00  0.00    +0.033 A 
ATOM     27  C   UNL     1      -1.545  10.280  -2.336  0.00  0.00    +0.008 A 
BRANCH  25  28
ATOM     28  N   UNL     1      -4.745  11.682  -3.699  0.00  0.00    +0.056 N 
ATOM     29  O   UNL     1      -4.923  12.635  -2.961  0.00  0.00    -0.126 OA
ATOM     30  O   UNL     1      -5.542  11.443  -4.587  0.00  0.00    -0.126 OA
ENDBRANCH  25  28
ENDBRANCH   6  22
BRANCH  15  31
ATOM     31  C   UNL     1      -0.182   5.833  -0.102  0.00  0.00    +0.131 C 
BRANCH  31  32
ATOM     32  C   UNL     1      -0.146   4.329  -0.197  0.00  0.00    -0.039 A 
ATOM     33  C   UNL     1       1.067   3.666  -0.200  0.00  0.00    +0.005 A 
ATOM     34  C   UNL     1       1.100   2.287  -0.286  0.00  0.00    +0.020 A 
ATOM     35  C   UNL     1      -0.080   1.570  -0.370  0.00  0.00    +0.041 A 
ATOM     36  C   UNL     1      -1.294   2.235  -0.373  0.00  0.00    +0.020 A 
ATOM     37  C   UNL     1      -1.326   3.614  -0.280  0.00  0.00    +0.005 A 
ATOM     38 CL   UNL     1      -0.039  -0.162  -0.478  0.00  0.00    -0.084 Cl
ENDBRANCH  31  32
ENDBRANCH  15  31
TORSDOF 4
