REMARK  Name = ZINC27500068
REMARK  6 active torsions:
REMARK  status: ('A' for Active; 'I' for Inactive)
REMARK    1  A    between atoms: C_1  and  C_2
REMARK    2  A    between atoms: C_2  and  O_3
REMARK    3  A    between atoms: O_3  and  C_4
REMARK    4  A    between atoms: C_4  and  C_6
REMARK    5  A    between atoms: C_10  and  N_11
REMARK    6  A    between atoms: C_13  and  C_22
REMARK                            x       y       z     vdW  Elec       q    Type
REMARK                         _______ _______ _______ _____ _____    ______ ____
ROOT
ATOM      1  N   UNL     1      -3.024  -2.519   2.483  0.00  0.00    -0.319 N 
ATOM      2  C   UNL     1      -3.796  -2.861   3.498  0.00  0.00    +0.211 A 
ATOM      3  C   UNL     1      -3.347  -2.675   4.889  0.00  0.00    +0.078 A 
ATOM      4  C   UNL     1      -4.330  -2.502   5.854  0.00  0.00    +0.028 A 
ATOM      5  C   UNL     1      -5.724  -2.521   5.404  0.00  0.00    +0.018 A 
ATOM      6  C   UNL     1      -6.756  -2.094   6.248  0.00  0.00    +0.011 A 
ATOM      7  C   UNL     1      -8.048  -2.117   5.804  0.00  0.00    +0.001 A 
ATOM      8  C   UNL     1      -8.346  -2.560   4.524  0.00  0.00    +0.004 A 
ATOM      9  C   UNL     1      -7.343  -2.986   3.676  0.00  0.00    +0.047 A 
ATOM     10  C   UNL     1      -6.024  -2.973   4.106  0.00  0.00    +0.137 A 
ATOM     11  O   UNL     1      -5.029  -3.389   3.291  0.00  0.00    -0.439 OA
ATOM     12  H   UNL     1      -2.145  -2.143   2.647  0.00  0.00    +0.169 HD
ENDROOT
BRANCH   3  13
ATOM     13  C   UNL     1      -1.914  -2.672   5.242  0.00  0.00    +0.144 A 
ATOM     14  N   UNL     1      -1.414  -2.512   6.507  0.00  0.00    -0.338 N 
ATOM     15  H   UNL     1      -1.930  -2.381   7.318  0.00  0.00    +0.167 HD
ATOM     16  C   UNL     1      -0.037  -2.570   6.412  0.00  0.00    +0.066 A 
ATOM     17  C   UNL     1       0.997  -2.475   7.332  0.00  0.00    +0.028 A 
ATOM     18  C   UNL     1       2.305  -2.578   6.905  0.00  0.00    +0.002 A 
ATOM     19  C   UNL     1       2.593  -2.775   5.562  0.00  0.00    +0.002 A 
ATOM     20  C   UNL     1       1.589  -2.871   4.641  0.00  0.00    +0.030 A 
ATOM     21  C   UNL     1       0.255  -2.771   5.050  0.00  0.00    +0.089 A 
ATOM     22  N   UNL     1      -0.927  -2.829   4.391  0.00  0.00    -0.228 NA
ENDBRANCH   3  13
BRANCH   1  27
ATOM     23  C   UNL     1      -2.800  -2.399   0.016  0.00  0.00    +0.093 A 
ATOM     24  C   UNL     1      -3.502  -2.695  -1.221  0.00  0.00    -0.021 A 
ATOM     25  C   UNL     1      -4.738  -3.227  -1.097  0.00  0.00    -0.004 A 
ATOM     26  S   UNL     1      -5.012  -3.353   0.649  0.00  0.00    -0.075 S 
ATOM     27  C   UNL     1      -3.456  -2.693   1.219  0.00  0.00    +0.095 A 
ATOM     28  C   UNL     1      -5.670  -3.621  -2.202  0.00  0.00    +0.043 C 
ATOM     29  C   UNL     1      -5.169  -2.990  -3.508  0.00  0.00    +0.005 C 
ATOM     30  C   UNL     1      -3.666  -3.256  -3.637  0.00  0.00    +0.005 C 
ATOM     31  C   UNL     1      -2.903  -2.431  -2.600  0.00  0.00    +0.037 C 
BRANCH  23  32
ATOM     32  C   UNL     1      -1.497  -1.839   0.006  0.00  0.00    +0.342 C 
ATOM     33  O   UNL     1      -0.522  -2.567  -0.007  0.00  0.00    -0.245 OA
BRANCH  32  34
ATOM     34  O   UNL     1      -1.339  -0.499   0.012  0.00  0.00    -0.461 OA
BRANCH  34  36
ATOM     35  C   UNL     1      -0.019   1.526   0.010  0.00  0.00    +0.048 C 
ATOM     36  C   UNL     1       0.002  -0.004   0.002  0.00  0.00    +0.229 C 
ENDBRANCH  34  36
ENDBRANCH  32  34
ENDBRANCH  23  32
ENDBRANCH   1  27
TORSDOF 5
