REMARK  Name = ZINC13398004
REMARK  13 active torsions:
REMARK  status: ('A' for Active; 'I' for Inactive)
REMARK    1  A    between atoms: C_1  and  O_2
REMARK    2  A    between atoms: O_2  and  C_3
REMARK    3  A    between atoms: C_3  and  C_5
REMARK    4  A    between atoms: C_7  and  C_31
REMARK    5  A    between atoms: C_9  and  C_27
REMARK    6  A    between atoms: C_9  and  C_29
REMARK    7  A    between atoms: C_10  and  C_19
REMARK    8  A    between atoms: C_12  and  C_15
REMARK    9  A    between atoms: C_15  and  O_17
REMARK   10  A    between atoms: O_17  and  C_18
REMARK   11  A    between atoms: C_22  and  S_25
REMARK   12  A    between atoms: S_25  and  C_26
REMARK   13  A    between atoms: C_34  and  N_37
REMARK                            x       y       z     vdW  Elec       q    Type
REMARK                         _______ _______ _______ _____ _____    ______ ____
ROOT
ATOM      1  C   UNL     1       0.883   3.731  -0.027  0.00  0.00    +0.174 C 
ATOM      2  C   UNL     1       2.405   3.880  -0.012  0.00  0.00    +0.075 C 
ATOM      3  C   UNL     1       2.755   5.348  -0.283  0.00  0.00    +0.159 C 
ATOM      4  C   UNL     1       2.387   5.677  -1.731  0.00  0.00    +0.075 C 
ATOM      5  C   UNL     1       0.982   5.233  -2.020  0.00  0.00    +0.174 C 
ATOM      6  C   UNL     1       0.314   4.364  -1.264  0.00  0.00    +0.162 C 
ATOM      7  O   UNL     1      -0.941   4.034  -1.629  0.00  0.00    -0.296 OA
ENDROOT
BRANCH   4   8
ATOM      8  C   UNL     1       3.337   4.969  -2.662  0.00  0.00    -0.041 A 
ATOM      9  C   UNL     1       3.144   3.631  -2.957  0.00  0.00    +0.005 A 
ATOM     10  C   UNL     1       4.010   2.980  -3.814  0.00  0.00    +0.015 A 
ATOM     11  C   UNL     1       5.081   3.667  -4.372  0.00  0.00    +0.008 A 
ATOM     12  C   UNL     1       5.274   5.010  -4.069  0.00  0.00    +0.015 A 
ATOM     13  C   UNL     1       4.402   5.656  -3.215  0.00  0.00    +0.005 A 
BRANCH  11  14
ATOM     14  S   UNL     1       6.191   2.839  -5.460  0.00  0.00    -0.129 S 
ATOM     15  C   UNL     1       5.543   1.147  -5.545  0.00  0.00    +0.090 C 
ENDBRANCH  11  14
ENDBRANCH   4   8
BRANCH   2  16
ATOM     16  C   UNL     1       2.941   3.473   1.336  0.00  0.00    -0.040 A 
ATOM     17  C   UNL     1       2.535   4.147   2.473  0.00  0.00    +0.006 A 
ATOM     18  C   UNL     1       3.022   3.770   3.711  0.00  0.00    +0.033 A 
ATOM     19  C   UNL     1       3.923   2.726   3.811  0.00  0.00    +0.126 A 
ATOM     20  C   UNL     1       4.332   2.056   2.673  0.00  0.00    +0.033 A 
ATOM     21  C   UNL     1       3.841   2.429   1.436  0.00  0.00    +0.006 A 
BRANCH  19  22
ATOM     22  N   UNL     1       4.449   2.327   5.135  0.00  0.00    +0.056 N 
ATOM     23  O   UNL     1       5.243   1.408   5.223  0.00  0.00    -0.126 OA
ATOM     24  O   UNL     1       4.088   2.918   6.137  0.00  0.00    -0.126 OA
ENDBRANCH  19  22
ENDBRANCH   2  16
BRANCH   1  25
ATOM     25  C   UNL     1       0.523   2.268  -0.004  0.00  0.00    +0.318 C 
ATOM     26  O   UNL     1       1.395   1.432   0.021  0.00  0.00    -0.250 OA
BRANCH  25  28
ATOM     27  C   UNL     1      -1.037   0.467   0.011  0.00  0.00    +0.280 C 
ATOM     28  O   UNL     1      -0.765   1.893  -0.012  0.00  0.00    -0.467 OA
ENDBRANCH  25  28
ENDBRANCH   1  25
BRANCH   5  29
ATOM     29  C   UNL     1       0.333   5.766  -3.159  0.00  0.00    +0.318 C 
ATOM     30  O   UNL     1      -0.134   6.889  -3.124  0.00  0.00    -0.250 OA
BRANCH  29  31
ATOM     31  O   UNL     1       0.230   5.029  -4.285  0.00  0.00    -0.467 OA
ATOM     32  C   UNL     1      -0.438   5.630  -5.396  0.00  0.00    +0.280 C 
ENDBRANCH  29  31
ENDBRANCH   5  29
BRANCH   3  33
ATOM     33  C   UNL     1       1.993   6.215   0.630  0.00  0.00    +0.086 C 
ATOM     34  N   UNL     1       1.404   6.883   1.335  0.00  0.00    -0.195 NA
ENDBRANCH   3  33
BRANCH   3  35
ATOM     35  C   UNL     1       4.198   5.558  -0.081  0.00  0.00    +0.086 C 
ATOM     36  N   UNL     1       5.311   5.720   0.076  0.00  0.00    -0.195 NA
ENDBRANCH   3  35
TORSDOF 10
