REMARK  Name = ZINC03182924
REMARK  16 active torsions:
REMARK  status: ('A' for Active; 'I' for Inactive)
REMARK    1  A    between atoms: C_1  and  C_2
REMARK    2  A    between atoms: C_4  and  C_30
REMARK    3  A    between atoms: C_6  and  C_29
REMARK    4  A    between atoms: C_7  and  C_8
REMARK    5  A    between atoms: C_8  and  C_9
REMARK    6  A    between atoms: N_11  and  C_12
REMARK    7  A    between atoms: C_12  and  C_13
REMARK    8  A    between atoms: C_13  and  N_14
REMARK    9  A    between atoms: C_15  and  C_17
REMARK   10  A    between atoms: C_20  and  S_23
REMARK   11  A    between atoms: S_23  and  N_26
REMARK   12  A    between atoms: N_26  and  C_27
REMARK   13  A    between atoms: N_26  and  C_28
REMARK   14  A    between atoms: C_30  and  C_31
REMARK   15  A    between atoms: C_30  and  C_32
REMARK   16  A    between atoms: C_30  and  C_33
REMARK                            x       y       z     vdW  Elec       q    Type
REMARK                         _______ _______ _______ _____ _____    ______ ____
ROOT
ATOM      1  C   UNL     1       3.571   2.196  -0.020  0.00  0.00    +0.123 C 
ENDROOT
BRANCH   1   4
ATOM      2  C   UNL     1       6.008   2.170  -0.044  0.00  0.00    +0.217 C 
ATOM      3  O   UNL     1       5.991   3.383  -0.037  0.00  0.00    -0.275 OA
ATOM      4  N   UNL     1       4.850   1.481  -0.036  0.00  0.00    -0.314 N 
ATOM      5  H   UNL     1       4.863   0.511  -0.042  0.00  0.00    +0.149 HD
BRANCH   2   6
ATOM      6  C   UNL     1       7.323   1.435  -0.060  0.00  0.00    +0.131 C 
BRANCH   6  13
ATOM      7  C   UNL     1       8.392   2.393  -2.568  0.00  0.00    +0.044 C 
ATOM      8  C   UNL     1       8.966   2.888  -1.265  0.00  0.00    -0.046 A 
ATOM      9  C   UNL     1      10.002   3.804  -1.270  0.00  0.00    +0.007 A 
ATOM     10  C   UNL     1      10.532   4.254  -0.076  0.00  0.00    -0.041 A 
ATOM     11  C   UNL     1      10.024   3.792   1.124  0.00  0.00    +0.007 A 
ATOM     12  C   UNL     1       8.985   2.879   1.129  0.00  0.00    -0.046 A 
ATOM     13  C   UNL     1       8.455   2.429  -0.066  0.00  0.00    -0.033 A 
ATOM     14  C   UNL     1       8.432   2.375   2.437  0.00  0.00    +0.044 C 
BRANCH  10  15
ATOM     15  C   UNL     1      11.664   5.249  -0.081  0.00  0.00    -0.013 C 
ATOM     16  C   UNL     1      12.878   4.644   0.626  0.00  0.00    +0.015 C 
ATOM     17  C   UNL     1      12.034   5.592  -1.525  0.00  0.00    +0.015 C 
ATOM     18  C   UNL     1      11.229   6.520   0.650  0.00  0.00    +0.015 C 
ENDBRANCH  10  15
ENDBRANCH   6  13
ENDBRANCH   2   6
ENDBRANCH   1   4
BRANCH   1  19
ATOM     19  C   UNL     1       2.422   1.186  -0.015  0.00  0.00    +0.123 C 
BRANCH  19  20
ATOM     20  N   UNL     1       1.143   1.901   0.001  0.00  0.00    -0.310 N 
ATOM     21  C   UNL     1      -0.014   1.211   0.009  0.00  0.00    +0.244 C 
ATOM     22  O   UNL     1       0.002  -0.004   0.002  0.00  0.00    -0.270 OA
ATOM     23  H   UNL     1       1.130   2.871   0.007  0.00  0.00    +0.149 HD
BRANCH  21  24
ATOM     24  C   UNL     1      -1.305   1.933   0.019  0.00  0.00    +0.037 A 
ATOM     25  C   UNL     1      -1.327   3.329   0.032  0.00  0.00    +0.015 A 
ATOM     26  C   UNL     1      -2.534   3.996   0.036  0.00  0.00    +0.029 A 
ATOM     27  C   UNL     1      -3.721   3.285   0.038  0.00  0.00    +0.105 A 
ATOM     28  C   UNL     1      -3.706   1.901   0.030  0.00  0.00    +0.029 A 
ATOM     29  C   UNL     1      -2.506   1.222   0.021  0.00  0.00    +0.015 A 
BRANCH  27  30
ATOM     30  S   UNL     1      -5.259   4.145   0.050  0.00  0.00    +0.060 S 
ATOM     31  O   UNL     1      -5.008   5.433  -0.495  0.00  0.00    -0.153 OA
ATOM     32  O   UNL     1      -6.224   3.260  -0.502  0.00  0.00    -0.153 OA
BRANCH  30  33
ATOM     33  N   UNL     1      -5.680   4.375   1.635  0.00  0.00    -0.183 NA
ATOM     34  C   UNL     1      -5.246   5.585   2.339  0.00  0.00    +0.131 C 
ATOM     35  C   UNL     1      -6.485   3.370   2.332  0.00  0.00    +0.131 C 
ENDBRANCH  30  33
ENDBRANCH  27  30
ENDBRANCH  21  24
ENDBRANCH  19  20
ENDBRANCH   1  19
TORSDOF 9
