REMARK  Name = ZINC17962381
REMARK  13 active torsions:
REMARK  status: ('A' for Active; 'I' for Inactive)
REMARK    1  A    between atoms: C_1  and  C_2
REMARK    2  A    between atoms: C_5  and  N_8
REMARK    3  A    between atoms: N_8  and  S_9
REMARK    4  A    between atoms: S_9  and  C_12
REMARK    5  A    between atoms: C_15  and  C_35
REMARK    6  A    between atoms: C_16  and  C_18
REMARK    7  A    between atoms: N_20  and  C_21
REMARK    8  A    between atoms: N_20  and  C_22
REMARK    9  A    between atoms: C_22  and  C_23
REMARK   10  A    between atoms: N_25  and  C_26
REMARK   11  A    between atoms: C_27  and  C_34
REMARK   12  A    between atoms: C_29  and  C_33
REMARK   13  A    between atoms: C_31  and  C_32
REMARK                            x       y       z     vdW  Elec       q    Type
REMARK                         _______ _______ _______ _____ _____    ______ ____
ROOT
ATOM      1  C   UNL     1      -1.596   4.223  -3.886  0.00  0.00    +0.109 A 
ATOM      2  C   UNL     1      -1.880   3.040  -3.228  0.00  0.00    +0.029 A 
ATOM      3  C   UNL     1      -0.860   2.281  -2.684  0.00  0.00    +0.006 A 
ATOM      4  C   UNL     1       0.449   2.707  -2.784  0.00  0.00    -0.038 A 
ATOM      5  C   UNL     1       0.743   3.902  -3.441  0.00  0.00    +0.042 A 
ATOM      6  C   UNL     1      -0.292   4.660  -3.993  0.00  0.00    +0.042 A 
ATOM      7  C   UNL     1       1.559   1.882  -2.184  0.00  0.00    +0.044 C 
ENDROOT
BRANCH   5   8
ATOM      8  C   UNL     1       2.143   4.364  -3.552  0.00  0.00    +0.247 C 
ATOM      9  O   UNL     1       2.846   4.416  -2.562  0.00  0.00    -0.270 OA
ATOM     10  N   UNL     1       2.639   4.727  -4.752  0.00  0.00    -0.292 N 
ATOM     11  C   UNL     1       1.765   4.758  -5.927  0.00  0.00    +0.133 C 
BRANCH  10  12
ATOM     12  C   UNL     1       4.052   5.090  -4.880  0.00  0.00    +0.203 C 
BRANCH  12  13
ATOM     13  C   UNL     1       4.861   3.860  -5.200  0.00  0.00    +0.235 C 
ATOM     14  O   UNL     1       4.310   2.784  -5.311  0.00  0.00    -0.274 OA
ATOM     15  N   UNL     1       6.195   3.953  -5.364  0.00  0.00    -0.284 N 
ATOM     16  H   UNL     1       6.642   4.804  -5.229  0.00  0.00    +0.155 HD
BRANCH  15  17
ATOM     17  C   UNL     1       6.936   2.824  -5.728  0.00  0.00    +0.039 A 
ATOM     18  C   UNL     1       7.700   2.837  -6.888  0.00  0.00    -0.029 A 
ATOM     19  C   UNL     1       8.434   1.722  -7.243  0.00  0.00    +0.008 A 
ATOM     20  C   UNL     1       8.401   0.590  -6.450  0.00  0.00    -0.050 A 
ATOM     21  C   UNL     1       7.638   0.572  -5.297  0.00  0.00    +0.008 A 
ATOM     22  C   UNL     1       6.906   1.685  -4.934  0.00  0.00    -0.029 A 
ATOM     23  C   UNL     1       6.075   1.665  -3.677  0.00  0.00    +0.045 C 
ATOM     24  C   UNL     1       9.199  -0.626  -6.843  0.00  0.00    +0.044 C 
ATOM     25  C   UNL     1       7.731   4.069  -7.756  0.00  0.00    +0.045 C 
ENDBRANCH  15  17
ENDBRANCH  12  13
ENDBRANCH  10  12
ENDBRANCH   5   8
BRANCH   1  26
ATOM     26  S   UNL     1      -2.902   5.179  -4.582  0.00  0.00    +0.072 S 
ATOM     27  O   UNL     1      -2.394   6.493  -4.761  0.00  0.00    -0.150 OA
ATOM     28  O   UNL     1      -4.061   4.909  -3.805  0.00  0.00    -0.150 OA
BRANCH  26  29
ATOM     29  N   UNL     1      -3.197   4.575  -6.096  0.00  0.00    -0.216 N 
ATOM     30  H   UNL     1      -3.048   5.131  -6.877  0.00  0.00    +0.174 HD
BRANCH  29  35
ATOM     31  C   UNL     1      -5.076  -0.739  -6.715  0.00  0.00    +0.044 C 
ATOM     32  C   UNL     1      -4.577   0.673  -6.551  0.00  0.00    -0.050 A 
ATOM     33  C   UNL     1      -5.439   1.664  -6.117  0.00  0.00    +0.005 A 
ATOM     34  C   UNL     1      -4.984   2.959  -5.965  0.00  0.00    +0.025 A 
ATOM     35  C   UNL     1      -3.660   3.266  -6.248  0.00  0.00    +0.048 A 
ATOM     36  C   UNL     1      -2.798   2.270  -6.689  0.00  0.00    +0.025 A 
ATOM     37  C   UNL     1      -3.257   0.976  -6.834  0.00  0.00    +0.005 A 
ENDBRANCH  29  35
ENDBRANCH  26  29
ENDBRANCH   1  26
TORSDOF 7
