REMARK  Name = ZINC13139471
REMARK  7 active torsions:
REMARK  status: ('A' for Active; 'I' for Inactive)
REMARK    1  A    between atoms: C_2  and  C_3
REMARK    2  A    between atoms: C_3  and  N_4
REMARK    3  A    between atoms: C_8  and  S_31
REMARK    4  A    between atoms: N_13  and  C_14
REMARK    5  A    between atoms: C_14  and  C_16
REMARK    6  A    between atoms: C_18  and  C_26
REMARK    7  A    between atoms: S_31  and  N_34
REMARK                            x       y       z     vdW  Elec       q    Type
REMARK                         _______ _______ _______ _____ _____    ______ ____
ROOT
ATOM      1  N   UNL     1       1.347   2.000  -0.000  0.00  0.00    -0.310 N 
ATOM      2  C   UNL     1       2.012   2.226   1.190  0.00  0.00    +0.059 A 
ATOM      3  C   UNL     1       1.556   2.053   2.505  0.00  0.00    +0.029 A 
ATOM      4  C   UNL     1       2.376   2.336   3.573  0.00  0.00    +0.030 A 
ATOM      5  C   UNL     1       3.667   2.798   3.383  0.00  0.00    +0.106 A 
ATOM      6  C   UNL     1       4.141   2.977   2.095  0.00  0.00    +0.045 A 
ATOM      7  C   UNL     1       3.323   2.695   1.027  0.00  0.00    +0.041 A 
ATOM      8  S   UNL     1       3.506   2.775  -0.736  0.00  0.00    -0.052 S 
ATOM      9  C   UNL     1       1.980   2.229  -1.180  0.00  0.00    +0.168 A 
ATOM     10  N   UNL     1       1.499   2.063  -2.408  0.00  0.00    -0.152 NA
ENDROOT
BRANCH   5  11
ATOM     11  S   UNL     1       4.697   3.155   4.768  0.00  0.00    +0.056 S 
ATOM     12  O   UNL     1       5.669   4.090   4.321  0.00  0.00    -0.153 OA
ATOM     13  O   UNL     1       3.830   3.422   5.861  0.00  0.00    -0.153 OA
BRANCH  11  14
ATOM     14  N   UNL     1       5.515   1.764   5.141  0.00  0.00    -0.204 NA
ATOM     15  H   UNL     1       5.369   0.960   4.618  0.00  0.00    +0.144 HD
ATOM     16  H   UNL     1       6.140   1.753   5.883  0.00  0.00    +0.144 HD
ENDBRANCH  11  14
ENDBRANCH   5  11
BRANCH  10  17
ATOM     17  C   UNL     1       2.265   2.340  -3.468  0.00  0.00    +0.270 C 
ATOM     18  O   UNL     1       3.403   2.744  -3.309  0.00  0.00    -0.268 OA
BRANCH  17  19
ATOM     19  C   UNL     1       1.729   2.154  -4.837  0.00  0.00    +0.050 A 
ATOM     20  C   UNL     1       0.483   1.587  -5.052  0.00  0.00    +0.042 A 
ATOM     21  C   UNL     1       0.014   1.430  -6.367  0.00  0.00    +0.079 A 
ATOM     22  N   UNL     1       0.722   1.806  -7.416  0.00  0.00    -0.246 NA
ATOM     23  C   UNL     1       1.930   2.360  -7.298  0.00  0.00    +0.072 A 
ATOM     24  C   UNL     1       2.493   2.568  -6.014  0.00  0.00    +0.013 A 
ATOM     25  C   UNL     1       3.757   3.154  -5.896  0.00  0.00    +0.011 A 
ATOM     26  C   UNL     1       4.436   3.526  -7.019  0.00  0.00    +0.001 A 
ATOM     27  C   UNL     1       3.885   3.329  -8.283  0.00  0.00    +0.002 A 
ATOM     28  C   UNL     1       2.662   2.751  -8.435  0.00  0.00    +0.028 A 
BRANCH  21  29
ATOM     29  C   UNL     1      -1.314   0.825  -6.583  0.00  0.00    +0.038 A 
ATOM     30  C   UNL     1      -1.966   0.571  -7.762  0.00  0.00    +0.017 A 
ATOM     31  C   UNL     1      -3.213  -0.008  -7.716  0.00  0.00    +0.008 A 
ATOM     32  C   UNL     1      -3.760  -0.310  -6.508  0.00  0.00    +0.046 A 
ATOM     33  S   UNL     1      -2.486   0.226  -5.377  0.00  0.00    -0.095 S 
ENDBRANCH  21  29
ENDBRANCH  17  19
ENDBRANCH  10  17
BRANCH   1  34
ATOM     34  C   UNL     1      -0.032   1.508   0.010  0.00  0.00    +0.212 C 
BRANCH  34  36
ATOM     35  C   UNL     1      -0.025  -1.138   0.007  0.00  0.00    +0.005 C 
ATOM     36  C   UNL     1      -0.029   0.036   0.009  0.00  0.00    -0.084 C 
ENDBRANCH  34  36
ENDBRANCH   1  34
TORSDOF 7
