REMARK  Name = ZINC20885822
REMARK  10 active torsions:
REMARK  status: ('A' for Active; 'I' for Inactive)
REMARK    1  A    between atoms: C_1  and  C_2
REMARK    2  A    between atoms: C_2  and  O_3
REMARK    3  A    between atoms: O_3  and  C_4
REMARK    4  A    between atoms: C_7  and  C_12
REMARK    5  A    between atoms: C_9  and  O_10
REMARK    6  A    between atoms: O_10  and  C_11
REMARK    7  A    between atoms: C_17  and  C_27
REMARK    8  A    between atoms: C_31  and  O_34
REMARK    9  A    between atoms: C_32  and  O_33
REMARK   10  A    between atoms: O_34  and  C_35
REMARK                            x       y       z     vdW  Elec       q    Type
REMARK                         _______ _______ _______ _____ _____    ______ ____
ROOT
ATOM      1  C   UNL     1      -2.613   4.471   2.986  0.00  0.00    +0.032 C 
ATOM      2  C   UNL     1      -1.467   3.572   3.447  0.00  0.00    +0.059 C 
ATOM      3  C   UNL     1      -0.904   2.803   2.263  0.00  0.00    +0.017 C 
ATOM      4  C   UNL     1      -1.704   2.432   1.249  0.00  0.00    +0.037 C 
ATOM      5  C   UNL     1      -1.280   1.661   0.017  0.00  0.00    +0.140 C 
ATOM      6  N   UNL     1       0.047   1.089   0.101  0.00  0.00    -0.331 N 
ATOM      7  C   UNL     1       1.176   1.902   0.182  0.00  0.00    +0.049 A 
ATOM      8  C   UNL     1       2.123   1.931  -0.829  0.00  0.00    +0.025 A 
ATOM      9  C   UNL     1       3.203   2.790  -0.724  0.00  0.00    +0.002 A 
ATOM     10  C   UNL     1       3.337   3.616   0.377  0.00  0.00    +0.002 A 
ATOM     11  C   UNL     1       2.401   3.577   1.397  0.00  0.00    +0.025 A 
ATOM     12  C   UNL     1       1.333   2.702   1.304  0.00  0.00    +0.052 A 
ATOM     13  N   UNL     1       0.423   2.529   2.341  0.00  0.00    -0.316 N 
ATOM     14  C   UNL     1      -3.077   2.773   1.264  0.00  0.00    +0.163 C 
ATOM     15  O   UNL     1      -3.783   2.405   0.346  0.00  0.00    -0.292 OA
ATOM     16  C   UNL     1      -3.693   3.572   2.373  0.00  0.00    +0.088 C 
ATOM     17  H   UNL     1       0.175  -0.004   0.101  0.00  0.00    +0.147 HD
ATOM     18  H   UNL     1       0.850   2.139   3.276  0.00  0.00    +0.152 HD
ENDROOT
BRANCH   1  22
ATOM     19  C   UNL     1      -4.219   6.594   6.333  0.00  0.00    +0.162 A 
ATOM     20  C   UNL     1      -4.234   5.208   6.316  0.00  0.00    +0.050 A 
ATOM     21  C   UNL     1      -3.714   4.525   5.233  0.00  0.00    +0.008 A 
ATOM     22  C   UNL     1      -3.179   5.221   4.165  0.00  0.00    -0.040 A 
ATOM     23  C   UNL     1      -3.157   6.603   4.178  0.00  0.00    +0.053 A 
ATOM     24  C   UNL     1      -3.681   7.294   5.258  0.00  0.00    +0.162 A 
BRANCH  24  25
ATOM     25  O   UNL     1      -3.665   8.654   5.270  0.00  0.00    -0.491 OA
ATOM     26  C   UNL     1      -3.097   9.306   4.132  0.00  0.00    +0.277 C 
ENDBRANCH  24  25
BRANCH  19  27
ATOM     27  O   UNL     1      -4.730   7.268   7.399  0.00  0.00    -0.489 OA
BRANCH  27  29
ATOM     28  C   UNL     1      -5.788   7.409   9.567  0.00  0.00    +0.048 C 
ATOM     29  C   UNL     1      -5.265   6.483   8.467  0.00  0.00    +0.226 C 
ENDBRANCH  27  29
ENDBRANCH  19  27
ENDBRANCH   1  22
BRANCH   5  30
ATOM     30  C   UNL     1      -1.326   2.588  -1.170  0.00  0.00    +0.022 A 
ATOM     31  C   UNL     1      -1.267   3.957  -0.981  0.00  0.00    +0.009 A 
ATOM     32  C   UNL     1      -1.303   4.810  -2.069  0.00  0.00    +0.004 A 
ATOM     33  C   UNL     1      -1.409   4.298  -3.349  0.00  0.00    +0.049 A 
ATOM     34  C   UNL     1      -1.474   2.929  -3.545  0.00  0.00    +0.162 A 
ATOM     35  C   UNL     1      -1.432   2.070  -2.450  0.00  0.00    +0.164 A 
BRANCH  35  36
ATOM     36  O   UNL     1      -1.495   0.724  -2.637  0.00  0.00    -0.503 OA
ATOM     37  H   UNL     1      -1.580   0.313  -3.654  0.00  0.00    +0.292 HD
ENDBRANCH  35  36
BRANCH  34  38
ATOM     38  O   UNL     1      -1.578   2.424  -4.803  0.00  0.00    -0.491 OA
ATOM     39  C   UNL     1      -1.616   3.365  -5.878  0.00  0.00    +0.277 C 
ENDBRANCH  34  38
ENDBRANCH   5  30
TORSDOF 7
