REMARK  Name = ZINC20822643
REMARK  10 active torsions:
REMARK  status: ('A' for Active; 'I' for Inactive)
REMARK    1  A    between atoms: C_1  and  C_2
REMARK    2  A    between atoms: C_5  and  S_9
REMARK    3  A    between atoms: C_7  and  C_8
REMARK    4  A    between atoms: S_9  and  N_12
REMARK    5  A    between atoms: N_12  and  C_13
REMARK    6  A    between atoms: C_13  and  C_14
REMARK    7  A    between atoms: C_14  and  O_16
REMARK    8  A    between atoms: O_16  and  C_17
REMARK    9  A    between atoms: C_17  and  C_18
REMARK   10  A    between atoms: N_20  and  C_21
REMARK                            x       y       z     vdW  Elec       q    Type
REMARK                         _______ _______ _______ _____ _____    ______ ____
ROOT
ATOM      1  C   UNL     1       4.494   8.080  -1.097  0.00  0.00    +0.323 C 
ATOM      2  O   UNL     1       5.602   7.655  -0.874  0.00  0.00    -0.249 OA
ENDROOT
BRANCH   1   3
ATOM      3  C   UNL     1       4.310   9.506  -1.548  0.00  0.00    +0.226 C 
BRANCH   3   4
ATOM      4  N   UNL     1       5.617  10.162  -1.638  0.00  0.00    -0.179 NA
ATOM      5  H   UNL     1       6.459   9.796  -1.033  0.00  0.00    +0.149 HD
BRANCH   4   6
ATOM      6  S   UNL     1       5.769  11.596  -2.452  0.00  0.00    +0.059 S 
ATOM      7  O   UNL     1       7.132  11.985  -2.339  0.00  0.00    -0.153 OA
ATOM      8  O   UNL     1       5.129  11.420  -3.708  0.00  0.00    -0.153 OA
BRANCH   6  13
ATOM      9  C   UNL     1       2.547  15.711   0.564  0.00  0.00    +0.044 C 
ATOM     10  C   UNL     1       3.352  14.683  -0.190  0.00  0.00    -0.047 A 
ATOM     11  C   UNL     1       2.759  13.941  -1.194  0.00  0.00    +0.005 A 
ATOM     12  C   UNL     1       3.498  13.002  -1.888  0.00  0.00    +0.029 A 
ATOM     13  C   UNL     1       4.828  12.798  -1.571  0.00  0.00    +0.106 A 
ATOM     14  C   UNL     1       5.422  13.540  -0.568  0.00  0.00    +0.032 A 
ATOM     15  C   UNL     1       4.684  14.483   0.123  0.00  0.00    -0.046 A 
ATOM     16  C   UNL     1       5.330  15.293   1.217  0.00  0.00    +0.044 C 
ENDBRANCH   6  13
ENDBRANCH   4   6
ENDBRANCH   3   4
ENDBRANCH   1   3
BRANCH   1  17
ATOM     17  O   UNL     1       3.425   7.282  -0.944  0.00  0.00    -0.454 OA
BRANCH  17  18
ATOM     18  C   UNL     1       3.677   5.920  -0.507  0.00  0.00    +0.328 C 
BRANCH  18  19
ATOM     19  C   UNL     1       2.370   5.180  -0.392  0.00  0.00    +0.255 C 
ATOM     20  O   UNL     1       1.328   5.744  -0.651  0.00  0.00    -0.272 OA
ATOM     21  N   UNL     1       2.358   3.890   0.001  0.00  0.00    -0.280 N 
ATOM     22  H   UNL     1       3.292   3.403   0.315  0.00  0.00    +0.155 HD
BRANCH  21  23
ATOM     23  C   UNL     1       1.156   3.172   0.008  0.00  0.00    +0.071 A 
ATOM     24  C   UNL     1       0.748   2.486  -1.129  0.00  0.00    +0.065 A 
ATOM     25  C   UNL     1      -0.439   1.777  -1.118  0.00  0.00    +0.042 A 
ATOM     26  C   UNL     1      -1.223   1.755   0.021  0.00  0.00    +0.044 A 
ATOM     27  C   UNL     1      -0.817   2.433   1.157  0.00  0.00    +0.042 A 
ATOM     28  C   UNL     1       0.369   3.143   1.153  0.00  0.00    +0.065 A 
ATOM     29 CL   UNL     1       0.875   3.999   2.576  0.00  0.00    -0.082 Cl
ATOM     30 CL   UNL     1      -2.716   0.870   0.028  0.00  0.00    -0.083 Cl
ATOM     31 CL   UNL     1       1.728   2.518  -2.561  0.00  0.00    -0.082 Cl
ENDBRANCH  21  23
ENDBRANCH  18  19
ENDBRANCH  17  18
ENDBRANCH   1  17
TORSDOF 8
