REMARK  Name = ZINC14475705
REMARK  6 active torsions:
REMARK  status: ('A' for Active; 'I' for Inactive)
REMARK    1  A    between atoms: C_1  and  C_2
REMARK    2  A    between atoms: N_4  and  C_5
REMARK    3  A    between atoms: N_4  and  C_6
REMARK    4  A    between atoms: C_19  and  C_22
REMARK    5  A    between atoms: C_24  and  N_29
REMARK    6  A    between atoms: C_27  and  O_28
REMARK                            x       y       z     vdW  Elec       q    Type
REMARK                         _______ _______ _______ _____ _____    ______ ____
ROOT
ATOM      1  C   UNL     1      -0.191  -2.070  -1.097  0.00  0.00    +0.036 A 
ATOM      2  C   UNL     1      -0.067  -2.719   0.125  0.00  0.00    +0.025 A 
ATOM      3  C   UNL     1      -0.162  -4.093   0.191  0.00  0.00    +0.025 A 
ATOM      4  C   UNL     1      -0.378  -4.839  -0.961  0.00  0.00    +0.031 A 
ATOM      5  C   UNL     1      -0.490  -4.183  -2.192  0.00  0.00    -0.018 A 
ATOM      6  C   UNL     1      -0.409  -2.809  -2.252  0.00  0.00    +0.029 A 
ATOM      7  C   UNL     1      -0.681  -5.020  -3.397  0.00  0.00    +0.049 C 
ATOM      8  C   UNL     1      -1.374  -4.506  -4.606  0.00  0.00    -0.023 C 
ATOM      9  C   UNL     1      -1.992  -5.519  -5.203  0.00  0.00    -0.030 C 
ATOM     10  C   UNL     1      -1.782  -6.805  -4.402  0.00  0.00    +0.033 C 
ATOM     11  C   UNL     1      -1.563  -6.240  -2.996  0.00  0.00    +0.029 C 
ATOM     12  C   UNL     1      -0.703  -7.072  -2.062  0.00  0.00    +0.108 C 
ATOM     13  N   UNL     1      -0.491  -6.234  -0.862  0.00  0.00    -0.336 N 
ATOM     14  H   UNL     1      -0.430  -6.656   0.009  0.00  0.00    +0.147 HD
ENDROOT
BRANCH  12  15
ATOM     15  C   UNL     1      -1.419  -8.346  -1.692  0.00  0.00    +0.017 A 
ATOM     16  C   UNL     1      -2.159  -8.409  -0.527  0.00  0.00    +0.041 A 
ATOM     17  C   UNL     1      -2.816  -9.576  -0.186  0.00  0.00    +0.127 A 
ATOM     18  C   UNL     1      -2.734 -10.684  -1.010  0.00  0.00    +0.036 A 
ATOM     19  C   UNL     1      -1.994 -10.627  -2.175  0.00  0.00    +0.048 A 
ATOM     20  C   UNL     1      -1.339  -9.454  -2.522  0.00  0.00    +0.122 A 
BRANCH  17  21
ATOM     21  N   UNL     1      -3.609  -9.641   1.062  0.00  0.00    +0.056 N 
ATOM     22  O   UNL     1      -3.681  -8.674   1.783  0.00  0.00    -0.126 OA
ATOM     23  O   UNL     1      -4.183 -10.662   1.361  0.00  0.00    -0.126 OA
ENDBRANCH  17  21
BRANCH  20  24
ATOM     24  O   UNL     1      -0.615  -9.393  -3.671  0.00  0.00    -0.506 OA
ATOM     25  H   UNL     1       0.311  -9.651  -3.566  0.00  0.00    +0.292 HD
ENDBRANCH  20  24
ENDBRANCH  12  15
BRANCH   1  29
ATOM     26  C   UNL     1      -0.060   1.558  -0.096  0.00  0.00    +0.109 C 
ATOM     27  C   UNL     1      -0.037   0.053  -0.029  0.00  0.00    +0.216 C 
ATOM     28  O   UNL     1       0.039  -0.506   1.044  0.00  0.00    -0.276 OA
ATOM     29  N   UNL     1      -0.102  -0.673  -1.163  0.00  0.00    -0.275 N 
ATOM     30  C   UNL     1      -0.079  -0.001  -2.465  0.00  0.00    +0.138 C 
ENDBRANCH   1  29
TORSDOF 4
