REMARK  Name = ZINC22110197
REMARK  9 active torsions:
REMARK  status: ('A' for Active; 'I' for Inactive)
REMARK    1  A    between atoms: C_1  and  O_2
REMARK    2  A    between atoms: O_2  and  C_3
REMARK    3  A    between atoms: C_5  and  C_19
REMARK    4  A    between atoms: C_8  and  O_9
REMARK    5  A    between atoms: O_9  and  C_10
REMARK    6  A    between atoms: C_10  and  C_11
REMARK    7  A    between atoms: C_19  and  N_20
REMARK    8  A    between atoms: N_20  and  N_21
REMARK    9  A    between atoms: C_22  and  C_27
REMARK                            x       y       z     vdW  Elec       q    Type
REMARK                         _______ _______ _______ _____ _____    ______ ____
ROOT
ATOM      1  C   UNL     1      -0.516   2.951   1.698  0.00  0.00    +0.163 A 
ATOM      2  C   UNL     1      -0.140   3.862   0.725  0.00  0.00    +0.054 A 
ATOM      3  C   UNL     1       0.015   5.197   1.050  0.00  0.00    -0.024 A 
ATOM      4  C   UNL     1      -0.193   5.625   2.348  0.00  0.00    +0.029 A 
ATOM      5  C   UNL     1      -0.564   4.719   3.326  0.00  0.00    +0.086 A 
ATOM      6  C   UNL     1      -0.726   3.380   3.005  0.00  0.00    +0.181 A 
ATOM      7 CL   UNL     1      -0.825   5.260   4.955  0.00  0.00    -0.080 Cl
ENDROOT
BRANCH   1   9
ATOM      8  C   UNL     1      -0.442   1.270   0.018  0.00  0.00    +0.277 C 
ATOM      9  O   UNL     1      -0.674   1.639   1.379  0.00  0.00    -0.491 OA
ENDBRANCH   1   9
BRANCH   6  10
ATOM     10  O   UNL     1      -1.091   2.489   3.965  0.00  0.00    -0.482 OA
BRANCH  10  11
ATOM     11  C   UNL     1      -0.039   1.850   4.690  0.00  0.00    +0.266 C 
BRANCH  11  12
ATOM     12  C   UNL     1      -0.629   0.903   5.704  0.00  0.00    +0.008 A 
ATOM     13  C   UNL     1      -2.001   0.775   5.812  0.00  0.00    +0.008 A 
ATOM     14  C   UNL     1      -2.543  -0.096   6.739  0.00  0.00    +0.000 A 
ATOM     15  C   UNL     1      -1.714  -0.833   7.564  0.00  0.00    +0.001 A 
ATOM     16  C   UNL     1      -0.342  -0.702   7.459  0.00  0.00    +0.020 A 
ATOM     17  C   UNL     1       0.201   0.167   6.529  0.00  0.00    +0.047 A 
ATOM     18 CL   UNL     1       1.924   0.332   6.398  0.00  0.00    -0.083 Cl
ENDBRANCH  11  12
ENDBRANCH  10  11
ENDBRANCH   6  10
BRANCH   3  19
ATOM     19  C   UNL     1       0.419   6.187  -0.012  0.00  0.00    +0.156 C 
BRANCH  19  20
ATOM     20  N   UNL     1       1.884   6.277  -0.067  0.00  0.00    -0.277 N 
ATOM     21  H   UNL     1       2.498   5.667   0.612  0.00  0.00    +0.167 HD
BRANCH  20  22
ATOM     22  N   UNL     1       2.285   7.168  -1.021  0.00  0.00    -0.222 N 
ATOM     23  C   UNL     1       2.583   8.499  -0.843  0.00  0.00    +0.180 A 
ATOM     24  N   UNL     1       2.922   8.979  -2.017  0.00  0.00    -0.152 NA
ATOM     25  N   UNL     1       2.857   8.052  -2.905  0.00  0.00    -0.253 N 
ATOM     26  C   UNL     1       2.478   6.922  -2.351  0.00  0.00    +0.193 A 
ATOM     27  S   UNL     1       2.257   5.379  -3.171  0.00  0.00    -0.010 S 
ATOM     28  H   UNL     1       3.105   8.276  -3.953  0.00  0.00    +0.191 HD
BRANCH  23  29
ATOM     29  C   UNL     1       2.531   9.249   0.430  0.00  0.00    +0.021 A 
ATOM     30  C   UNL     1       3.193  10.472   0.552  0.00  0.00    +0.011 A 
ATOM     31  C   UNL     1       3.136  11.168   1.741  0.00  0.00    +0.001 A 
ATOM     32  C   UNL     1       2.435  10.651   2.816  0.00  0.00    +0.000 A 
ATOM     33  C   UNL     1       1.782   9.437   2.705  0.00  0.00    +0.001 A 
ATOM     34  C   UNL     1       1.826   8.733   1.519  0.00  0.00    +0.011 A 
ENDBRANCH  23  29
ENDBRANCH  20  22
ENDBRANCH  19  20
ENDBRANCH   3  19
TORSDOF 8
