REMARK  Name = ZINC09636400
REMARK  8 active torsions:
REMARK  status: ('A' for Active; 'I' for Inactive)
REMARK    1  A    between atoms: C_1  and  N_2
REMARK    2  A    between atoms: C_6  and  S_15
REMARK    3  A    between atoms: N_11  and  C_14
REMARK    4  A    between atoms: S_15  and  N_18
REMARK    5  A    between atoms: N_18  and  C_19
REMARK    6  A    between atoms: C_19  and  C_21
REMARK    7  A    between atoms: C_19  and  C_27
REMARK    8  A    between atoms: N_29  and  C_30
REMARK                            x       y       z     vdW  Elec       q    Type
REMARK                         _______ _______ _______ _____ _____    ______ ____
ROOT
ATOM      1  N   UNL     1      -1.275   7.253   5.336  0.00  0.00    -0.174 NA
ATOM      2  H   UNL     1      -1.387   7.536   6.257  0.00  0.00    +0.149 HD
ENDROOT
BRANCH   1   3
ATOM      3  S   UNL     1      -2.588   6.762   4.455  0.00  0.00    +0.059 S 
ATOM      4  O   UNL     1      -2.530   7.458   3.217  0.00  0.00    -0.153 OA
ATOM      5  O   UNL     1      -3.712   6.843   5.322  0.00  0.00    -0.153 OA
BRANCH   3  11
ATOM      6  C   UNL     1      -2.324  -0.015   4.123  0.00  0.00    +0.154 C 
ATOM      7  N   UNL     1      -1.823   1.020   3.215  0.00  0.00    -0.296 N 
ATOM      8  C   UNL     1      -2.014   2.358   3.527  0.00  0.00    +0.058 A 
ATOM      9  C   UNL     1      -2.672   2.748   4.684  0.00  0.00    +0.028 A 
ATOM     10  C   UNL     1      -2.841   4.090   4.957  0.00  0.00    +0.030 A 
ATOM     11  C   UNL     1      -2.360   5.055   4.085  0.00  0.00    +0.106 A 
ATOM     12  C   UNL     1      -1.702   4.686   2.930  0.00  0.00    +0.043 A 
ATOM     13  C   UNL     1      -1.525   3.335   2.643  0.00  0.00    +0.065 A 
ATOM     14  C   UNL     1      -0.826   2.886   1.425  0.00  0.00    +0.264 A 
ATOM     15  O   UNL     1      -0.379   3.690   0.630  0.00  0.00    -0.267 OA
ATOM     16  N   UNL     1      -0.698   1.558   1.213  0.00  0.00    -0.263 N 
ATOM     17  C   UNL     1      -1.183   0.663   2.088  0.00  0.00    +0.332 A 
ATOM     18  O   UNL     1      -1.037  -0.520   1.851  0.00  0.00    -0.246 OA
ATOM     19  C   UNL     1      -0.013   1.086   0.008  0.00  0.00    +0.157 C 
ENDBRANCH   3  11
ENDBRANCH   1   3
BRANCH   1  20
ATOM     20  C   UNL     1       0.057   7.259   4.725  0.00  0.00    +0.192 C 
BRANCH  20  21
ATOM     21  C   UNL     1       0.767   5.971   5.055  0.00  0.00    -0.020 A 
ATOM     22  C   UNL     1       0.657   5.427   6.321  0.00  0.00    +0.006 A 
ATOM     23  C   UNL     1       1.305   4.244   6.623  0.00  0.00    +0.000 A 
ATOM     24  C   UNL     1       2.071   3.610   5.662  0.00  0.00    +0.000 A 
ATOM     25  C   UNL     1       2.185   4.158   4.398  0.00  0.00    +0.000 A 
ATOM     26  C   UNL     1       1.534   5.339   4.095  0.00  0.00    +0.006 A 
ENDBRANCH  20  21
BRANCH  20  27
ATOM     27  C   UNL     1       0.850   8.422   5.260  0.00  0.00    +0.236 C 
ATOM     28  O   UNL     1       0.353   9.173   6.073  0.00  0.00    -0.274 OA
ATOM     29  N   UNL     1       2.113   8.629   4.836  0.00  0.00    -0.311 N 
ATOM     30  H   UNL     1       2.510   8.029   4.186  0.00  0.00    +0.149 HD
BRANCH  29  31
ATOM     31  C   UNL     1       2.884   9.761   5.357  0.00  0.00    +0.073 C 
ATOM     32  C   UNL     1       2.522  11.025   4.551  0.00  0.00    +0.022 C 
ATOM     33  C   UNL     1       2.888  12.234   5.370  0.00  0.00    +0.002 C 
ATOM     34  C   UNL     1       4.292  12.770   5.032  0.00  0.00    +0.000 C 
ATOM     35  C   UNL     1       5.331  11.648   4.844  0.00  0.00    +0.000 C 
ATOM     36  C   UNL     1       5.190  10.555   5.868  0.00  0.00    +0.002 C 
ATOM     37  C   UNL     1       4.302   9.441   5.277  0.00  0.00    +0.022 C 
ENDBRANCH  29  31
ENDBRANCH  20  27
ENDBRANCH   1  20
TORSDOF 6
