REMARK  Name = ZINC03883575
REMARK  2 active torsions:
REMARK  status: ('A' for Active; 'I' for Inactive)
REMARK    1  A    between atoms: C_1  and  C_2
REMARK    2  A    between atoms: C_7  and  C_15
REMARK                            x       y       z     vdW  Elec       q    Type
REMARK                         _______ _______ _______ _____ _____    ______ ____
ROOT
ATOM      1  C   UNL     1      -5.316   3.586   3.119  0.00  0.00    +0.043 C 
ATOM      2  C   UNL     1      -4.931   3.254   1.700  0.00  0.00    -0.054 C 
ATOM      3  C   UNL     1      -4.140   2.216   1.449  0.00  0.00    -0.014 C 
ATOM      4  C   UNL     1      -3.760   1.886   0.029  0.00  0.00    +0.064 C 
ATOM      5  C   UNL     1      -2.466   1.113   0.020  0.00  0.00    -0.003 C 
ATOM      6  C   UNL     1      -1.296   1.794   0.018  0.00  0.00    +0.047 C 
ATOM      7  C   UNL     1      -1.331   3.271   0.032  0.00  0.00    +0.134 C 
ATOM      8  N   UNL     1      -2.401   3.897  -0.339  0.00  0.00    -0.263 NA
ATOM      9  C   UNL     1      -3.595   3.175  -0.774  0.00  0.00    +0.140 C 
ATOM     10  C   UNL     1      -4.809   4.048  -0.587  0.00  0.00    +0.001 C 
ATOM     11  C   UNL     1      -5.430   4.078   0.588  0.00  0.00    +0.001 C 
ATOM     12 CL   UNL     1       0.067   4.166   0.541  0.00  0.00    -0.062 Cl
ENDROOT
BRANCH   6  13
ATOM     13  C   UNL     1      -0.013   1.076   0.008  0.00  0.00    +0.261 C 
ATOM     14  O   UNL     1       1.029   1.696   0.001  0.00  0.00    -0.296 OA
ENDBRANCH   6  13
TORSDOF 1
