REMARK  Name = ZINC39393358
REMARK  8 active torsions:
REMARK  status: ('A' for Active; 'I' for Inactive)
REMARK    1  A    between atoms: C_1  and  O_2
REMARK    2  A    between atoms: O_2  and  C_3
REMARK    3  A    between atoms: C_3  and  C_5
REMARK    4  A    between atoms: N_11  and  C_26
REMARK    5  A    between atoms: C_18  and  O_20
REMARK    6  A    between atoms: O_20  and  C_21
REMARK    7  A    between atoms: C_26  and  C_27
REMARK    8  A    between atoms: C_32  and  C_33
REMARK                            x       y       z     vdW  Elec       q    Type
REMARK                         _______ _______ _______ _____ _____    ______ ____
ROOT
ATOM      1  C   UNL     1       0.819  -1.604  -1.136  0.00  0.00    +0.147 C 
ATOM      2  C   UNL     1       1.512  -2.141  -2.386  0.00  0.00    +0.090 C 
ATOM      3  C   UNL     1       0.709  -1.808  -3.623  0.00  0.00    +0.005 C 
ATOM      4  C   UNL     1       1.634  -1.681  -4.837  0.00  0.00    -0.077 C 
ATOM      5  N   UNL     1       1.970  -2.919  -5.410  0.00  0.00    +0.381 N 
ATOM      6  C   UNL     1       2.769  -3.764  -4.503  0.00  0.00    -0.060 C 
ATOM      7  C   UNL     1       1.883  -4.439  -3.484  0.00  0.00    +0.089 C 
ATOM      8  N   UNL     1       1.692  -3.599  -2.290  0.00  0.00    -0.299 N 
ATOM      9  C   UNL     1       1.716  -4.229  -1.105  0.00  0.00    +0.218 C 
ATOM     10  O   UNL     1       1.952  -5.419  -1.108  0.00  0.00    -0.276 OA
ATOM     11  C   UNL     1       1.475  -3.574   0.219  0.00  0.00    +0.128 C 
ATOM     12  C   UNL     1       1.611  -2.056   0.098  0.00  0.00    +0.143 C 
ATOM     13  H   UNL     1       1.121  -3.409  -5.650  0.00  0.00    -0.082 HD
ENDROOT
BRANCH   1  14
ATOM     14  C   UNL     1       0.778  -0.099  -1.187  0.00  0.00    +0.314 C 
ATOM     15  O   UNL     1       1.250   0.487  -2.134  0.00  0.00    -0.250 OA
BRANCH  14  17
ATOM     16  C   UNL     1       0.213   2.017  -0.297  0.00  0.00    +0.280 C 
ATOM     17  O   UNL     1       0.218   0.592  -0.182  0.00  0.00    -0.468 OA
ENDBRANCH  14  17
ENDBRANCH   1  14
BRANCH  12  18
ATOM     18  O   UNL     1       1.083  -1.426   1.267  0.00  0.00    -0.372 OA
BRANCH  18  19
ATOM     19  C   UNL     1       2.051  -1.204   2.295  0.00  0.00    +0.119 C 
ATOM     20  C   UNL     1       2.058  -2.391   3.280  0.00  0.00    +0.031 C 
ATOM     21  C   UNL     1       2.292  -1.735   4.664  0.00  0.00    +0.003 C 
ATOM     22  C   UNL     1       1.465  -0.428   4.566  0.00  0.00    +0.003 C 
ATOM     23  C   UNL     1       1.674   0.044   3.113  0.00  0.00    +0.031 C 
ENDBRANCH  18  19
ENDBRANCH  12  18
BRANCH   5  24
ATOM     24  C   UNL     1       2.740  -2.680  -6.638  0.00  0.00    -0.063 C 
BRANCH  24  25
ATOM     25  C   UNL     1       1.843  -2.010  -7.681  0.00  0.00    +0.066 C 
ATOM     26  C   UNL     1       0.781  -2.974  -8.170  0.00  0.00    +0.115 C 
ATOM     27  N   UNL     1       0.985  -3.119  -9.439  0.00  0.00    -0.161 NA
ATOM     28  N   UNL     1       2.066  -2.370  -9.894  0.00  0.00    -0.153 NA
ATOM     29  C   UNL     1       2.632  -1.684  -8.934  0.00  0.00    +0.077 C 
BRANCH  29  30
ATOM     30  C   UNL     1       3.791  -0.786  -9.045  0.00  0.00    -0.001 A 
ATOM     31  C   UNL     1       4.280  -0.127  -7.912  0.00  0.00    +0.012 A 
ATOM     32  C   UNL     1       5.367   0.713  -8.022  0.00  0.00    +0.039 A 
ATOM     33  C   UNL     1       5.974   0.907  -9.254  0.00  0.00    +0.123 A 
ATOM     34  C   UNL     1       5.494   0.258 -10.381  0.00  0.00    +0.039 A 
ATOM     35  C   UNL     1       4.412  -0.590 -10.283  0.00  0.00    +0.012 A 
ATOM     36  F   UNL     1       7.039   1.733  -9.355  0.00  0.00    -0.205 F 
ENDBRANCH  29  30
ENDBRANCH  24  25
ENDBRANCH   5  24
TORSDOF 7
