REMARK  Name = ZINC14468140
REMARK  9 active torsions:
REMARK  status: ('A' for Active; 'I' for Inactive)
REMARK    1  A    between atoms: C_1  and  C_2
REMARK    2  A    between atoms: C_2  and  O_4
REMARK    3  A    between atoms: O_4  and  C_5
REMARK    4  A    between atoms: C_8  and  C_13
REMARK    5  A    between atoms: C_10  and  O_11
REMARK    6  A    between atoms: O_11  and  C_12
REMARK    7  A    between atoms: C_24  and  S_29
REMARK    8  A    between atoms: S_29  and  N_32
REMARK    9  A    between atoms: N_32  and  C_33
REMARK                            x       y       z     vdW  Elec       q    Type
REMARK                         _______ _______ _______ _____ _____    ______ ____
ROOT
ATOM      1  C   UNL     1      -0.531   7.756   0.016  0.00  0.00    +0.105 C 
ATOM      2  C   UNL     1      -0.296   8.243  -1.416  0.00  0.00    +0.029 C 
ATOM      3  C   UNL     1      -1.358   7.553  -2.321  0.00  0.00    +0.033 C 
ATOM      4  C   UNL     1      -0.752   6.190  -2.597  0.00  0.00    -0.030 C 
ATOM      5  C   UNL     1       0.545   6.219  -2.414  0.00  0.00    -0.023 C 
ATOM      6  C   UNL     1       0.983   7.600  -1.988  0.00  0.00    +0.049 C 
ATOM      7  C   UNL     1       2.099   7.536  -0.994  0.00  0.00    -0.018 A 
ATOM      8  C   UNL     1       3.372   7.210  -1.442  0.00  0.00    +0.034 A 
ATOM      9  C   UNL     1       4.429   7.142  -0.558  0.00  0.00    +0.106 A 
ATOM     10  C   UNL     1       4.234   7.398   0.787  0.00  0.00    +0.030 A 
ATOM     11  C   UNL     1       2.972   7.723   1.244  0.00  0.00    +0.025 A 
ATOM     12  C   UNL     1       1.906   7.790   0.355  0.00  0.00    +0.031 A 
ATOM     13  N   UNL     1       0.632   8.112   0.836  0.00  0.00    -0.336 N 
ATOM     14  H   UNL     1       0.521   8.561   1.689  0.00  0.00    +0.147 HD
ENDROOT
BRANCH   1  18
ATOM     15  C   UNL     1      -1.032   3.509   0.019  0.00  0.00    +0.173 A 
ATOM     16  C   UNL     1       0.238   4.060  -0.045  0.00  0.00    +0.050 A 
ATOM     17  C   UNL     1       0.397   5.433  -0.045  0.00  0.00    +0.009 A 
ATOM     18  C   UNL     1      -0.710   6.260   0.017  0.00  0.00    -0.023 A 
ATOM     19  C   UNL     1      -1.979   5.717   0.081  0.00  0.00    +0.055 A 
ATOM     20  C   UNL     1      -2.146   4.341   0.076  0.00  0.00    +0.163 A 
BRANCH  20  21
ATOM     21  O   UNL     1      -3.394   3.806   0.133  0.00  0.00    -0.491 OA
ATOM     22  C   UNL     1      -4.491   4.721   0.190  0.00  0.00    +0.277 C 
ENDBRANCH  20  21
BRANCH  15  23
ATOM     23  O   UNL     1      -1.190   2.158   0.019  0.00  0.00    -0.422 OA
BRANCH  23  25
ATOM     24  C   UNL     1      -1.488   0.068  -1.260  0.00  0.00    +0.136 C 
ATOM     25  C   UNL     1      -1.411   1.570  -1.167  0.00  0.00    +0.309 C 
ATOM     26  O   UNL     1      -1.554   2.245  -2.159  0.00  0.00    -0.251 OA
ENDBRANCH  23  25
ENDBRANCH  15  23
ENDBRANCH   1  18
BRANCH   9  27
ATOM     27  S   UNL     1       6.037   6.725  -1.146  0.00  0.00    +0.059 S 
ATOM     28  O   UNL     1       6.750   6.194  -0.038  0.00  0.00    -0.153 OA
ATOM     29  O   UNL     1       5.853   5.998  -2.353  0.00  0.00    -0.153 OA
BRANCH  27  30
ATOM     30  N   UNL     1       6.790   8.142  -1.558  0.00  0.00    -0.187 NA
ATOM     31  H   UNL     1       7.026   8.315  -2.483  0.00  0.00    +0.148 HD
BRANCH  30  32
ATOM     32  C   UNL     1       7.101   9.133  -0.525  0.00  0.00    +0.077 C 
ATOM     33  C   UNL     1       5.980  10.173  -0.463  0.00  0.00    +0.020 C 
ATOM     34  C   UNL     1       6.304  11.208   0.616  0.00  0.00    +0.002 C 
ATOM     35  C   UNL     1       7.625  11.902   0.276  0.00  0.00    +0.000 C 
ATOM     36  C   UNL     1       8.746  10.863   0.213  0.00  0.00    +0.002 C 
ATOM     37  C   UNL     1       8.421   9.827  -0.865  0.00  0.00    +0.020 C 
ENDBRANCH  30  32
ENDBRANCH  27  30
ENDBRANCH   9  27
TORSDOF 7
