REMARK  Name = ZINC20502701
REMARK  9 active torsions:
REMARK  status: ('A' for Active; 'I' for Inactive)
REMARK    1  A    between atoms: C_1  and  C_2
REMARK    2  A    between atoms: N_13  and  C_18
REMARK    3  A    between atoms: C_15  and  C_16
REMARK    4  A    between atoms: C_18  and  C_19
REMARK    5  A    between atoms: C_19  and  C_21
REMARK    6  A    between atoms: C_19  and  O_36
REMARK    7  A    between atoms: C_21  and  N_22
REMARK    8  A    between atoms: N_25  and  C_28
REMARK    9  A    between atoms: C_28  and  C_29
REMARK                            x       y       z     vdW  Elec       q    Type
REMARK                         _______ _______ _______ _____ _____    ______ ____
ROOT
ATOM      1  C   UNL     1       4.083   3.759  -1.461  0.00  0.00    +0.148 C 
ENDROOT
BRANCH   1   2
ATOM      2  O   UNL     1       3.410   2.682  -2.117  0.00  0.00    -0.389 OA
ATOM      3  H   UNL     1       3.630   2.457  -3.171  0.00  0.00    +0.210 HD
ENDBRANCH   1   2
BRANCH   1   4
ATOM      4  C   UNL     1       3.598   3.857  -0.013  0.00  0.00    +0.156 C 
BRANCH   4  17
ATOM      5  C   UNL     1       1.789   9.130  -0.035  0.00  0.00    +0.045 C 
ATOM      6  C   UNL     1       1.230   7.731  -0.017  0.00  0.00    -0.024 A 
ATOM      7  C   UNL     1      -0.119   7.525   0.001  0.00  0.00    +0.075 A 
ATOM      8  C   UNL     1      -0.625   6.220   0.018  0.00  0.00    +0.258 A 
ATOM      9  O   UNL     1      -1.833   6.044   0.035  0.00  0.00    -0.267 OA
ATOM     10  N   UNL     1       0.201   5.156   0.017  0.00  0.00    -0.260 N 
ATOM     11  C   UNL     1      -0.065   3.787   0.033  0.00  0.00    +0.075 A 
ATOM     12  C   UNL     1      -1.243   3.054   0.053  0.00  0.00    +0.028 A 
ATOM     13  C   UNL     1      -1.194   1.675   0.058  0.00  0.00    +0.002 A 
ATOM     14  C   UNL     1       0.025   1.019   0.055  0.00  0.00    +0.002 A 
ATOM     15  C   UNL     1       1.203   1.738   0.035  0.00  0.00    +0.028 A 
ATOM     16  C   UNL     1       1.165   3.126   0.024  0.00  0.00    +0.068 A 
ATOM     17  N   UNL     1       2.154   4.101   0.003  0.00  0.00    -0.322 N 
ATOM     18  C   UNL     1       1.550   5.326  -0.000  0.00  0.00    +0.140 A 
ATOM     19  C   UNL     1       2.093   6.618  -0.018  0.00  0.00    +0.096 A 
BRANCH  19  20
ATOM     20  C   UNL     1       3.513   6.805  -0.036  0.00  0.00    +0.103 C 
ATOM     21  N   UNL     1       4.639   6.954  -0.051  0.00  0.00    -0.191 NA
ENDBRANCH  19  20
ENDBRANCH   4  17
ENDBRANCH   1   4
BRANCH   1  22
ATOM     22  C   UNL     1       5.591   3.504  -1.478  0.00  0.00    +0.117 C 
BRANCH  22  23
ATOM     23  N   UNL     1       6.059   3.423  -2.868  0.00  0.00    -0.303 NA
ATOM     24  C   UNL     1       7.356   2.736  -2.948  0.00  0.00    +0.066 C 
ATOM     25  C   UNL     1       7.769   2.602  -4.416  0.00  0.00    -0.063 C 
ATOM     26  N   UNL     1       7.845   3.937  -5.025  0.00  0.00    +0.384 N 
ATOM     27  C   UNL     1       6.548   4.624  -4.944  0.00  0.00    -0.063 C 
ATOM     28  C   UNL     1       6.135   4.758  -3.477  0.00  0.00    +0.066 C 
ATOM     29  H   UNL     1       8.578   4.528  -4.457  0.00  0.00    -0.081 HD
BRANCH  26  30
ATOM     30  C   UNL     1       8.312   3.856  -6.415  0.00  0.00    -0.043 C 
BRANCH  30  31
ATOM     31  C   UNL     1       9.507   2.941  -6.491  0.00  0.00    -0.064 A 
ATOM     32  C   UNL     1      10.782   3.455  -6.341  0.00  0.00    +0.003 A 
ATOM     33  C   UNL     1      11.878   2.616  -6.405  0.00  0.00    +0.020 A 
ATOM     34  C   UNL     1      11.700   1.262  -6.629  0.00  0.00    +0.041 A 
ATOM     35  C   UNL     1      10.425   0.749  -6.784  0.00  0.00    +0.020 A 
ATOM     36  C   UNL     1       9.329   1.588  -6.715  0.00  0.00    +0.003 A 
ATOM     37 CL   UNL     1      13.077   0.208  -6.715  0.00  0.00    -0.084 Cl
ENDBRANCH  30  31
ENDBRANCH  26  30
ENDBRANCH  22  23
ENDBRANCH   1  22
TORSDOF 8
