REMARK  Name = ZINC00696123
REMARK  9 active torsions:
REMARK  status: ('A' for Active; 'I' for Inactive)
REMARK    1  A    between atoms: C_4  and  S_7
REMARK    2  A    between atoms: S_7  and  N_10
REMARK    3  A    between atoms: N_10  and  C_11
REMARK    4  A    between atoms: C_14  and  C_17
REMARK    5  A    between atoms: C_17  and  C_18
REMARK    6  A    between atoms: C_18  and  C_19
REMARK    7  A    between atoms: C_22  and  N_25
REMARK    8  A    between atoms: N_25  and  S_26
REMARK    9  A    between atoms: S_26  and  C_29
REMARK                            x       y       z     vdW  Elec       q    Type
REMARK                         _______ _______ _______ _____ _____    ______ ____
ROOT
ATOM      1  C   UNL     1       5.159   3.240  -5.131  0.00  0.00    +0.040 C 
ENDROOT
BRANCH   1   5
ATOM      2  C   UNL     1       4.479   0.124  -2.287  0.00  0.00    +0.048 A 
ATOM      3  C   UNL     1       3.697   1.272  -2.261  0.00  0.00    +0.025 A 
ATOM      4  C   UNL     1       3.923   2.279  -3.179  0.00  0.00    +0.005 A 
ATOM      5  C   UNL     1       4.919   2.141  -4.128  0.00  0.00    -0.047 A 
ATOM      6  C   UNL     1       5.695   0.997  -4.160  0.00  0.00    +0.005 A 
ATOM      7  C   UNL     1       5.478  -0.012  -3.242  0.00  0.00    +0.025 A 
BRANCH   2   8
ATOM      8  N   UNL     1       4.256  -0.895  -1.357  0.00  0.00    -0.216 N 
ATOM      9  H   UNL     1       3.473  -1.463  -1.438  0.00  0.00    +0.174 HD
BRANCH   8  10
ATOM     10  S   UNL     1       5.327  -1.134  -0.118  0.00  0.00    +0.072 S 
ATOM     11  O   UNL     1       6.623  -1.164  -0.701  0.00  0.00    -0.150 OA
ATOM     12  O   UNL     1       4.816  -2.208   0.660  0.00  0.00    -0.150 OA
BRANCH  10  16
ATOM     13  C   UNL     1       5.177   2.550   2.508  0.00  0.00    +0.000 A 
ATOM     14  C   UNL     1       6.141   2.442   1.523  0.00  0.00    +0.002 A 
ATOM     15  C   UNL     1       6.187   1.317   0.721  0.00  0.00    +0.029 A 
ATOM     16  C   UNL     1       5.269   0.300   0.905  0.00  0.00    +0.108 A 
ATOM     17  C   UNL     1       4.305   0.408   1.890  0.00  0.00    +0.029 A 
ATOM     18  C   UNL     1       4.259   1.533   2.692  0.00  0.00    +0.002 A 
ENDBRANCH  10  16
ENDBRANCH   8  10
ENDBRANCH   2   8
ENDBRANCH   1   5
BRANCH   1  19
ATOM     19  C   UNL     1       4.296   2.997  -6.371  0.00  0.00    +0.040 C 
BRANCH  19  20
ATOM     20  C   UNL     1       4.537   4.096  -7.374  0.00  0.00    -0.047 A 
ATOM     21  C   UNL     1       3.757   5.237  -7.346  0.00  0.00    +0.005 A 
ATOM     22  C   UNL     1       3.978   6.249  -8.260  0.00  0.00    +0.025 A 
ATOM     23  C   UNL     1       4.977   6.114  -9.215  0.00  0.00    +0.048 A 
ATOM     24  C   UNL     1       5.755   4.963  -9.244  0.00  0.00    +0.025 A 
ATOM     25  C   UNL     1       5.532   3.958  -8.323  0.00  0.00    +0.005 A 
BRANCH  23  26
ATOM     26  N   UNL     1       5.199   7.132 -10.145  0.00  0.00    -0.216 N 
ATOM     27  H   UNL     1       6.103   7.433 -10.328  0.00  0.00    +0.174 HD
BRANCH  26  28
ATOM     28  S   UNL     1       3.920   7.825 -10.935  0.00  0.00    +0.072 S 
ATOM     29  O   UNL     1       2.993   8.225  -9.935  0.00  0.00    -0.150 OA
ATOM     30  O   UNL     1       4.470   8.739 -11.875  0.00  0.00    -0.150 OA
BRANCH  28  31
ATOM     31  C   UNL     1       3.135   6.554 -11.870  0.00  0.00    +0.108 A 
ATOM     32  C   UNL     1       3.606   6.230 -13.128  0.00  0.00    +0.029 A 
ATOM     33  C   UNL     1       2.993   5.229 -13.859  0.00  0.00    +0.002 A 
ATOM     34  C   UNL     1       1.902   4.560 -13.336  0.00  0.00    +0.000 A 
ATOM     35  C   UNL     1       1.428   4.888 -12.080  0.00  0.00    +0.002 A 
ATOM     36  C   UNL     1       2.044   5.885 -11.346  0.00  0.00    +0.029 A 
ENDBRANCH  28  31
ENDBRANCH  26  28
ENDBRANCH  23  26
ENDBRANCH  19  20
ENDBRANCH   1  19
TORSDOF 9
