REMARK  Name = ZINC09316576
REMARK  10 active torsions:
REMARK  status: ('A' for Active; 'I' for Inactive)
REMARK    1  A    between atoms: C_1  and  C_2
REMARK    2  A    between atoms: C_2  and  O_3
REMARK    3  A    between atoms: O_3  and  C_4
REMARK    4  A    between atoms: C_7  and  C_10
REMARK    5  A    between atoms: C_10  and  C_12
REMARK    6  A    between atoms: C_13  and  N_32
REMARK    7  A    between atoms: C_14  and  C_21
REMARK    8  A    between atoms: N_23  and  C_24
REMARK    9  A    between atoms: C_27  and  C_31
REMARK   10  A    between atoms: C_29  and  C_30
REMARK                            x       y       z     vdW  Elec       q    Type
REMARK                         _______ _______ _______ _____ _____    ______ ____
ROOT
ATOM      1  C   UNL     1       0.166   5.149  -0.006  0.00  0.00    +0.116 A 
ATOM      2  C   UNL     1       1.539   5.381  -0.013  0.00  0.00    +0.067 A 
ATOM      3  C   UNL     1       2.175   4.124  -0.015  0.00  0.00    +0.083 A 
ATOM      4  C   UNL     1       1.156   3.143  -0.010  0.00  0.00    +0.061 A 
ATOM      5  N   UNL     1      -0.051   3.779  -0.004  0.00  0.00    -0.311 N 
ATOM      6  C   UNL     1      -1.206   3.056   0.001  0.00  0.00    +0.092 A 
ATOM      7  C   UNL     1      -1.176   1.703  -0.003  0.00  0.00    +0.018 A 
ATOM      8  C   UNL     1       0.049   1.026  -0.003  0.00  0.00    +0.003 A 
ATOM      9  C   UNL     1       1.212   1.743  -0.009  0.00  0.00    +0.027 A 
ENDROOT
BRANCH   3  10
ATOM     10  C   UNL     1       3.616   3.879  -0.022  0.00  0.00    +0.252 C 
ATOM     11  O   UNL     1       4.212   3.777  -1.079  0.00  0.00    -0.270 OA
ATOM     12  N   UNL     1       4.286   3.767   1.143  0.00  0.00    -0.281 N 
ATOM     13  H   UNL     1       3.829   3.928   1.983  0.00  0.00    +0.155 HD
BRANCH  12  14
ATOM     14  C   UNL     1       5.641   3.419   1.139  0.00  0.00    +0.037 A 
ATOM     15  C   UNL     1       6.173   2.705   0.073  0.00  0.00    +0.024 A 
ATOM     16  C   UNL     1       7.511   2.363   0.073  0.00  0.00    +0.005 A 
ATOM     17  C   UNL     1       8.321   2.731   1.132  0.00  0.00    -0.050 A 
ATOM     18  C   UNL     1       7.794   3.442   2.195  0.00  0.00    +0.008 A 
ATOM     19  C   UNL     1       6.457   3.792   2.199  0.00  0.00    -0.029 A 
ATOM     20  C   UNL     1       5.885   4.571   3.355  0.00  0.00    +0.045 C 
ATOM     21  C   UNL     1       9.781   2.357   1.128  0.00  0.00    +0.044 C 
ENDBRANCH  12  14
ENDBRANCH   3  10
BRANCH   2  22
ATOM     22  N   UNL     1       2.164   6.618  -0.017  0.00  0.00    -0.356 N 
ATOM     23  H   UNL     1       1.636   7.428   0.058  0.00  0.00    +0.142 HD
ATOM     24  H   UNL     1       3.129   6.673  -0.095  0.00  0.00    +0.142 HD
ENDBRANCH   2  22
BRANCH   1  25
ATOM     25  C   UNL     1      -0.836   6.141  -0.002  0.00  0.00    +0.212 C 
ATOM     26  O   UNL     1      -1.329   6.505   1.052  0.00  0.00    -0.285 OA
BRANCH  25  30
ATOM     27  C   UNL     1      -2.140   7.860  -3.662  0.00  0.00    +0.121 A 
ATOM     28  C   UNL     1      -2.625   8.349  -2.455  0.00  0.00    +0.046 A 
ATOM     29  C   UNL     1      -2.205   7.794  -1.266  0.00  0.00    +0.015 A 
ATOM     30  C   UNL     1      -1.290   6.739  -1.275  0.00  0.00    +0.024 A 
ATOM     31  C   UNL     1      -0.800   6.255  -2.490  0.00  0.00    +0.015 A 
ATOM     32  C   UNL     1      -1.229   6.811  -3.675  0.00  0.00    +0.046 A 
BRANCH  27  33
ATOM     33  O   UNL     1      -2.557   8.409  -4.831  0.00  0.00    -0.492 OA
BRANCH  33  35
ATOM     34  C   UNL     1      -2.600   8.600  -7.240  0.00  0.00    +0.048 C 
ATOM     35  C   UNL     1      -2.018   7.859  -6.035  0.00  0.00    +0.225 C 
ENDBRANCH  33  35
ENDBRANCH  27  33
ENDBRANCH  25  30
ENDBRANCH   1  25
TORSDOF 7
