REMARK  Name = ZINC39948632
REMARK  5 active torsions:
REMARK  status: ('A' for Active; 'I' for Inactive)
REMARK    1  A    between atoms: C_1  and  C_2
REMARK    2  A    between atoms: C_10  and  C_14
REMARK    3  A    between atoms: C_14  and  O_15
REMARK    4  A    between atoms: O_15  and  C_16
REMARK    5  A    between atoms: C_16  and  C_18
REMARK                            x       y       z     vdW  Elec       q    Type
REMARK                         _______ _______ _______ _____ _____    ______ ____
ROOT
ATOM      1  C   UNL     1      -1.831  -6.084   5.152  0.00  0.00    +0.305 C 
ENDROOT
BRANCH   1  10
ATOM      2  C   UNL     1       0.045   1.421  -0.110  0.00  0.00    +0.007 C 
ATOM      3  C   UNL     1       0.063  -0.109  -0.093  0.00  0.00    -0.012 C 
ATOM      4  C   UNL     1      -1.373  -0.627  -0.102  0.00  0.00    +0.008 C 
ATOM      5  C   UNL     1      -1.388  -2.160  -0.168  0.00  0.00    +0.033 C 
ATOM      6  C   UNL     1      -0.505  -2.655   0.976  0.00  0.00    -0.042 C 
ATOM      7  C   UNL     1      -0.889  -3.518   1.916  0.00  0.00    +0.071 C 
ATOM      8  C   UNL     1       0.019  -3.754   3.070  0.00  0.00    +0.112 C 
ATOM      9  N   UNL     1      -0.297  -4.553   4.061  0.00  0.00    -0.224 NA
ATOM     10  C   UNL     1      -1.479  -5.166   4.010  0.00  0.00    +0.161 C 
ATOM     11  N   UNL     1      -2.358  -5.038   3.050  0.00  0.00    -0.158 NA
ATOM     12  C   UNL     1      -2.196  -4.256   1.967  0.00  0.00    +0.271 C 
ATOM     13  O   UNL     1      -3.042  -4.156   1.095  0.00  0.00    -0.268 OA
ATOM     14  S   UNL     1       1.446  -2.773   2.726  0.00  0.00    -0.097 S 
ATOM     15  C   UNL     1       0.921  -2.115   1.096  0.00  0.00    +0.080 C 
ATOM     16  C   UNL     1       0.810  -0.590   1.155  0.00  0.00    +0.022 C 
ENDBRANCH   1  10
BRANCH   1  17
ATOM     17  O   UNL     1      -3.125  -6.649   4.928  0.00  0.00    -0.454 OA
BRANCH  17  18
ATOM     18  C   UNL     1      -3.592  -7.498   5.864  0.00  0.00    +0.337 C 
ATOM     19  O   UNL     1      -2.921  -7.752   6.843  0.00  0.00    -0.245 OA
BRANCH  18  20
ATOM     20  C   UNL     1      -4.921  -8.120   5.699  0.00  0.00    +0.054 C 
ATOM     21  C   UNL     1      -5.760  -7.761   4.665  0.00  0.00    +0.007 A 
ATOM     22  C   UNL     1      -5.363  -6.747   3.688  0.00  0.00    +0.010 A 
ATOM     23  C   UNL     1      -6.223  -6.428   2.689  0.00  0.00    +0.001 A 
ATOM     24  C   UNL     1      -7.474  -7.047   2.576  0.00  0.00    +0.002 A 
ATOM     25  C   UNL     1      -7.904  -7.994   3.445  0.00  0.00    +0.024 A 
ATOM     26  C   UNL     1      -7.087  -8.400   4.523  0.00  0.00    +0.041 A 
ATOM     27  N   UNL     1      -7.514  -9.325   5.369  0.00  0.00    -0.285 N 
ATOM     28  C   UNL     1      -6.799  -9.754   6.403  0.00  0.00    +0.222 C 
ATOM     29  O   UNL     1      -7.250 -10.606   7.143  0.00  0.00    -0.275 OA
ATOM     30  C   UNL     1      -5.421  -9.186   6.655  0.00  0.00    +0.139 C 
ATOM     31  H   UNL     1      -8.393  -9.709   5.226  0.00  0.00    +0.155 HD
ENDBRANCH  18  20
ENDBRANCH  17  18
ENDBRANCH   1  17
TORSDOF 4
