REMARK  Name = ZINC01675117
REMARK  0 active torsions:
REMARK  status: ('A' for Active; 'I' for Inactive)
REMARK                            x       y       z     vdW  Elec       q    Type
REMARK                         _______ _______ _______ _____ _____    ______ ____
ROOT
ATOM      1  C   UNL     1      -0.076   1.206   0.420  0.00  0.00    +0.002 C 
ATOM      2  C   UNL     1      -0.906   1.886   1.505  0.00  0.00    +0.002 C 
ATOM      3  C   UNL     1      -0.552   3.293   1.748  0.00  0.00    +0.019 C 
ATOM      4  C   UNL     1      -0.811   4.140   0.478  0.00  0.00    +0.106 C 
ATOM      5  N   UNL     1       0.170   3.814  -0.532  0.00  0.00    -0.320 N 
ATOM      6  C   UNL     1      -0.043   2.756  -1.540  0.00  0.00    +0.106 C 
ATOM      7  C   UNL     1      -0.684   1.496  -0.931  0.00  0.00    +0.019 C 
ATOM      8  C   UNL     1       1.347   4.515  -0.556  0.00  0.00    +0.070 C 
ATOM      9  C   UNL     1       3.449   5.069  -1.548  0.00  0.00    +0.113 C 
ATOM     10  C   UNL     1       4.377   4.527  -0.459  0.00  0.00    +0.021 C 
ATOM     11  C   UNL     1       4.119   5.228   0.865  0.00  0.00    +0.002 C 
ATOM     12  C   UNL     1       2.743   4.933   1.440  0.00  0.00    +0.007 C 
ATOM     13  C   UNL     1       1.646   5.517   0.538  0.00  0.00    +0.069 C 
ATOM     14  N   UNL     1       2.164   4.273  -1.556  0.00  0.00    -0.376 N 
ATOM     15  H   UNL     1       1.944   3.591  -2.292  0.00  0.00    +0.160 HD
ENDROOT
TORSDOF 0
