REMARK  Name = ZINC44873070
REMARK  8 active torsions:
REMARK  status: ('A' for Active; 'I' for Inactive)
REMARK    1  A    between atoms: C_1  and  C_2
REMARK    2  A    between atoms: C_2  and  N_3
REMARK    3  A    between atoms: C_10  and  C_31
REMARK    4  A    between atoms: C_11  and  C_15
REMARK    5  A    between atoms: N_17  and  C_18
REMARK    6  A    between atoms: C_18  and  C_19
REMARK    7  A    between atoms: C_22  and  C_25
REMARK    8  A    between atoms: C_25  and  N_26
REMARK                            x       y       z     vdW  Elec       q    Type
REMARK                         _______ _______ _______ _____ _____    ______ ____
ROOT
ATOM      1  N   UNL     1       0.688  -0.476  -1.203  0.00  0.00    -0.203 N 
ATOM      2  C   UNL     1       0.007  -0.616  -2.414  0.00  0.00    +0.059 A 
ATOM      3  C   UNL     1      -1.338  -0.968  -2.385  0.00  0.00    +0.025 A 
ATOM      4  C   UNL     1      -2.048  -1.094  -3.561  0.00  0.00    +0.002 A 
ATOM      5  C   UNL     1      -1.425  -0.868  -4.778  0.00  0.00    +0.001 A 
ATOM      6  C   UNL     1      -0.093  -0.528  -4.825  0.00  0.00    +0.010 A 
ATOM      7  C   UNL     1       0.650  -0.406  -3.639  0.00  0.00    +0.007 A 
ATOM      8  C   UNL     1       2.080  -0.080  -3.746  0.00  0.00    +0.023 C 
ATOM      9  C   UNL     1       2.944  -0.228  -2.701  0.00  0.00    +0.178 C 
ATOM     10  S   UNL     1       2.308  -0.859  -1.179  0.00  0.00    +0.080 S 
ATOM     11  O   UNL     1       2.899  -0.099  -0.134  0.00  0.00    -0.150 OA
ATOM     12  O   UNL     1       2.402  -2.275  -1.250  0.00  0.00    -0.150 OA
ENDROOT
BRANCH   8  13
ATOM     13  C   UNL     1       2.601   0.428  -5.034  0.00  0.00    -0.015 A 
ATOM     14  C   UNL     1       3.110   1.725  -5.122  0.00  0.00    +0.008 A 
ATOM     15  C   UNL     1       3.595   2.192  -6.326  0.00  0.00    +0.001 A 
ATOM     16  C   UNL     1       3.577   1.378  -7.445  0.00  0.00    +0.000 A 
ATOM     17  C   UNL     1       3.074   0.092  -7.364  0.00  0.00    +0.001 A 
ATOM     18  C   UNL     1       2.591  -0.390  -6.165  0.00  0.00    +0.008 A 
ENDBRANCH   8  13
BRANCH   9  19
ATOM     19  C   UNL     1       4.308   0.117  -2.830  0.00  0.00    +0.265 C 
ATOM     20  O   UNL     1       4.728   0.555  -3.887  0.00  0.00    -0.269 OA
ATOM     21  N   UNL     1       5.144  -0.037  -1.785  0.00  0.00    -0.306 N 
ATOM     22  H   UNL     1       4.810  -0.385  -0.944  0.00  0.00    +0.149 HD
BRANCH  21  23
ATOM     23  C   UNL     1       6.559   0.321  -1.919  0.00  0.00    +0.140 C 
BRANCH  23  24
ATOM     24  C   UNL     1       7.270   0.055  -0.617  0.00  0.00    -0.030 A 
ATOM     25  C   UNL     1       7.343   1.045   0.345  0.00  0.00    +0.005 A 
ATOM     26  C   UNL     1       7.996   0.801   1.539  0.00  0.00    +0.002 A 
ATOM     27  C   UNL     1       8.574  -0.433   1.771  0.00  0.00    -0.064 A 
ATOM     28  C   UNL     1       8.499  -1.423   0.810  0.00  0.00    +0.002 A 
ATOM     29  C   UNL     1       7.843  -1.181  -0.383  0.00  0.00    +0.005 A 
BRANCH  27  30
ATOM     30  C   UNL     1       9.286  -0.698   3.073  0.00  0.00    -0.043 C 
BRANCH  30  31
ATOM     31  N   UNL     1       8.332  -1.235   4.052  0.00  0.00    +0.382 N 
ATOM     32  C   UNL     1       7.901  -2.599   3.653  0.00  0.00    -0.078 C 
ATOM     33  C   UNL     1       7.400  -3.217   4.983  0.00  0.00    -0.020 C 
ATOM     34  C   UNL     1       8.397  -2.654   6.022  0.00  0.00    -0.020 C 
ATOM     35  C   UNL     1       8.986  -1.389   5.370  0.00  0.00    -0.078 C 
ATOM     36  H   UNL     1       7.532  -0.625   4.130  0.00  0.00    -0.081 HD
ENDBRANCH  30  31
ENDBRANCH  27  30
ENDBRANCH  23  24
ENDBRANCH  21  23
ENDBRANCH   9  19
BRANCH   1  38
ATOM     37  C   UNL     1      -0.019   1.526   0.010  0.00  0.00    +0.026 C 
ATOM     38  C   UNL     1       0.002  -0.004   0.002  0.00  0.00    +0.128 C 
ENDBRANCH   1  38
TORSDOF 7
