REMARK  Name = ZINC22930074
REMARK  6 active torsions:
REMARK  status: ('A' for Active; 'I' for Inactive)
REMARK    1  A    between atoms: N_9  and  C_25
REMARK    2  A    between atoms: C_10  and  C_12
REMARK    3  A    between atoms: C_12  and  N_13
REMARK    4  A    between atoms: N_16  and  C_19
REMARK    5  A    between atoms: C_19  and  C_20
REMARK    6  A    between atoms: C_25  and  C_26
REMARK                            x       y       z     vdW  Elec       q    Type
REMARK                         _______ _______ _______ _____ _____    ______ ____
ROOT
ATOM      1  C   UNL     1      -6.213  -0.948   1.154  0.00  0.00    +0.001 A 
ATOM      2  C   UNL     1      -5.931   0.411   1.106  0.00  0.00    +0.002 A 
ATOM      3  C   UNL     1      -4.651   0.858   0.870  0.00  0.00    +0.028 A 
ATOM      4  C   UNL     1      -3.621  -0.065   0.676  0.00  0.00    +0.078 A 
ATOM      5  C   UNL     1      -3.911  -1.446   0.725  0.00  0.00    +0.065 A 
ATOM      6  C   UNL     1      -5.214  -1.878   0.965  0.00  0.00    +0.015 A 
ATOM      7  C   UNL     1      -2.804  -2.392   0.516  0.00  0.00    +0.262 A 
ATOM      8  O   UNL     1      -2.986  -3.595   0.546  0.00  0.00    -0.267 OA
ATOM      9  N   UNL     1      -1.576  -1.872   0.285  0.00  0.00    -0.286 N 
ATOM     10  C   UNL     1      -1.388  -0.527   0.259  0.00  0.00    +0.128 A 
ATOM     11  N   UNL     1      -2.345   0.332   0.440  0.00  0.00    -0.232 NA
ENDROOT
BRANCH  10  12
ATOM     12  C   UNL     1       0.002  -0.004   0.002  0.00  0.00    +0.158 C 
BRANCH  12  13
ATOM     13  N   UNL     1      -0.018   1.465   0.010  0.00  0.00    -0.299 NA
ATOM     14  C   UNL     1      -0.799   1.987  -1.120  0.00  0.00    +0.066 C 
ATOM     15  C   UNL     1      -0.862   3.514  -1.031  0.00  0.00    -0.063 C 
ATOM     16  N   UNL     1       0.503   4.059  -1.041  0.00  0.00    +0.386 N 
ATOM     17  C   UNL     1       1.284   3.537   0.089  0.00  0.00    -0.063 C 
ATOM     18  C   UNL     1       1.347   2.010   0.000  0.00  0.00    +0.066 C 
ATOM     19  H   UNL     1       0.992   3.734  -1.971  0.00  0.00    -0.081 HD
BRANCH  16  20
ATOM     20  C   UNL     1       0.483   5.528  -1.033  0.00  0.00    -0.003 C 
BRANCH  20  21
ATOM     21  C   UNL     1      -0.517   6.022  -2.046  0.00  0.00    +0.089 A 
ATOM     22  C   UNL     1      -1.819   6.266  -1.812  0.00  0.00    +0.042 A 
ATOM     23  C   UNL     1      -2.378   6.710  -3.033  0.00  0.00    +0.041 A 
ATOM     24  C   UNL     1      -1.384   6.712  -3.939  0.00  0.00    +0.195 A 
ATOM     25  O   UNL     1      -0.258   6.300  -3.334  0.00  0.00    -0.470 OA
ENDBRANCH  20  21
ENDBRANCH  16  20
ENDBRANCH  12  13
ENDBRANCH  10  12
BRANCH   9  26
ATOM     26  C   UNL     1      -0.438  -2.768   0.065  0.00  0.00    +0.222 C 
BRANCH  26  27
ATOM     27  C   UNL     1       0.214  -3.086   1.386  0.00  0.00    +0.230 C 
ATOM     28  O   UNL     1      -0.229  -2.610   2.410  0.00  0.00    -0.274 OA
ATOM     29  N   UNL     1       1.288  -3.898   1.429  0.00  0.00    -0.328 N 
ATOM     30  H   UNL     1       1.764  -4.130   2.393  0.00  0.00    +0.145 HD
ATOM     31  H   UNL     1       1.689  -4.330   0.500  0.00  0.00    +0.145 HD
ENDBRANCH  26  27
ENDBRANCH   9  26
TORSDOF 6
