REMARK  Name = ZINC20885922
REMARK  10 active torsions:
REMARK  status: ('A' for Active; 'I' for Inactive)
REMARK    1  A    between atoms: C_1  and  C_2
REMARK    2  A    between atoms: C_2  and  O_3
REMARK    3  A    between atoms: O_3  and  C_4
REMARK    4  A    between atoms: C_5  and  C_12
REMARK    5  A    between atoms: C_9  and  O_10
REMARK    6  A    between atoms: O_10  and  C_11
REMARK    7  A    between atoms: C_17  and  C_22
REMARK    8  A    between atoms: C_25  and  N_28
REMARK    9  A    between atoms: N_28  and  C_29
REMARK   10  A    between atoms: N_28  and  C_30
REMARK                            x       y       z     vdW  Elec       q    Type
REMARK                         _______ _______ _______ _____ _____    ______ ____
ROOT
ATOM      1  C   UNL     1       1.010   3.220   0.139  0.00  0.00    +0.140 C 
ATOM      2  C   UNL     1       1.301   3.513   1.592  0.00  0.00    +0.037 C 
ATOM      3  C   UNL     1       0.414   3.946   2.502  0.00  0.00    +0.017 C 
ATOM      4  C   UNL     1       0.837   4.161   3.946  0.00  0.00    +0.059 C 
ATOM      5  C   UNL     1       2.291   4.627   3.998  0.00  0.00    +0.032 C 
ATOM      6  C   UNL     1       3.154   3.538   3.350  0.00  0.00    +0.088 C 
ATOM      7  C   UNL     1       2.650   3.291   1.960  0.00  0.00    +0.163 C 
ATOM      8  O   UNL     1       3.427   2.886   1.118  0.00  0.00    -0.292 OA
ATOM      9  N   UNL     1      -0.892   4.212   2.250  0.00  0.00    -0.316 N 
ATOM     10  C   UNL     1      -1.747   3.377   1.540  0.00  0.00    +0.052 A 
ATOM     11  C   UNL     1      -2.848   2.775   2.125  0.00  0.00    +0.025 A 
ATOM     12  C   UNL     1      -3.684   1.990   1.350  0.00  0.00    +0.002 A 
ATOM     13  C   UNL     1      -3.424   1.812   0.003  0.00  0.00    +0.002 A 
ATOM     14  C   UNL     1      -2.314   2.400  -0.580  0.00  0.00    +0.025 A 
ATOM     15  C   UNL     1      -1.464   3.168   0.198  0.00  0.00    +0.049 A 
ATOM     16  N   UNL     1      -0.280   3.692  -0.319  0.00  0.00    -0.331 N 
ATOM     17  H   UNL     1      -1.345   5.145   2.616  0.00  0.00    +0.152 HD
ATOM     18  H   UNL     1      -0.338   4.476  -1.087  0.00  0.00    +0.147 HD
ENDROOT
BRANCH   1  20
ATOM     19  C   UNL     1       1.251   1.217  -1.347  0.00  0.00    +0.167 A 
ATOM     20  C   UNL     1       1.077   1.730  -0.071  0.00  0.00    +0.023 A 
ATOM     21  C   UNL     1       0.964   0.873   1.008  0.00  0.00    +0.009 A 
ATOM     22  C   UNL     1       1.025  -0.495   0.818  0.00  0.00    +0.004 A 
ATOM     23  C   UNL     1       1.198  -1.012  -0.452  0.00  0.00    +0.049 A 
ATOM     24  C   UNL     1       1.312  -0.160  -1.538  0.00  0.00    +0.162 A 
BRANCH  24  25
ATOM     25  O   UNL     1       1.482  -0.667  -2.788  0.00  0.00    -0.491 OA
ATOM     26  C   UNL     1       1.534  -2.090  -2.909  0.00  0.00    +0.277 C 
ENDBRANCH  24  25
BRANCH  19  27
ATOM     27  O   UNL     1       1.362   2.058  -2.410  0.00  0.00    -0.488 OA
BRANCH  27  29
ATOM     28  C   UNL     1       0.514   3.183  -4.373  0.00  0.00    +0.048 C 
ATOM     29  C   UNL     1       0.171   2.329  -3.151  0.00  0.00    +0.226 C 
ENDBRANCH  27  29
ENDBRANCH  19  27
ENDBRANCH   1  20
BRANCH   5  30
ATOM     30  C   UNL     1       2.713   4.827   5.431  0.00  0.00    -0.043 A 
ATOM     31  C   UNL     1       2.669   3.767   6.317  0.00  0.00    +0.006 A 
ATOM     32  C   UNL     1       3.060   3.945   7.630  0.00  0.00    +0.023 A 
ATOM     33  C   UNL     1       3.487   5.194   8.062  0.00  0.00    +0.029 A 
ATOM     34  C   UNL     1       3.523   6.259   7.170  0.00  0.00    +0.023 A 
ATOM     35  C   UNL     1       3.137   6.072   5.858  0.00  0.00    +0.006 A 
BRANCH  33  36
ATOM     36  N   UNL     1       3.878   5.380   9.390  0.00  0.00    -0.336 N 
ATOM     37  C   UNL     1       4.448   6.661   9.814  0.00  0.00    +0.129 C 
ATOM     38  C   UNL     1       3.718   4.293  10.359  0.00  0.00    +0.129 C 
ENDBRANCH  33  36
ENDBRANCH   5  30
TORSDOF 6
