REMARK  Name = ZINC54967825
REMARK  5 active torsions:
REMARK  status: ('A' for Active; 'I' for Inactive)
REMARK    1  A    between atoms: C_1  and  C_2
REMARK    2  A    between atoms: C_2  and  C_3
REMARK    3  A    between atoms: C_3  and  C_4
REMARK    4  A    between atoms: C_5  and  C_18
REMARK    5  A    between atoms: N_12  and  C_15
REMARK                            x       y       z     vdW  Elec       q    Type
REMARK                         _______ _______ _______ _____ _____    ______ ____
ROOT
ATOM      1  C   UNL     1       0.739  -2.004  -1.265  0.00  0.00    +0.061 A 
ATOM      2  C   UNL     1       1.777  -2.729  -0.682  0.00  0.00    +0.076 A 
ATOM      3  S   UNL     1       1.236  -4.399  -1.012  0.00  0.00    -0.049 S 
ATOM      4  C   UNL     1      -0.192  -4.027  -1.822  0.00  0.00    +0.161 A 
ATOM      5  N   UNL     1      -0.218  -2.704  -1.814  0.00  0.00    -0.229 NA
ATOM      6  N   UNL     1      -1.115  -4.894  -2.360  0.00  0.00    -0.313 N 
ATOM      7  C   UNL     1      -2.315  -4.390  -3.046  0.00  0.00    +0.088 C 
ATOM      8  C   UNL     1      -3.542  -5.103  -2.466  0.00  0.00    -0.059 C 
ATOM      9  N   UNL     1      -3.353  -6.556  -2.562  0.00  0.00    +0.384 N 
ATOM     10  C   UNL     1      -2.222  -6.970  -1.723  0.00  0.00    -0.059 C 
ATOM     11  C   UNL     1      -0.927  -6.350  -2.272  0.00  0.00    +0.088 C 
ATOM     12  H   UNL     1      -3.169  -6.807  -3.522  0.00  0.00    -0.081 HD
ENDROOT
BRANCH   9  13
ATOM     13  C   UNL     1      -4.573  -7.237  -2.107  0.00  0.00    -0.069 C 
ATOM     14  C   UNL     1      -5.175  -8.298  -3.030  0.00  0.00    -0.017 C 
ATOM     15  C   UNL     1      -5.870  -6.944  -2.865  0.00  0.00    -0.017 C 
ENDBRANCH   9  13
BRANCH   2  16
ATOM     16  C   UNL     1       2.930  -2.272  -0.018  0.00  0.00    +0.267 C 
ATOM     17  O   UNL     1       3.731  -3.071   0.428  0.00  0.00    -0.295 OA
ENDBRANCH   2  16
BRANCH   1  18
ATOM     18  C   UNL     1       0.718  -0.497  -1.257  0.00  0.00    +0.056 C 
BRANCH  18  20
ATOM     19  C   UNL     1      -0.019   1.526   0.010  0.00  0.00    +0.004 C 
ATOM     20  C   UNL     1       0.002  -0.004   0.002  0.00  0.00    +0.003 C 
ENDBRANCH  18  20
ENDBRANCH   1  18
TORSDOF 4
