REMARK  Name = ZINC58006651
REMARK  7 active torsions:
REMARK  status: ('A' for Active; 'I' for Inactive)
REMARK    1  A    between atoms: C_1  and  N_2
REMARK    2  A    between atoms: N_2  and  C_3
REMARK    3  A    between atoms: N_2  and  C_4
REMARK    4  A    between atoms: C_4  and  C_9
REMARK    5  A    between atoms: C_9  and  N_10
REMARK    6  A    between atoms: N_10  and  C_11
REMARK    7  A    between atoms: C_11  and  C_12
REMARK                            x       y       z     vdW  Elec       q    Type
REMARK                         _______ _______ _______ _____ _____    ______ ____
ROOT
ATOM      1  N   UNL     1      -2.430   1.279   0.986  0.00  0.00    +0.383 N 
ATOM      2  H   UNL     1      -1.559   1.781   1.072  0.00  0.00    -0.085 HD
ATOM      3  H   UNL     1      -2.839   1.466   0.083  0.00  0.00    -0.085 HD
ENDROOT
BRANCH   1   4
ATOM      4  C   UNL     1      -2.180  -0.162   1.121  0.00  0.00    -0.060 C 
BRANCH   4   5
ATOM      5  C   UNL     1      -1.305  -0.639  -0.041  0.00  0.00    +0.006 C 
ATOM      6  C   UNL     1      -2.086  -0.540  -1.367  0.00  0.00    +0.020 C 
ATOM      7  C   UNL     1      -1.632  -1.786  -2.168  0.00  0.00    +0.002 C 
ATOM      8  C   UNL     1      -1.516  -2.874  -1.072  0.00  0.00    +0.002 C 
ATOM      9  C   UNL     1      -0.942  -2.122   0.147  0.00  0.00    +0.020 C 
BRANCH   5  11
ATOM     10  C   UNL     1       0.709   0.047   1.116  0.00  0.00    +0.105 C 
ATOM     11  N   UNL     1      -0.083   0.173  -0.115  0.00  0.00    -0.304 NA
ATOM     12  C   UNL     1       0.717  -0.187  -1.294  0.00  0.00    +0.105 C 
ENDBRANCH   5  11
ENDBRANCH   4   5
ENDBRANCH   1   4
BRANCH   1  13
ATOM     13  C   UNL     1      -3.353   1.716   2.042  0.00  0.00    -0.047 C 
BRANCH  13  14
ATOM     14  C   UNL     1      -3.610   3.195   1.904  0.00  0.00    -0.060 A 
ATOM     15  C   UNL     1      -2.793   4.101   2.555  0.00  0.00    +0.051 A 
ATOM     16  C   UNL     1      -3.027   5.460   2.430  0.00  0.00    +0.168 A 
ATOM     17  C   UNL     1      -4.086   5.912   1.647  0.00  0.00    +0.180 A 
ATOM     18  C   UNL     1      -4.901   4.999   0.997  0.00  0.00    +0.063 A 
ATOM     19  C   UNL     1      -4.658   3.643   1.122  0.00  0.00    +0.021 A 
ATOM     20 BR   UNL     1      -6.341   5.607  -0.068  0.00  0.00    -0.046 Br
ATOM     21  O   UNL     1      -4.105   7.276   1.684  0.00  0.00    -0.451 OA
ATOM     22  C   UNL     1      -3.301   7.641   2.821  0.00  0.00    +0.466 C 
ATOM     23  O   UNL     1      -2.382   6.542   2.957  0.00  0.00    -0.453 OA
ENDBRANCH  13  14
ENDBRANCH   1  13
TORSDOF 5
