REMARK  Name = ZINC37516146
REMARK  5 active torsions:
REMARK  status: ('A' for Active; 'I' for Inactive)
REMARK    1  A    between atoms: C_4  and  O_10
REMARK    2  A    between atoms: C_5  and  C_7
REMARK    3  A    between atoms: O_10  and  C_11
REMARK    4  A    between atoms: C_11  and  C_12
REMARK    5  A    between atoms: C_15  and  N_19
REMARK                            x       y       z     vdW  Elec       q    Type
REMARK                         _______ _______ _______ _____ _____    ______ ____
ROOT
ATOM      1  O   UNL     1       3.611  -0.606  -0.037  0.00  0.00    -0.487 OA
ENDROOT
BRANCH   1   5
ATOM      2  C   UNL     1      -0.017   1.374   0.010  0.00  0.00    +0.001 A 
ATOM      3  C   UNL     1       1.170   2.089   0.002  0.00  0.00    +0.004 A 
ATOM      4  C   UNL     1       2.383   1.429  -0.013  0.00  0.00    +0.046 A 
ATOM      5  C   UNL     1       2.420   0.043  -0.021  0.00  0.00    +0.133 A 
ATOM      6  C   UNL     1       1.222  -0.684  -0.013  0.00  0.00    +0.078 A 
ATOM      7  C   UNL     1       0.002  -0.004   0.002  0.00  0.00    +0.017 A 
BRANCH   6   8
ATOM      8  C   UNL     1       1.250  -2.159  -0.022  0.00  0.00    +0.245 C 
ATOM      9  O   UNL     1       2.314  -2.748  -0.036  0.00  0.00    -0.270 OA
ATOM     10  N   UNL     1       0.095  -2.855  -0.014  0.00  0.00    -0.325 N 
ATOM     11  H   UNL     1      -0.754  -2.385  -0.003  0.00  0.00    +0.145 HD
ATOM     12  H   UNL     1       0.113  -3.824  -0.020  0.00  0.00    +0.145 HD
ENDBRANCH   6   8
ENDBRANCH   1   5
BRANCH   1  13
ATOM     13  C   UNL     1       4.790   0.201  -0.045  0.00  0.00    +0.265 C 
BRANCH  13  14
ATOM     14  C   UNL     1       6.008  -0.687  -0.062  0.00  0.00    +0.004 A 
ATOM     15  C   UNL     1       5.858  -2.062  -0.074  0.00  0.00    +0.010 A 
ATOM     16  C   UNL     1       6.971  -2.879  -0.089  0.00  0.00    +0.023 A 
ATOM     17  C   UNL     1       8.243  -2.319  -0.094  0.00  0.00    +0.026 A 
ATOM     18  C   UNL     1       8.390  -0.938  -0.083  0.00  0.00    +0.038 A 
ATOM     19  C   UNL     1       7.272  -0.126  -0.072  0.00  0.00    +0.026 A 
ATOM     20 BR   UNL     1       7.471   1.755  -0.065  0.00  0.00    -0.050 Br
BRANCH  17  21
ATOM     21  N   UNL     1       9.370  -3.143  -0.109  0.00  0.00    -0.358 N 
ATOM     22  H   UNL     1       9.266  -4.107  -0.116  0.00  0.00    +0.142 HD
ATOM     23  H   UNL     1      10.258  -2.751  -0.112  0.00  0.00    +0.142 HD
ENDBRANCH  17  21
ENDBRANCH  13  14
ENDBRANCH   1  13
TORSDOF 5
