REMARK  Name = ZINC09631424
REMARK  8 active torsions:
REMARK  status: ('A' for Active; 'I' for Inactive)
REMARK    1  A    between atoms: C_1  and  N_2
REMARK    2  A    between atoms: N_2  and  C_3
REMARK    3  A    between atoms: N_2  and  C_4
REMARK    4  A    between atoms: C_7  and  C_13
REMARK    5  A    between atoms: C_9  and  N_10
REMARK    6  A    between atoms: C_14  and  C_15
REMARK    7  A    between atoms: C_14  and  S_25
REMARK    8  A    between atoms: S_25  and  C_28
REMARK                            x       y       z     vdW  Elec       q    Type
REMARK                         _______ _______ _______ _____ _____    ______ ____
ROOT
ATOM      1  C   UNL     1       5.441   1.530   0.060  0.00  0.00    +0.039 C 
ATOM      2  C   UNL     1       4.739   2.643  -0.228  0.00  0.00    +0.136 C 
ENDROOT
BRANCH   2   3
ATOM      3  C   UNL     1       3.354   2.536  -0.697  0.00  0.00    +0.158 A 
ATOM      4  N   UNL     1       2.956   1.902  -1.847  0.00  0.00    -0.337 N 
ATOM      5  H   UNL     1       3.549   1.437  -2.504  0.00  0.00    +0.167 HD
ATOM      6  C   UNL     1       1.582   2.026  -1.926  0.00  0.00    +0.066 A 
ATOM      7  C   UNL     1       0.629   1.601  -2.840  0.00  0.00    +0.028 A 
ATOM      8  C   UNL     1      -0.702   1.898  -2.629  0.00  0.00    +0.002 A 
ATOM      9  C   UNL     1      -1.094   2.610  -1.504  0.00  0.00    +0.002 A 
ATOM     10  C   UNL     1      -0.171   3.037  -0.593  0.00  0.00    +0.030 A 
ATOM     11  C   UNL     1       1.185   2.752  -0.788  0.00  0.00    +0.090 A 
ATOM     12  N   UNL     1       2.305   3.034  -0.080  0.00  0.00    -0.226 NA
ENDBRANCH   2   3
BRANCH   1  16
ATOM     13  C   UNL     1       3.515  -2.252   0.059  0.00  0.00    +0.060 A 
ATOM     14  C   UNL     1       2.824  -1.121   0.484  0.00  0.00    +0.026 A 
ATOM     15  C   UNL     1       3.447   0.107   0.492  0.00  0.00    +0.010 A 
ATOM     16  C   UNL     1       4.773   0.219   0.060  0.00  0.00    -0.021 A 
ATOM     17  C   UNL     1       5.465  -0.920  -0.367  0.00  0.00    +0.042 A 
ATOM     18  C   UNL     1       4.836  -2.145  -0.366  0.00  0.00    +0.148 A 
BRANCH  13  20
ATOM     19  C   UNL     1       2.445  -3.861   1.411  0.00  0.00    +0.129 C 
ATOM     20  N   UNL     1       2.883  -3.493   0.058  0.00  0.00    -0.334 N 
ATOM     21  C   UNL     1       1.756  -3.510  -0.883  0.00  0.00    +0.129 C 
ENDBRANCH  13  20
BRANCH  18  22
ATOM     22  N   UNL     1       5.567  -3.351  -0.818  0.00  0.00    +0.058 N 
ATOM     23  O   UNL     1       6.723  -3.259  -1.190  0.00  0.00    -0.126 OA
ATOM     24  O   UNL     1       5.012  -4.435  -0.817  0.00  0.00    -0.126 OA
ENDBRANCH  18  22
ENDBRANCH   1  16
BRANCH   2  25
ATOM     25  S   UNL     1       5.486   4.228  -0.041  0.00  0.00    +0.029 S 
ATOM     26  O   UNL     1       4.568   5.025   0.696  0.00  0.00    -0.164 OA
ATOM     27  O   UNL     1       6.818   4.000   0.397  0.00  0.00    -0.164 OA
BRANCH  25  28
ATOM     28  C   UNL     1       5.598   4.944  -1.647  0.00  0.00    +0.094 A 
ATOM     29  C   UNL     1       6.726   4.737  -2.418  0.00  0.00    +0.027 A 
ATOM     30  C   UNL     1       6.812   5.294  -3.681  0.00  0.00    +0.002 A 
ATOM     31  C   UNL     1       5.774   6.067  -4.167  0.00  0.00    +0.000 A 
ATOM     32  C   UNL     1       4.649   6.279  -3.393  0.00  0.00    +0.002 A 
ATOM     33  C   UNL     1       4.561   5.717  -2.133  0.00  0.00    +0.027 A 
ENDBRANCH  25  28
ENDBRANCH   2  25
TORSDOF 6
