REMARK  Name = ZINC38932737
REMARK  6 active torsions:
REMARK  status: ('A' for Active; 'I' for Inactive)
REMARK    1  A    between atoms: C_1  and  C_2
REMARK    2  A    between atoms: C_5  and  C_29
REMARK    3  A    between atoms: C_11  and  C_13
REMARK    4  A    between atoms: C_13  and  S_14
REMARK    5  A    between atoms: S_14  and  C_15
REMARK    6  A    between atoms: C_21  and  N_25
REMARK                            x       y       z     vdW  Elec       q    Type
REMARK                         _______ _______ _______ _____ _____    ______ ____
ROOT
ATOM      1  S   UNL     1       3.024  -2.223   5.208  0.00  0.00    -0.082 S 
ENDROOT
BRANCH   1   2
ATOM      2  C   UNL     1       4.510  -2.273   6.154  0.00  0.00    +0.168 A 
ATOM      3  H   UNL     1       4.002  -3.497   7.774  0.00  0.00    +0.168 HD
ATOM      4  N   UNL     1       5.622  -1.653   5.843  0.00  0.00    -0.222 NA
ATOM      5  C   UNL     1       6.565  -1.907   6.787  0.00  0.00    +0.090 A 
ATOM      6  C   UNL     1       7.894  -1.509   6.947  0.00  0.00    +0.032 A 
ATOM      7  C   UNL     1       8.612  -1.942   8.040  0.00  0.00    +0.035 A 
ATOM      8  C   UNL     1       8.025  -2.772   8.982  0.00  0.00    +0.128 A 
ATOM      9  C   UNL     1       6.713  -3.175   8.839  0.00  0.00    +0.060 A 
ATOM     10  C   UNL     1       5.975  -2.748   7.746  0.00  0.00    +0.069 A 
ATOM     11  N   UNL     1       4.673  -2.959   7.324  0.00  0.00    -0.333 N 
BRANCH   8  12
ATOM     12  N   UNL     1       8.811  -3.229  10.151  0.00  0.00    +0.056 N 
ATOM     13  O   UNL     1       9.960  -2.879  10.280  0.00  0.00    -0.126 OA
ATOM     14  O   UNL     1       8.303  -3.953  10.975  0.00  0.00    -0.126 OA
ENDBRANCH   8  12
ENDBRANCH   1   2
BRANCH   1  15
ATOM     15  C   UNL     1       3.437  -1.159   3.798  0.00  0.00    +0.131 C 
BRANCH  15  24
ATOM     16  C   UNL     1      -0.019   1.526   0.010  0.00  0.00    +0.033 C 
ATOM     17  C   UNL     1       0.002  -0.004   0.002  0.00  0.00    +0.099 C 
ATOM     18  C   UNL     1      -1.433  -0.496  -0.067  0.00  0.00    +0.018 C 
ATOM     19  C   UNL     1      -1.853  -1.290   0.919  0.00  0.00    +0.040 C 
ATOM     20  N   UNL     1      -1.057  -1.653   1.943  0.00  0.00    -0.220 NA
ATOM     21  C   UNL     1       0.196  -1.281   2.091  0.00  0.00    +0.220 C 
ATOM     22  N   UNL     1       0.781  -0.456   1.158  0.00  0.00    -0.276 N 
ATOM     23  C   UNL     1       2.155  -0.231   1.611  0.00  0.00    +0.190 C 
ATOM     24  C   UNL     1       2.236  -1.030   2.897  0.00  0.00    +0.064 C 
ATOM     25  N   UNL     1       1.092  -1.578   3.071  0.00  0.00    -0.220 NA
ATOM     26 BR   UNL     1       3.442  -0.909   0.288  0.00  0.00    -0.061 Br
ATOM     27  C   UNL     1      -3.271  -1.800   0.887  0.00  0.00    +0.065 C 
ENDBRANCH  15  24
ENDBRANCH   1  15
TORSDOF 4
