REMARK  Name = ZINC41124370
REMARK  6 active torsions:
REMARK  status: ('A' for Active; 'I' for Inactive)
REMARK    1  A    between atoms: C_1  and  C_2
REMARK    2  A    between atoms: C_3  and  C_12
REMARK    3  A    between atoms: C_12  and  C_14
REMARK    4  A    between atoms: N_16  and  C_17
REMARK    5  A    between atoms: C_20  and  C_34
REMARK    6  A    between atoms: C_24  and  C_27
REMARK                            x       y       z     vdW  Elec       q    Type
REMARK                         _______ _______ _______ _____ _____    ______ ____
ROOT
ATOM      1  C   UNL     1       0.122   2.526  -4.712  0.00  0.00    +0.131 A 
ATOM      2  C   UNL     1       0.354   3.594  -3.912  0.00  0.00    +0.155 A 
ATOM      3  N   UNL     1       0.396   4.692  -4.681  0.00  0.00    -0.239 NA
ATOM      4  C   UNL     1       0.202   4.358  -5.928  0.00  0.00    +0.114 A 
ATOM      5  N   UNL     1       0.031   3.007  -5.996  0.00  0.00    -0.263 N 
ATOM      6  C   UNL     1      -0.196   2.257  -7.149  0.00  0.00    +0.181 A 
ATOM      7  N   UNL     1      -0.284   2.679  -8.389  0.00  0.00    -0.222 NA
ATOM      8  C   UNL     1      -0.506   1.835  -9.388  0.00  0.00    +0.080 A 
ATOM      9  C   UNL     1      -0.635   0.514  -9.055  0.00  0.00    +0.077 A 
ATOM     10  S   UNL     1      -0.415   0.595  -7.285  0.00  0.00    -0.057 S 
ATOM     11  C   UNL     1       0.175   5.308  -7.098  0.00  0.00    +0.086 C 
ENDROOT
BRANCH   8  12
ATOM     12  C   UNL     1      -0.608   2.298 -10.793  0.00  0.00    +0.001 A 
ATOM     13  C   UNL     1      -0.848   1.382 -11.816  0.00  0.00    +0.011 A 
ATOM     14  C   UNL     1      -0.942   1.818 -13.122  0.00  0.00    +0.020 A 
ATOM     15  C   UNL     1      -0.800   3.163 -13.417  0.00  0.00    +0.041 A 
ATOM     16  C   UNL     1      -0.562   4.077 -12.405  0.00  0.00    +0.020 A 
ATOM     17  C   UNL     1      -0.471   3.652 -11.095  0.00  0.00    +0.011 A 
ATOM     18 CL   UNL     1      -0.920   3.705 -15.061  0.00  0.00    -0.084 Cl
ENDBRANCH   8  12
BRANCH   1  21
ATOM     19  C   UNL     1       0.119   0.872  -3.009  0.00  0.00    +0.290 C 
ATOM     20  O   UNL     1       0.322   1.739  -2.183  0.00  0.00    -0.266 OA
ATOM     21  N   UNL     1       0.006   1.196  -4.312  0.00  0.00    -0.263 N 
ATOM     22  H   UNL     1      -0.157   0.503  -4.972  0.00  0.00    +0.157 HD
BRANCH  19  23
ATOM     23  C   UNL     1      -0.006  -0.550  -2.581  0.00  0.00    +0.250 C 
ATOM     24  O   UNL     1      -0.113  -1.428  -3.414  0.00  0.00    -0.282 OA
BRANCH  23  27
ATOM     25  C   UNL     1      -2.536  -0.926  -0.776  0.00  0.00    +0.064 C 
ATOM     26  C   UNL     1      -1.099  -1.060  -0.340  0.00  0.00    +0.025 A 
ATOM     27  C   UNL     1       0.001  -0.889  -1.158  0.00  0.00    +0.055 A 
ATOM     28  C   UNL     1       1.185  -1.116  -0.307  0.00  0.00    +0.011 A 
ATOM     29  C   UNL     1       2.558  -1.091  -0.533  0.00  0.00    +0.011 A 
ATOM     30  C   UNL     1       3.426  -1.357   0.504  0.00  0.00    +0.001 A 
ATOM     31  C   UNL     1       2.935  -1.648   1.768  0.00  0.00    +0.002 A 
ATOM     32  C   UNL     1       1.578  -1.676   2.006  0.00  0.00    +0.026 A 
ATOM     33  C   UNL     1       0.686  -1.411   0.972  0.00  0.00    +0.047 A 
ATOM     34  N   UNL     1      -0.692  -1.360   0.907  0.00  0.00    -0.358 N 
ATOM     35  H   UNL     1      -1.286  -1.521   1.657  0.00  0.00    +0.166 HD
ENDBRANCH  23  27
ENDBRANCH  19  23
ENDBRANCH   1  21
TORSDOF 4
