REMARK  Name = ZINC39631262
REMARK  12 active torsions:
REMARK  status: ('A' for Active; 'I' for Inactive)
REMARK    1  A    between atoms: C_1  and  C_2
REMARK    2  A    between atoms: C_2  and  C_4
REMARK    3  A    between atoms: C_2  and  N_11
REMARK    4  A    between atoms: C_4  and  C_5
REMARK    5  A    between atoms: C_5  and  C_6
REMARK    6  A    between atoms: C_6  and  C_7
REMARK    7  A    between atoms: C_7  and  C_8
REMARK    8  A    between atoms: C_7  and  C_9
REMARK    9  A    between atoms: C_7  and  O_10
REMARK   10  A    between atoms: C_12  and  C_14
REMARK   11  A    between atoms: C_25  and  C_27
REMARK   12  A    between atoms: C_33  and  C_35
REMARK                            x       y       z     vdW  Elec       q    Type
REMARK                         _______ _______ _______ _____ _____    ______ ____
ROOT
ATOM      1  C   UNL     1       2.783  -1.099   2.395  0.00  0.00    +0.100 C 
ATOM      2  C   UNL     1       2.274  -2.504   2.788  0.00  0.00    +0.121 C 
ATOM      3  N   UNL     1       3.225  -3.440   2.144  0.00  0.00    -0.299 N 
ATOM      4  C   UNL     1       4.548  -2.793   2.309  0.00  0.00    +0.115 C 
ATOM      5  C   UNL     1       4.277  -1.292   2.085  0.00  0.00    -0.004 C 
ATOM      6  C   UNL     1       5.126  -0.454   3.034  0.00  0.00    -0.010 C 
ATOM      7  C   UNL     1       6.604  -0.617   2.669  0.00  0.00    -0.082 C 
ATOM      8  N   UNL     1       6.818  -0.189   1.282  0.00  0.00    +0.379 N 
ATOM      9  C   UNL     1       6.069  -1.060   0.368  0.00  0.00    -0.082 C 
ATOM     10  C   UNL     1       4.569  -0.915   0.635  0.00  0.00    -0.010 C 
ATOM     11  C   UNL     1       2.949  -4.615   1.544  0.00  0.00    +0.236 C 
ATOM     12  O   UNL     1       3.844  -5.274   1.059  0.00  0.00    -0.274 OA
ATOM     13  H   UNL     1       6.500   0.763   1.173  0.00  0.00    -0.086 HD
ATOM     14  H   UNL     1       7.801  -0.239   1.063  0.00  0.00    -0.086 HD
ENDROOT
BRANCH  11  15
ATOM     15  C   UNL     1       1.527  -5.111   1.475  0.00  0.00    +0.162 C 
ATOM     16  C   UNL     1       1.133  -5.762   2.818  0.00  0.00    +0.033 C 
ATOM     17  C   UNL     1       0.269  -6.973   2.376  0.00  0.00    +0.021 C 
ATOM     18  C   UNL     1       0.984  -7.406   1.072  0.00  0.00    +0.109 C 
ATOM     19  N   UNL     1       1.406  -6.142   0.434  0.00  0.00    -0.283 N 
ATOM     20  C   UNL     1       1.642  -5.962  -0.880  0.00  0.00    +0.320 C 
ATOM     21  O   UNL     1       1.985  -4.873  -1.292  0.00  0.00    -0.266 OA
BRANCH  20  22
ATOM     22  C   UNL     1       1.478  -7.112  -1.840  0.00  0.00    +0.470 C 
ATOM     23  F   UNL     1       1.776  -6.683  -3.138  0.00  0.00    -0.162 F 
ATOM     24  F   UNL     1       2.348  -8.147  -1.479  0.00  0.00    -0.162 F 
ATOM     25  F   UNL     1       0.158  -7.574  -1.793  0.00  0.00    -0.162 F 
ENDBRANCH  20  22
ENDBRANCH  11  15
BRANCH   1  27
ATOM     26  N   UNL     1       1.886   0.724   0.983  0.00  0.00    -0.312 N 
ATOM     27  C   UNL     1       2.054  -0.600   1.174  0.00  0.00    +0.218 C 
ATOM     28  O   UNL     1       1.618  -1.389   0.362  0.00  0.00    -0.275 OA
ATOM     29  H   UNL     1       2.234   1.355   1.632  0.00  0.00    +0.149 HD
BRANCH  26  31
ATOM     30  C   UNL     1       2.156   1.314  -1.375  0.00  0.00    +0.028 C 
ATOM     31  C   UNL     1       1.177   1.209  -0.203  0.00  0.00    +0.070 C 
BRANCH  31  32
ATOM     32  C   UNL     1       0.580   2.588   0.087  0.00  0.00    +0.022 C 
BRANCH  32  33
ATOM     33  C   UNL     1      -0.489   2.462   1.174  0.00  0.00    +0.005 C 
BRANCH  33  34
ATOM     34  C   UNL     1      -1.086   3.840   1.464  0.00  0.00    +0.034 C 
BRANCH  34  35
ATOM     35  C   UNL     1      -2.156   3.714   2.551  0.00  0.00    +0.061 C 
ATOM     36  C   UNL     1      -2.839   5.068   2.753  0.00  0.00    +0.041 C 
ATOM     37  C   UNL     1      -3.196   2.676   2.124  0.00  0.00    +0.041 C 
BRANCH  35  38
ATOM     38  O   UNL     1      -1.545   3.301   3.775  0.00  0.00    -0.389 OA
ATOM     39  H   UNL     1      -0.873   3.913   4.105  0.00  0.00    +0.210 HD
ENDBRANCH  35  38
ENDBRANCH  34  35
ENDBRANCH  33  34
ENDBRANCH  32  33
ENDBRANCH  31  32
ENDBRANCH  26  31
ENDBRANCH   1  27
TORSDOF 9
