REMARK  Name = ZINC17250670
REMARK  7 active torsions:
REMARK  status: ('A' for Active; 'I' for Inactive)
REMARK    1  A    between atoms: C_1  and  C_2
REMARK    2  A    between atoms: N_5  and  S_11
REMARK    3  A    between atoms: C_7  and  C_10
REMARK    4  A    between atoms: S_11  and  C_14
REMARK    5  A    between atoms: C_18  and  C_20
REMARK    6  A    between atoms: N_25  and  N_26
REMARK    7  A    between atoms: C_27  and  C_28
REMARK                            x       y       z     vdW  Elec       q    Type
REMARK                         _______ _______ _______ _____ _____    ______ ____
ROOT
ATOM      1  C   UNL     1      -1.152  -3.408  -2.154  0.00  0.00    +0.106 A 
ATOM      2  C   UNL     1      -1.135  -2.615  -3.287  0.00  0.00    +0.028 A 
ATOM      3  C   UNL     1      -0.295  -2.924  -4.341  0.00  0.00    +0.003 A 
ATOM      4  C   UNL     1       0.531  -4.027  -4.269  0.00  0.00    +0.010 A 
ATOM      5  C   UNL     1       0.518  -4.830  -3.130  0.00  0.00    +0.003 A 
ATOM      6  C   UNL     1      -0.326  -4.510  -2.067  0.00  0.00    +0.038 A 
ENDROOT
BRANCH   5   7
ATOM      7  C   UNL     1       1.404  -6.017  -3.045  0.00  0.00    +0.080 A 
ATOM      8  C   UNL     1       2.313  -6.271  -4.034  0.00  0.00    +0.077 A 
ATOM      9  S   UNL     1       3.066  -7.770  -3.416  0.00  0.00    -0.059 S 
ATOM     10  C   UNL     1       2.101  -7.903  -1.917  0.00  0.00    +0.178 A 
ATOM     11  N   UNL     1       1.325  -6.838  -2.009  0.00  0.00    -0.224 NA
ATOM     12  N   UNL     1       2.156  -8.864  -0.922  0.00  0.00    -0.215 N 
ATOM     13  H   UNL     1       1.562  -8.805  -0.157  0.00  0.00    +0.176 HD
BRANCH  12  14
ATOM     14  N   UNL     1       3.070  -9.921  -1.019  0.00  0.00    -0.188 NA
ATOM     15  C   UNL     1       3.122 -10.822  -0.086  0.00  0.00    +0.138 C 
BRANCH  15  16
ATOM     16  C   UNL     1       4.083 -11.935  -0.188  0.00  0.00    -0.005 A 
ATOM     17  C   UNL     1       4.944 -12.020  -1.286  0.00  0.00    +0.011 A 
ATOM     18  C   UNL     1       5.841 -13.064  -1.375  0.00  0.00    +0.020 A 
ATOM     19  C   UNL     1       5.890 -14.027  -0.381  0.00  0.00    +0.041 A 
ATOM     20  C   UNL     1       5.039 -13.949   0.709  0.00  0.00    +0.020 A 
ATOM     21  C   UNL     1       4.142 -12.907   0.814  0.00  0.00    +0.011 A 
ATOM     22 CL   UNL     1       7.021 -15.338  -0.502  0.00  0.00    -0.084 Cl
ENDBRANCH  15  16
ENDBRANCH  12  14
ENDBRANCH   5   7
BRANCH   1  23
ATOM     23  S   UNL     1      -2.225  -3.006  -0.815  0.00  0.00    +0.061 S 
ATOM     24  O   UNL     1      -2.443  -4.211  -0.094  0.00  0.00    -0.153 OA
ATOM     25  O   UNL     1      -3.290  -2.243  -1.363  0.00  0.00    -0.153 OA
BRANCH  23  29
ATOM     26  C   UNL     1      -0.019   1.526   0.010  0.00  0.00    +0.039 C 
ATOM     27  C   UNL     1       0.002  -0.004   0.002  0.00  0.00    +0.131 C 
ATOM     28  C   UNL     1      -1.436  -0.536   0.015  0.00  0.00    +0.140 C 
ATOM     29  N   UNL     1      -1.389  -1.995   0.196  0.00  0.00    -0.172 NA
ATOM     30  C   UNL     1      -0.578  -2.530   1.302  0.00  0.00    +0.140 C 
ATOM     31  C   UNL     1       0.818  -1.901   1.226  0.00  0.00    +0.131 C 
ATOM     32  O   UNL     1       0.691  -0.479   1.161  0.00  0.00    -0.371 OA
ATOM     33  C   UNL     1       1.621  -2.288   2.469  0.00  0.00    +0.039 C 
ENDBRANCH  23  29
ENDBRANCH   1  23
TORSDOF 5
