REMARK  Name = ZINC58492751
REMARK  4 active torsions:
REMARK  status: ('A' for Active; 'I' for Inactive)
REMARK    1  A    between atoms: C_8  and  N_16
REMARK    2  A    between atoms: C_9  and  N_11
REMARK    3  A    between atoms: C_17  and  C_19
REMARK    4  A    between atoms: C_23  and  N_25
REMARK                            x       y       z     vdW  Elec       q    Type
REMARK                         _______ _______ _______ _____ _____    ______ ____
ROOT
ATOM      1  C   UNL     1      -0.104   1.272   0.008  0.00  0.00    +0.002 A 
ATOM      2  C   UNL     1       1.054   2.045   0.010  0.00  0.00    +0.002 A 
ATOM      3  C   UNL     1       2.285   1.460  -0.002  0.00  0.00    +0.030 A 
ATOM      4  C   UNL     1       2.391   0.060  -0.015  0.00  0.00    +0.091 A 
ATOM      5  C   UNL     1       1.213  -0.725  -0.017  0.00  0.00    +0.091 A 
ATOM      6  C   UNL     1      -0.039  -0.088  -0.006  0.00  0.00    +0.030 A 
ATOM      7  N   UNL     1       1.304  -2.062  -0.030  0.00  0.00    -0.227 NA
ATOM      8  C   UNL     1       2.487  -2.638  -0.042  0.00  0.00    +0.166 A 
ATOM      9  C   UNL     1       3.665  -1.854  -0.040  0.00  0.00    +0.162 A 
ATOM     10  N   UNL     1       3.591  -0.539  -0.027  0.00  0.00    -0.227 NA
ENDROOT
BRANCH   9  11
ATOM     11  N   UNL     1       4.905  -2.474  -0.051  0.00  0.00    -0.312 N 
ATOM     12  C   UNL     1       5.629  -2.965   1.131  0.00  0.00    +0.106 C 
ATOM     13  C   UNL     1       6.968  -3.552   0.637  0.00  0.00    +0.020 C 
ATOM     14  C   UNL     1       7.173  -2.848  -0.731  0.00  0.00    +0.020 C 
ATOM     15  C   UNL     1       5.714  -2.755  -1.251  0.00  0.00    +0.106 C 
ENDBRANCH   9  11
BRANCH   8  16
ATOM     16  N   UNL     1       2.581  -4.025  -0.054  0.00  0.00    -0.264 N 
ATOM     17  C   UNL     1       1.468  -4.777   0.052  0.00  0.00    +0.249 C 
ATOM     18  O   UNL     1       0.381  -4.242   0.159  0.00  0.00    -0.270 OA
ATOM     19  H   UNL     1       3.448  -4.452  -0.140  0.00  0.00    +0.157 HD
BRANCH  17  20
ATOM     20  C   UNL     1       1.567  -6.251   0.038  0.00  0.00    +0.039 A 
ATOM     21  C   UNL     1       2.814  -6.868  -0.080  0.00  0.00    +0.014 A 
ATOM     22  C   UNL     1       2.901  -8.244  -0.091  0.00  0.00    +0.018 A 
ATOM     23  C   UNL     1       1.754  -9.014   0.012  0.00  0.00    +0.048 A 
ATOM     24  C   UNL     1       0.514  -8.408   0.129  0.00  0.00    +0.141 A 
ATOM     25  C   UNL     1       0.415  -7.032   0.147  0.00  0.00    +0.047 A 
ATOM     26 BR   UNL     1       1.881 -10.900  -0.006  0.00  0.00    -0.048 Br
BRANCH  24  27
ATOM     27  N   UNL     1      -0.706  -9.238   0.238  0.00  0.00    +0.058 N 
ATOM     28  O   UNL     1      -1.789  -8.710   0.340  0.00  0.00    -0.126 OA
ATOM     29  O   UNL     1      -0.621 -10.444   0.226  0.00  0.00    -0.126 OA
ENDBRANCH  24  27
ENDBRANCH  17  20
ENDBRANCH   8  16
TORSDOF 4
