REMARK  Name = ZINC32104632
REMARK  5 active torsions:
REMARK  status: ('A' for Active; 'I' for Inactive)
REMARK    1  A    between atoms: C_1  and  C_2
REMARK    2  A    between atoms: N_8  and  C_28
REMARK    3  A    between atoms: C_13  and  O_27
REMARK    4  A    between atoms: N_19  and  C_20
REMARK    5  A    between atoms: C_28  and  C_29
REMARK                            x       y       z     vdW  Elec       q    Type
REMARK                         _______ _______ _______ _____ _____    ______ ____
ROOT
ATOM      1  C   UNL     1      -0.410   1.491   0.076  0.00  0.00    +0.045 C 
ATOM      2  C   UNL     1      -0.337  -0.014   0.058  0.00  0.00    -0.029 A 
ATOM      3  C   UNL     1      -0.568  -0.735  -1.103  0.00  0.00    +0.005 A 
ATOM      4  C   UNL     1      -0.505  -2.113  -1.133  0.00  0.00    +0.001 A 
ATOM      5  C   UNL     1      -0.206  -2.849   0.009  0.00  0.00    +0.007 A 
ATOM      6  C   UNL     1       0.025  -2.140   1.168  0.00  0.00    -0.006 A 
ATOM      7  C   UNL     1      -0.030  -0.740   1.210  0.00  0.00    +0.045 A 
ATOM      8  N   UNL     1       0.249  -0.286   2.487  0.00  0.00    -0.258 N 
ATOM      9  C   UNL     1       0.500  -1.300   3.341  0.00  0.00    +0.236 C 
ATOM     10  O   UNL     1       0.771  -1.201   4.519  0.00  0.00    -0.274 OA
ATOM     11  C   UNL     1       0.366  -2.584   2.553  0.00  0.00    +0.112 C 
ATOM     12  C   UNL     1       1.690  -3.347   2.582  0.00  0.00    +0.121 C 
ATOM     13  C   UNL     1       1.504  -4.787   2.199  0.00  0.00    +0.191 C 
ATOM     14  N   UNL     1       0.424  -5.465   2.453  0.00  0.00    -0.197 NA
ATOM     15  C   UNL     1      -0.630  -4.846   3.056  0.00  0.00    +0.164 A 
ATOM     16  C   UNL     1      -0.709  -3.459   3.132  0.00  0.00    +0.036 A 
ATOM     17  C   UNL     1      -1.881  -3.138   3.790  0.00  0.00    +0.142 A 
ATOM     18  N   UNL     1      -2.505  -4.251   4.099  0.00  0.00    -0.172 NA
ATOM     19  N   UNL     1      -1.746  -5.340   3.640  0.00  0.00    -0.213 N 
ENDROOT
BRANCH  19  20
ATOM     20  C   UNL     1      -2.082  -6.694   3.766  0.00  0.00    +0.086 A 
ATOM     21  C   UNL     1      -1.230  -7.672   3.270  0.00  0.00    +0.029 A 
ATOM     22  C   UNL     1      -1.565  -9.006   3.396  0.00  0.00    +0.002 A 
ATOM     23  C   UNL     1      -2.747  -9.369   4.015  0.00  0.00    +0.002 A 
ATOM     24  C   UNL     1      -3.598  -8.399   4.510  0.00  0.00    +0.022 A 
ATOM     25  C   UNL     1      -3.266  -7.062   4.393  0.00  0.00    +0.066 A 
ATOM     26 CL   UNL     1      -4.332  -5.844   5.022  0.00  0.00    -0.081 Cl
ENDBRANCH  19  20
BRANCH  13  27
ATOM     27  O   UNL     1       2.511  -5.412   1.555  0.00  0.00    -0.495 OA
ATOM     28  H   UNL     1       2.327  -6.335   1.338  0.00  0.00    +0.293 HD
ENDBRANCH  13  27
BRANCH   8  29
ATOM     29  C   UNL     1       0.270   1.129   2.866  0.00  0.00    +0.202 C 
BRANCH  29  30
ATOM     30  C   UNL     1      -1.088   1.556   3.243  0.00  0.00    -0.086 C 
ATOM     31  C   UNL     1      -2.170   1.896   3.545  0.00  0.00    +0.005 C 
ENDBRANCH  29  30
ENDBRANCH   8  29
TORSDOF 4
