REMARK  Name = ZINC39665414
REMARK  9 active torsions:
REMARK  status: ('A' for Active; 'I' for Inactive)
REMARK    1  A    between atoms: C_1  and  C_2
REMARK    2  A    between atoms: C_3  and  C_13
REMARK    3  A    between atoms: C_4  and  C_7
REMARK    4  A    between atoms: C_17  and  C_26
REMARK    5  A    between atoms: N_28  and  C_29
REMARK    6  A    between atoms: C_29  and  C_30
REMARK    7  A    between atoms: C_30  and  C_32
REMARK    8  A    between atoms: C_30  and  O_33
REMARK    9  A    between atoms: O_33  and  C_34
REMARK                            x       y       z     vdW  Elec       q    Type
REMARK                         _______ _______ _______ _____ _____    ______ ____
ROOT
ATOM      1  C   UNL     1      -2.454  -0.416   0.012  0.00  0.00    +0.252 C 
ATOM      2  O   UNL     1      -3.033  -0.231  -1.041  0.00  0.00    -0.270 OA
ATOM      3  N   UNL     1      -3.100  -0.220   1.179  0.00  0.00    -0.296 N 
ATOM      4  C   UNL     1      -2.566  -0.386   2.551  0.00  0.00    +0.121 C 
ATOM      5  C   UNL     1      -3.171   0.789   3.351  0.00  0.00    +0.100 C 
ATOM      6  C   UNL     1      -4.443   1.176   2.578  0.00  0.00    -0.004 C 
ATOM      7  C   UNL     1      -4.502   0.217   1.379  0.00  0.00    +0.115 C 
ATOM      8  C   UNL     1      -5.674   0.995   3.461  0.00  0.00    -0.010 C 
ATOM      9  C   UNL     1      -6.920   1.440   2.691  0.00  0.00    -0.082 C 
ATOM     10  N   UNL     1      -6.778   2.847   2.298  0.00  0.00    +0.379 N 
ATOM     11  C   UNL     1      -5.647   2.997   1.374  0.00  0.00    -0.082 C 
ATOM     12  C   UNL     1      -4.347   2.618   2.089  0.00  0.00    -0.010 C 
ATOM     13  H   UNL     1      -7.625   3.155   1.844  0.00  0.00    -0.086 HD
ATOM     14  H   UNL     1      -6.616   3.409   3.120  0.00  0.00    -0.086 HD
ENDROOT
BRANCH   1  17
ATOM     15  C   UNL     1       0.050   1.454   0.025  0.00  0.00    +0.090 C 
ATOM     16  C   UNL     1       0.054  -0.053   0.019  0.00  0.00    +0.147 A 
ATOM     17  C   UNL     1      -1.048  -0.856   0.013  0.00  0.00    +0.106 A 
ATOM     18  C   UNL     1      -0.563  -2.244   0.008  0.00  0.00    +0.126 A 
ATOM     19  N   UNL     1       0.744  -2.190   0.011  0.00  0.00    -0.077 NA
ATOM     20  O   UNL     1       1.139  -0.833   0.012  0.00  0.00    -0.359 OA
BRANCH  18  21
ATOM     21  C   UNL     1      -1.397  -3.471   0.001  0.00  0.00    +0.004 A 
ATOM     22  C   UNL     1      -2.611  -3.496   0.685  0.00  0.00    +0.010 A 
ATOM     23  C   UNL     1      -3.382  -4.640   0.675  0.00  0.00    +0.001 A 
ATOM     24  C   UNL     1      -2.952  -5.761  -0.013  0.00  0.00    +0.000 A 
ATOM     25  C   UNL     1      -1.748  -5.742  -0.693  0.00  0.00    +0.001 A 
ATOM     26  C   UNL     1      -0.971  -4.601  -0.695  0.00  0.00    +0.010 A 
ENDBRANCH  18  21
ENDBRANCH   1  17
BRANCH   5  27
ATOM     27  C   UNL     1      -3.517   0.349   4.750  0.00  0.00    +0.218 C 
ATOM     28  O   UNL     1      -3.913  -0.779   4.950  0.00  0.00    -0.275 OA
ATOM     29  N   UNL     1      -3.388   1.210   5.779  0.00  0.00    -0.312 N 
ATOM     30  H   UNL     1      -3.071   2.113   5.618  0.00  0.00    +0.149 HD
BRANCH  29  31
ATOM     31  C   UNL     1      -3.724   0.783   7.139  0.00  0.00    +0.148 C 
BRANCH  31  32
ATOM     32  C   UNL     1      -3.489   1.941   8.110  0.00  0.00    +0.187 C 
ATOM     33  C   UNL     1      -3.841   1.494   9.531  0.00  0.00    +0.053 C 
BRANCH  32  34
ATOM     34  O   UNL     1      -2.116   2.334   8.061  0.00  0.00    -0.488 OA
BRANCH  34  35
ATOM     35  C   UNL     1      -1.827   3.611   8.421  0.00  0.00    +0.121 A 
ATOM     36  C   UNL     1      -0.534   4.097   8.282  0.00  0.00    +0.045 A 
ATOM     37  C   UNL     1      -0.242   5.396   8.649  0.00  0.00    +0.004 A 
ATOM     38  C   UNL     1      -1.237   6.213   9.155  0.00  0.00    +0.000 A 
ATOM     39  C   UNL     1      -2.525   5.732   9.295  0.00  0.00    +0.004 A 
ATOM     40  C   UNL     1      -2.824   4.435   8.924  0.00  0.00    +0.045 A 
ENDBRANCH  34  35
ENDBRANCH  32  34
ENDBRANCH  31  32
ENDBRANCH  29  31
ENDBRANCH   5  27
TORSDOF 7
