REMARK  Name = ZINC35759120
REMARK  7 active torsions:
REMARK  status: ('A' for Active; 'I' for Inactive)
REMARK    1  A    between atoms: C_1  and  C_2
REMARK    2  A    between atoms: C_2  and  C_3
REMARK    3  A    between atoms: C_6  and  C_9
REMARK    4  A    between atoms: N_19  and  C_28
REMARK    5  A    between atoms: N_21  and  C_22
REMARK    6  A    between atoms: C_28  and  C_29
REMARK    7  A    between atoms: N_31  and  C_32
REMARK                            x       y       z     vdW  Elec       q    Type
REMARK                         _______ _______ _______ _____ _____    ______ ____
ROOT
ATOM      1  C   UNL     1      -4.859  -1.814  -0.344  0.00  0.00    +0.247 C 
ATOM      2  O   UNL     1      -3.756  -1.339  -0.528  0.00  0.00    -0.270 OA
ATOM      3  N   UNL     1      -5.614  -2.192  -1.396  0.00  0.00    -0.297 N 
ATOM      4  C   UNL     1      -5.106  -2.058  -2.768  0.00  0.00    +0.110 C 
ATOM      5  C   UNL     1      -5.212  -3.417  -3.468  0.00  0.00    +0.054 C 
ATOM      6  C   UNL     1      -6.650  -3.926  -3.371  0.00  0.00    +0.115 C 
ATOM      7  C   UNL     1      -7.049  -4.098  -1.905  0.00  0.00    +0.054 C 
ATOM      8  C   UNL     1      -6.957  -2.751  -1.191  0.00  0.00    +0.110 C 
ATOM      9  C   UNL     1      -6.785  -5.236  -4.101  0.00  0.00    +0.241 C 
ATOM     10  O   UNL     1      -6.182  -6.255  -3.835  0.00  0.00    -0.273 OA
ATOM     11  N   UNL     1      -7.680  -5.096  -5.093  0.00  0.00    -0.275 N 
ATOM     12  C   UNL     1      -8.204  -3.731  -5.114  0.00  0.00    +0.217 C 
ATOM     13  N   UNL     1      -7.560  -2.980  -4.029  0.00  0.00    -0.300 N 
ENDROOT
BRANCH   1  17
ATOM     14  C   UNL     1      -6.340  -2.286   3.609  0.00  0.00    -0.048 A 
ATOM     15  C   UNL     1      -7.190  -1.867   2.600  0.00  0.00    +0.004 A 
ATOM     16  C   UNL     1      -6.715  -1.711   1.315  0.00  0.00    +0.013 A 
ATOM     17  C   UNL     1      -5.375  -1.978   1.032  0.00  0.00    +0.037 A 
ATOM     18  C   UNL     1      -4.523  -2.400   2.053  0.00  0.00    +0.013 A 
ATOM     19  C   UNL     1      -5.009  -2.546   3.336  0.00  0.00    +0.004 A 
BRANCH  14  21
ATOM     20  C   UNL     1      -6.715  -1.135   5.773  0.00  0.00    +0.009 C 
ATOM     21  C   UNL     1      -6.865  -2.453   5.011  0.00  0.00    +0.032 C 
ENDBRANCH  14  21
ENDBRANCH   1  17
BRANCH  13  22
ATOM     22  C   UNL     1      -7.771  -1.641  -3.691  0.00  0.00    +0.032 A 
ATOM     23  C   UNL     1      -7.136  -1.094  -2.583  0.00  0.00    +0.023 A 
ATOM     24  C   UNL     1      -7.346   0.230  -2.253  0.00  0.00    +0.002 A 
ATOM     25  C   UNL     1      -8.188   1.011  -3.023  0.00  0.00    +0.000 A 
ATOM     26  C   UNL     1      -8.822   0.470  -4.127  0.00  0.00    +0.002 A 
ATOM     27  C   UNL     1      -8.612  -0.852  -4.466  0.00  0.00    +0.023 A 
ENDBRANCH  13  22
BRANCH  11  28
ATOM     28  C   UNL     1      -8.074  -6.159  -6.021  0.00  0.00    +0.205 C 
BRANCH  28  29
ATOM     29  C   UNL     1      -9.251  -6.910  -5.454  0.00  0.00    +0.231 C 
ATOM     30  O   UNL     1      -9.715  -6.589  -4.380  0.00  0.00    -0.274 OA
ATOM     31  N   UNL     1      -9.789  -7.939  -6.139  0.00  0.00    -0.311 N 
ATOM     32  H   UNL     1      -9.418  -8.195  -6.998  0.00  0.00    +0.149 HD
BRANCH  31  33
ATOM     33  C   UNL     1     -10.933  -8.668  -5.588  0.00  0.00    +0.073 C 
ATOM     34  C   UNL     1     -10.433  -9.757  -4.636  0.00  0.00    +0.022 C 
ATOM     35  C   UNL     1     -11.628 -10.519  -4.060  0.00  0.00    +0.002 C 
ATOM     36  C   UNL     1     -12.419 -11.163  -5.200  0.00  0.00    +0.000 C 
ATOM     37  C   UNL     1     -12.919 -10.075  -6.152  0.00  0.00    +0.002 C 
ATOM     38  C   UNL     1     -11.724  -9.313  -6.728  0.00  0.00    +0.022 C 
ENDBRANCH  31  33
ENDBRANCH  28  29
ENDBRANCH  11  28
TORSDOF 6
