REMARK  Name = ZINC39729429
REMARK  8 active torsions:
REMARK  status: ('A' for Active; 'I' for Inactive)
REMARK    1  A    between atoms: C_2  and  C_3
REMARK    2  A    between atoms: C_3  and  N_4
REMARK    3  A    between atoms: C_5  and  C_16
REMARK    4  A    between atoms: N_9  and  C_10
REMARK    5  A    between atoms: C_19  and  S_22
REMARK    6  A    between atoms: S_22  and  N_25
REMARK    7  A    between atoms: C_28  and  C_31
REMARK    8  A    between atoms: C_31  and  C_32
REMARK                            x       y       z     vdW  Elec       q    Type
REMARK                         _______ _______ _______ _____ _____    ______ ____
ROOT
ATOM      1  C   UNL     1       2.448  -0.095   2.395  0.00  0.00    -0.001 A 
ATOM      2  C   UNL     1       2.445   0.747   1.285  0.00  0.00    +0.012 A 
ATOM      3  C   UNL     1       3.053   1.984   1.358  0.00  0.00    +0.029 A 
ATOM      4  C   UNL     1       3.666   2.388   2.530  0.00  0.00    +0.106 A 
ATOM      5  C   UNL     1       3.674   1.556   3.635  0.00  0.00    +0.029 A 
ATOM      6  C   UNL     1       3.063   0.320   3.576  0.00  0.00    +0.012 A 
ENDROOT
BRANCH   1   8
ATOM      7  N   UNL     1       1.082  -1.881   3.350  0.00  0.00    -0.319 N 
ATOM      8  C   UNL     1       1.796  -1.425   2.323  0.00  0.00    +0.058 A 
ATOM      9  C   UNL     1       1.921  -2.195   1.202  0.00  0.00    +0.074 A 
ATOM     10  S   UNL     1       0.962  -3.628   1.672  0.00  0.00    -0.062 S 
ATOM     11  C   UNL     1       0.499  -3.064   3.304  0.00  0.00    +0.144 A 
ATOM     12  N   UNL     1      -0.271  -3.700   4.266  0.00  0.00    -0.295 N 
ATOM     13  H   UNL     1      -0.519  -3.230   5.077  0.00  0.00    +0.154 HD
BRANCH  12  14
ATOM     14  C   UNL     1      -0.689  -5.019   4.067  0.00  0.00    +0.033 A 
ATOM     15  C   UNL     1       0.130  -5.914   3.390  0.00  0.00    +0.023 A 
ATOM     16  C   UNL     1      -0.286  -7.216   3.196  0.00  0.00    +0.002 A 
ATOM     17  C   UNL     1      -1.516  -7.629   3.673  0.00  0.00    +0.000 A 
ATOM     18  C   UNL     1      -2.334  -6.741   4.347  0.00  0.00    +0.002 A 
ATOM     19  C   UNL     1      -1.922  -5.438   4.550  0.00  0.00    +0.023 A 
ENDBRANCH  12  14
BRANCH   7  20
ATOM     20  C   UNL     1       0.947  -1.057   4.554  0.00  0.00    +0.151 C 
BRANCH  20  22
ATOM     21  C   UNL     1       2.542  -0.661   6.360  0.00  0.00    +0.005 C 
ATOM     22  C   UNL     1       1.925  -1.530   5.598  0.00  0.00    -0.013 C 
ENDBRANCH  20  22
ENDBRANCH   7  20
ENDBRANCH   1   8
BRANCH   4  23
ATOM     23  S   UNL     1       4.441   3.968   2.616  0.00  0.00    +0.061 S 
ATOM     24  O   UNL     1       5.416   3.886   3.647  0.00  0.00    -0.153 OA
ATOM     25  O   UNL     1       4.772   4.331   1.283  0.00  0.00    -0.153 OA
BRANCH  23  26
ATOM     26  N   UNL     1       3.296   5.048   3.131  0.00  0.00    -0.177 NA
ATOM     27  C   UNL     1       2.448   5.757   2.163  0.00  0.00    +0.110 C 
ATOM     28  C   UNL     1       0.980   5.540   2.543  0.00  0.00    +0.021 C 
ATOM     29  C   UNL     1       0.765   5.965   3.997  0.00  0.00    -0.004 C 
ATOM     30  C   UNL     1       1.634   5.103   4.916  0.00  0.00    +0.021 C 
ATOM     31  C   UNL     1       3.105   5.310   4.564  0.00  0.00    +0.110 C 
BRANCH  29  32
ATOM     32  C   UNL     1      -0.708   5.782   4.370  0.00  0.00    +0.038 C 
BRANCH  32  33
ATOM     33  C   UNL     1      -0.945   6.314   5.760  0.00  0.00    -0.047 A 
ATOM     34  C   UNL     1      -0.798   5.481   6.853  0.00  0.00    +0.003 A 
ATOM     35  C   UNL     1      -1.016   5.969   8.128  0.00  0.00    +0.000 A 
ATOM     36  C   UNL     1      -1.378   7.290   8.309  0.00  0.00    +0.000 A 
ATOM     37  C   UNL     1      -1.523   8.124   7.216  0.00  0.00    +0.000 A 
ATOM     38  C   UNL     1      -1.302   7.637   5.941  0.00  0.00    +0.003 A 
ENDBRANCH  32  33
ENDBRANCH  29  32
ENDBRANCH  23  26
ENDBRANCH   4  23
TORSDOF 8
