REMARK  Name = ZINC09541759
REMARK  7 active torsions:
REMARK  status: ('A' for Active; 'I' for Inactive)
REMARK    1  A    between atoms: C_1  and  C_2
REMARK    2  A    between atoms: C_2  and  O_3
REMARK    3  A    between atoms: O_3  and  C_4
REMARK    4  A    between atoms: C_8  and  C_11
REMARK    5  A    between atoms: C_9  and  O_10
REMARK    6  A    between atoms: C_14  and  C_26
REMARK    7  A    between atoms: C_16  and  C_19
REMARK                            x       y       z     vdW  Elec       q    Type
REMARK                         _______ _______ _______ _____ _____    ______ ____
ROOT
ATOM      1  C   UNL     1       2.274  -4.308   3.755  0.00  0.00    -0.028 C 
ATOM      2  C   UNL     1       1.295  -4.425   4.927  0.00  0.00    +0.044 C 
ATOM      3  C   UNL     1       1.911  -5.270   6.008  0.00  0.00    +0.040 C 
ATOM      4  N   UNL     1       2.937  -6.012   5.809  0.00  0.00    -0.299 NA
ATOM      5  C   UNL     1       3.629  -6.120   4.531  0.00  0.00    +0.081 C 
ATOM      6  N   UNL     1       2.774  -5.655   3.433  0.00  0.00    +0.401 N 
ATOM      7  H   UNL     1       1.995  -6.287   3.321  0.00  0.00    -0.081 HD
ATOM      8  H   UNL     1       3.309  -5.622   2.578  0.00  0.00    -0.081 HD
ENDROOT
BRANCH   3   9
ATOM      9  C   UNL     1       1.310  -5.244   7.354  0.00  0.00    -0.001 A 
ATOM     10  C   UNL     1       0.188  -4.449   7.604  0.00  0.00    +0.013 A 
ATOM     11  C   UNL     1      -0.373  -4.426   8.863  0.00  0.00    +0.050 A 
ATOM     12  C   UNL     1       0.173  -5.190   9.885  0.00  0.00    +0.166 A 
ATOM     13  C   UNL     1       1.294  -5.985   9.642  0.00  0.00    +0.167 A 
ATOM     14  C   UNL     1       1.857  -6.017   8.381  0.00  0.00    +0.059 A 
ATOM     15  O   UNL     1       1.630  -6.628  10.799  0.00  0.00    -0.453 OA
ATOM     16  C   UNL     1       0.958  -5.908  11.848  0.00  0.00    +0.466 C 
ATOM     17  O   UNL     1      -0.190  -5.337  11.192  0.00  0.00    -0.453 OA
ENDBRANCH   3   9
BRANCH   5  18
ATOM     18  C   UNL     1       4.003  -7.560   4.290  0.00  0.00    -0.040 A 
ATOM     19  C   UNL     1       4.088  -8.045   2.998  0.00  0.00    +0.006 A 
ATOM     20  C   UNL     1       4.432  -9.365   2.776  0.00  0.00    +0.038 A 
ATOM     21  C   UNL     1       4.691 -10.202   3.849  0.00  0.00    +0.123 A 
ATOM     22  C   UNL     1       4.606  -9.715   5.142  0.00  0.00    +0.038 A 
ATOM     23  C   UNL     1       4.267  -8.393   5.361  0.00  0.00    +0.006 A 
ATOM     24  F   UNL     1       5.027 -11.493   3.633  0.00  0.00    -0.205 F 
ENDBRANCH   5  18
BRANCH   1  29
ATOM     25  C   UNL     1       0.802  -1.825   1.306  0.00  0.00    +0.162 A 
ATOM     26  C   UNL     1       0.261  -2.673   0.353  0.00  0.00    +0.049 A 
ATOM     27  C   UNL     1       0.372  -4.043   0.502  0.00  0.00    +0.004 A 
ATOM     28  C   UNL     1       1.024  -4.570   1.602  0.00  0.00    +0.006 A 
ATOM     29  C   UNL     1       1.566  -3.730   2.557  0.00  0.00    -0.016 A 
ATOM     30  C   UNL     1       1.462  -2.356   2.410  0.00  0.00    +0.160 A 
BRANCH  30  31
ATOM     31  O   UNL     1       2.000  -1.528   3.345  0.00  0.00    -0.503 OA
ATOM     32  H   UNL     1       1.395  -1.301   4.064  0.00  0.00    +0.292 HD
ENDBRANCH  30  31
BRANCH  25  33
ATOM     33  O   UNL     1       0.693  -0.477   1.160  0.00  0.00    -0.489 OA
BRANCH  33  35
ATOM     34  C   UNL     1      -0.019   1.526   0.010  0.00  0.00    +0.048 C 
ATOM     35  C   UNL     1       0.002  -0.004   0.002  0.00  0.00    +0.226 C 
ENDBRANCH  33  35
ENDBRANCH  25  33
ENDBRANCH   1  29
TORSDOF 6
