REMARK  Name = ZINC02087951
REMARK  11 active torsions:
REMARK  status: ('A' for Active; 'I' for Inactive)
REMARK    1  A    between atoms: C_1  and  C_2
REMARK    2  A    between atoms: C_2  and  C_3
REMARK    3  A    between atoms: C_2  and  C_4
REMARK    4  A    between atoms: C_2  and  C_5
REMARK    5  A    between atoms: C_12  and  N_18
REMARK    6  A    between atoms: C_13  and  C_14
REMARK    7  A    between atoms: C_14  and  O_16
REMARK    8  A    between atoms: O_16  and  C_17
REMARK    9  A    between atoms: C_19  and  C_21
REMARK   10  A    between atoms: C_21  and  S_22
REMARK   11  A    between atoms: S_22  and  C_23
REMARK                            x       y       z     vdW  Elec       q    Type
REMARK                         _______ _______ _______ _____ _____    ______ ____
ROOT
ATOM      1  N   UNL     1      -0.016   1.344   0.009  0.00  0.00    -0.279 N 
ATOM      2  C   UNL     1       0.002  -0.004   0.002  0.00  0.00    +0.228 C 
ATOM      3  O   UNL     1       1.060  -0.596  -0.011  0.00  0.00    -0.275 OA
ATOM      4  H   UNL     1      -0.863   1.817   0.016  0.00  0.00    +0.155 HD
ENDROOT
BRANCH   1  11
ATOM      5  C   UNL     1       5.446   4.640  -0.402  0.00  0.00    -0.000 C 
ATOM      6  C   UNL     1       4.550   5.546   0.448  0.00  0.00    +0.009 C 
ATOM      7  C   UNL     1       3.093   5.402   0.003  0.00  0.00    +0.037 C 
ATOM      8  C   UNL     1       2.726   3.923  -0.002  0.00  0.00    -0.021 A 
ATOM      9  C   UNL     1       3.682   2.969  -0.016  0.00  0.00    -0.004 A 
ATOM     10  S   UNL     1       2.794   1.438  -0.009  0.00  0.00    -0.077 S 
ATOM     11  C   UNL     1       1.175   2.053   0.002  0.00  0.00    +0.086 A 
ATOM     12  C   UNL     1       1.359   3.429   0.007  0.00  0.00    +0.091 A 
ATOM     13  C   UNL     1       5.165   3.177  -0.029  0.00  0.00    +0.046 C 
BRANCH   5  15
ATOM     14  C   UNL     1       7.219   4.738   1.356  0.00  0.00    +0.011 C 
ATOM     15  C   UNL     1       6.915   4.967  -0.126  0.00  0.00    -0.035 C 
ATOM     16  C   UNL     1       7.807   4.061  -0.976  0.00  0.00    +0.011 C 
ATOM     17  C   UNL     1       7.187   6.430  -0.482  0.00  0.00    +0.011 C 
ENDBRANCH   5  15
BRANCH  12  18
ATOM     18  C   UNL     1       0.220   4.349   0.022  0.00  0.00    +0.342 C 
ATOM     19  O   UNL     1      -0.244   4.725   1.081  0.00  0.00    -0.245 OA
BRANCH  18  20
ATOM     20  O   UNL     1      -0.316   4.778  -1.139  0.00  0.00    -0.464 OA
ATOM     21  C   UNL     1      -1.443   5.688  -1.049  0.00  0.00    +0.280 C 
ENDBRANCH  18  20
ENDBRANCH  12  18
ENDBRANCH   1  11
BRANCH   2  22
ATOM     22  C   UNL     1      -1.293  -0.775   0.010  0.00  0.00    +0.172 C 
BRANCH  22  23
ATOM     23  S   UNL     1      -0.938  -2.550  -0.003  0.00  0.00    -0.096 S 
BRANCH  23  24
ATOM     24  C   UNL     1      -2.579  -3.190   0.010  0.00  0.00    +0.109 A 
ATOM     25  C   UNL     1      -2.806  -4.596  -0.002  0.00  0.00    +0.043 A 
ATOM     26  C   UNL     1      -1.824  -5.681  -0.011  0.00  0.00    -0.025 A 
ATOM     27  C   UNL     1      -2.306  -6.941  -0.012  0.00  0.00    -0.004 A 
ATOM     28  S   UNL     1      -4.069  -6.762   0.004  0.00  0.00    -0.073 S 
ATOM     29  C   UNL     1      -4.158  -4.991   0.014  0.00  0.00    +0.113 A 
ATOM     30  N   UNL     1      -5.135  -4.105   0.028  0.00  0.00    -0.228 NA
ATOM     31  C   UNL     1      -4.864  -2.814   0.033  0.00  0.00    +0.223 A 
ATOM     32  N   UNL     1      -3.619  -2.371   0.024  0.00  0.00    -0.229 NA
ATOM     33  C   UNL     1      -1.516  -8.214  -0.026  0.00  0.00    +0.043 C 
ATOM     34  C   UNL     1      -0.067  -7.883  -0.411  0.00  0.00    +0.005 C 
ATOM     35  C   UNL     1       0.404  -6.691   0.428  0.00  0.00    +0.005 C 
ATOM     36  C   UNL     1      -0.320  -5.421  -0.022  0.00  0.00    +0.037 C 
ENDBRANCH  23  24
ENDBRANCH  22  23
ENDBRANCH   2  22
TORSDOF 7
