REMARK  Name = ZINC02690019
REMARK  6 active torsions:
REMARK  status: ('A' for Active; 'I' for Inactive)
REMARK    1  A    between atoms: C_6  and  S_7
REMARK    2  A    between atoms: S_7  and  N_10
REMARK    3  A    between atoms: N_10  and  N_11
REMARK    4  A    between atoms: C_17  and  S_19
REMARK    5  A    between atoms: S_19  and  N_22
REMARK    6  A    between atoms: N_22  and  N_23
REMARK                            x       y       z     vdW  Elec       q    Type
REMARK                         _______ _______ _______ _____ _____    ______ ____
ROOT
ATOM      1  C   UNL     1      -0.017   1.379   0.010  0.00  0.00    +0.025 A 
ATOM      2  C   UNL     1       1.165   2.090   0.002  0.00  0.00    +0.010 A 
ATOM      3  C   UNL     1       2.386   1.413  -0.013  0.00  0.00    -0.014 A 
ATOM      4  C   UNL     1       2.395   0.021  -0.021  0.00  0.00    -0.034 A 
ATOM      5  C   UNL     1       1.209  -0.682  -0.013  0.00  0.00    +0.029 A 
ATOM      6  C   UNL     1       0.002  -0.004   0.002  0.00  0.00    +0.062 A 
ATOM      7  C   UNL     1       3.836  -0.425  -0.037  0.00  0.00    +0.071 C 
ATOM      8  C   UNL     1       4.663   0.838  -0.039  0.00  0.00    -0.033 A 
ATOM      9  C   UNL     1       3.782   1.916  -0.024  0.00  0.00    -0.014 A 
ATOM     10  C   UNL     1       4.291   3.216  -0.023  0.00  0.00    +0.011 A 
ATOM     11  C   UNL     1       5.655   3.421  -0.036  0.00  0.00    +0.029 A 
ATOM     12  C   UNL     1       6.522   2.344  -0.050  0.00  0.00    +0.107 A 
ATOM     13  C   UNL     1       6.025   1.052  -0.051  0.00  0.00    +0.033 A 
ENDROOT
BRANCH   6  14
ATOM     14  S   UNL     1      -1.512  -0.904   0.012  0.00  0.00    -0.096 S 
ATOM     15  O   UNL     1      -1.220  -2.185   0.553  0.00  0.00    -0.195 OA
ATOM     16  O   UNL     1      -2.492  -0.044   0.577  0.00  0.00    -0.195 OA
BRANCH  14  17
ATOM     17  N   UNL     1      -1.949  -1.146  -1.567  0.00  0.00    +0.409 NA
BRANCH  17  18
ATOM     18  N   UNL     1      -3.097  -1.825  -1.862  0.00  0.00    +0.372 N 
ATOM     19  H   UNL     1      -3.045  -2.757  -1.478  0.00  0.00    -0.137 HD
ATOM     20  H   UNL     1      -3.886  -1.341  -1.462  0.00  0.00    -0.137 HD
ATOM     21  H   UNL     1      -3.208  -1.880  -2.863  0.00  0.00    -0.137 HD
ENDBRANCH  17  18
ENDBRANCH  14  17
ENDBRANCH   6  14
BRANCH  12  22
ATOM     22  S   UNL     1       8.263   2.616  -0.067  0.00  0.00    +0.071 S 
ATOM     23  O   UNL     1       8.851   1.451  -0.630  0.00  0.00    -0.152 OA
ATOM     24  O   UNL     1       8.467   3.912  -0.614  0.00  0.00    -0.152 OA
BRANCH  22  25
ATOM     25  N   UNL     1       8.763   2.683   1.510  0.00  0.00    -0.127 NA
ATOM     26  H   UNL     1       9.193   3.484   1.849  0.00  0.00    +0.167 HD
BRANCH  25  27
ATOM     27  N   UNL     1       8.571   1.611   2.334  0.00  0.00    -0.251 NA
ATOM     28  H   UNL     1       8.991   0.778   1.948  0.00  0.00    +0.138 HD
ATOM     29  H   UNL     1       8.925   1.798   3.260  0.00  0.00    +0.138 HD
ENDBRANCH  25  27
ENDBRANCH  22  25
ENDBRANCH  12  22
TORSDOF 6
