REMARK  Name = ZINC14995553
REMARK  8 active torsions:
REMARK  status: ('A' for Active; 'I' for Inactive)
REMARK    1  A    between atoms: C_11  and  C_14
REMARK    2  A    between atoms: C_17  and  C_29
REMARK    3  A    between atoms: C_18  and  N_20
REMARK    4  A    between atoms: N_23  and  C_26
REMARK    5  A    between atoms: C_26  and  C_27
REMARK    6  A    between atoms: C_27  and  O_28
REMARK    7  A    between atoms: N_31  and  C_32
REMARK    8  A    between atoms: C_32  and  C_33
REMARK                            x       y       z     vdW  Elec       q    Type
REMARK                         _______ _______ _______ _____ _____    ______ ____
ROOT
ATOM      1  C   UNL     1       2.724   0.690  -0.420  0.00  0.00    +0.074 A 
ATOM      2  C   UNL     1       2.844  -0.701  -0.404  0.00  0.00    +0.029 A 
ATOM      3  C   UNL     1       4.098  -1.272  -0.339  0.00  0.00    +0.018 A 
ATOM      4  C   UNL     1       5.215  -0.427  -0.278  0.00  0.00    +0.077 A 
ATOM      5  C   UNL     1       5.018   0.966  -0.291  0.00  0.00    +0.134 A 
ATOM      6  N   UNL     1       3.797   1.469  -0.361  0.00  0.00    -0.231 NA
ENDROOT
BRANCH   1  17
ATOM      7  C   UNL     1      -0.952   7.014  -0.640  0.00  0.00    +0.001 A 
ATOM      8  C   UNL     1       0.312   7.582  -0.570  0.00  0.00    +0.001 A 
ATOM      9  C   UNL     1       1.422   6.763  -0.506  0.00  0.00    +0.015 A 
ATOM     10  C   UNL     1       1.260   5.392  -0.512  0.00  0.00    +0.020 A 
ATOM     11  C   UNL     1      -0.004   4.790  -0.582  0.00  0.00    -0.003 A 
ATOM     12  C   UNL     1      -1.119   5.652  -0.646  0.00  0.00    +0.009 A 
ATOM     13  C   UNL     1      -0.016   3.309  -0.579  0.00  0.00    -0.002 A 
ATOM     14  C   UNL     1      -1.145   2.465  -0.642  0.00  0.00    +0.009 A 
ATOM     15  C   UNL     1      -1.005   1.098  -0.636  0.00  0.00    +0.001 A 
ATOM     16  C   UNL     1       0.240   0.501  -0.560  0.00  0.00    +0.011 A 
ATOM     17  C   UNL     1       1.379   1.304  -0.497  0.00  0.00    +0.015 A 
ATOM     18  C   UNL     1       1.239   2.689  -0.508  0.00  0.00    +0.030 A 
ATOM     19  S   UNL     1       2.398   4.032  -0.445  0.00  0.00    -0.088 S 
ENDBRANCH   1  17
BRANCH   5  20
ATOM     20  N   UNL     1       6.108   1.814  -0.232  0.00  0.00    -0.312 N 
ATOM     21  C   UNL     1       6.024   2.697   0.940  0.00  0.00    +0.122 C 
ATOM     22  C   UNL     1       7.285   3.563   1.013  0.00  0.00    +0.103 C 
ATOM     23  N   UNL     1       7.411   4.345  -0.224  0.00  0.00    -0.297 NA
ATOM     24  C   UNL     1       7.495   3.462  -1.396  0.00  0.00    +0.103 C 
ATOM     25  C   UNL     1       6.235   2.596  -1.470  0.00  0.00    +0.122 C 
BRANCH  23  26
ATOM     26  C   UNL     1       8.570   5.246  -0.161  0.00  0.00    +0.112 C 
BRANCH  26  27
ATOM     27  C   UNL     1       8.406   6.360  -1.197  0.00  0.00    +0.171 C 
BRANCH  27  28
ATOM     28  O   UNL     1       7.280   7.170  -0.853  0.00  0.00    -0.394 OA
ATOM     29  H   UNL     1       7.004   8.026  -1.485  0.00  0.00    +0.209 HD
ENDBRANCH  27  28
ENDBRANCH  26  27
ENDBRANCH  23  26
ENDBRANCH   5  20
BRANCH   4  30
ATOM     30  C   UNL     1       6.574  -0.988  -0.201  0.00  0.00    +0.248 C 
ATOM     31  O   UNL     1       7.529  -0.250  -0.049  0.00  0.00    -0.270 OA
ATOM     32  N   UNL     1       6.760  -2.320  -0.298  0.00  0.00    -0.306 N 
ATOM     33  H   UNL     1       5.896  -2.987  -0.435  0.00  0.00    +0.149 HD
BRANCH  32  34
ATOM     34  C   UNL     1       8.112  -2.878  -0.222  0.00  0.00    +0.163 C 
BRANCH  34  35
ATOM     35  C   UNL     1       8.044  -4.378  -0.357  0.00  0.00    +0.101 A 
ATOM     36  C   UNL     1       8.207  -5.129  -1.543  0.00  0.00    +0.069 A 
ATOM     37  C   UNL     1       8.058  -6.413  -1.140  0.00  0.00    +0.230 A 
ATOM     38  O   UNL     1       7.828  -6.373   0.180  0.00  0.00    -0.363 OA
ATOM     39  N   UNL     1       7.830  -5.238   0.596  0.00  0.00    -0.082 NA
ENDBRANCH  34  35
ENDBRANCH  32  34
ENDBRANCH   4  30
TORSDOF 8
