REMARK  Name = ZINC53679536
REMARK  6 active torsions:
REMARK  status: ('A' for Active; 'I' for Inactive)
REMARK    1  A    between atoms: C_1  and  C_2
REMARK    2  A    between atoms: C_5  and  N_9
REMARK    3  A    between atoms: C_6  and  C_8
REMARK    4  A    between atoms: N_9  and  C_10
REMARK    5  A    between atoms: N_9  and  C_11
REMARK    6  A    between atoms: C_11  and  C_12
REMARK                            x       y       z     vdW  Elec       q    Type
REMARK                         _______ _______ _______ _____ _____    ______ ____
ROOT
ATOM      1  C   UNL     1      -1.640  -5.166  -1.439  0.00  0.00    +0.040 A 
ATOM      2  C   UNL     1      -1.700  -6.457  -1.926  0.00  0.00    +0.093 A 
ATOM      3  C   UNL     1      -2.111  -6.663  -3.248  0.00  0.00    +0.258 A 
ATOM      4  O   UNL     1      -2.175  -7.792  -3.708  0.00  0.00    -0.267 OA
ATOM      5  N   UNL     1      -2.435  -5.594  -4.006  0.00  0.00    -0.270 N 
ATOM      6  C   UNL     1      -2.836  -5.778  -5.294  0.00  0.00    +0.096 A 
ATOM      7  C   UNL     1      -3.166  -4.723  -6.073  0.00  0.00    +0.018 A 
ATOM      8  C   UNL     1      -3.097  -3.421  -5.560  0.00  0.00    +0.005 A 
ATOM      9  C   UNL     1      -2.696  -3.225  -4.272  0.00  0.00    +0.045 A 
ATOM     10  C   UNL     1      -2.358  -4.336  -3.477  0.00  0.00    +0.118 A 
ATOM     11  N   UNL     1      -1.972  -4.147  -2.217  0.00  0.00    -0.343 N 
ATOM     12  H   UNL     1      -1.929  -3.245  -1.863  0.00  0.00    +0.167 HD
ENDROOT
BRANCH   1  13
ATOM     13  C   UNL     1      -1.201  -4.917  -0.019  0.00  0.00    +0.158 C 
BRANCH  13  14
ATOM     14  N   UNL     1       0.058  -4.167  -0.021  0.00  0.00    -0.327 N 
ATOM     15  C   UNL     1       1.336  -4.883  -0.031  0.00  0.00    +0.129 C 
BRANCH  14  20
ATOM     16  C   UNL     1      -0.018   1.503   0.010  0.00  0.00    +0.044 C 
ATOM     17  C   UNL     1       0.002  -0.004   0.002  0.00  0.00    -0.050 A 
ATOM     18  C   UNL     1       0.006  -0.687  -1.200  0.00  0.00    +0.005 A 
ATOM     19  C   UNL     1       0.024  -2.068  -1.212  0.00  0.00    +0.023 A 
ATOM     20  C   UNL     1       0.040  -2.771  -0.013  0.00  0.00    +0.033 A 
ATOM     21  C   UNL     1       0.036  -2.081   1.192  0.00  0.00    -0.029 A 
ATOM     22  C   UNL     1       0.023  -0.700   1.196  0.00  0.00    +0.008 A 
ATOM     23  C   UNL     1       0.052  -2.839   2.495  0.00  0.00    +0.045 C 
ENDBRANCH  14  20
ENDBRANCH  13  14
ENDBRANCH   1  13
TORSDOF 3
