REMARK  Name = ZINC01439745
REMARK  11 active torsions:
REMARK  status: ('A' for Active; 'I' for Inactive)
REMARK    1  A    between atoms: C_1  and  C_2
REMARK    2  A    between atoms: C_3  and  C_33
REMARK    3  A    between atoms: C_4  and  C_23
REMARK    4  A    between atoms: C_10  and  C_15
REMARK    5  A    between atoms: C_20  and  O_21
REMARK    6  A    between atoms: O_21  and  C_22
REMARK    7  A    between atoms: C_26  and  O_29
REMARK    8  A    between atoms: O_29  and  C_30
REMARK    9  A    between atoms: C_30  and  C_32
REMARK   10  A    between atoms: C_33  and  O_35
REMARK   11  A    between atoms: O_35  and  C_36
REMARK                            x       y       z     vdW  Elec       q    Type
REMARK                         _______ _______ _______ _____ _____    ______ ____
ROOT
ATOM      1  C   UNL     1       3.203   2.938   0.958  0.00  0.00    +0.061 C 
ATOM      2  C   UNL     1       1.762   2.496   0.955  0.00  0.00    +0.016 C 
ATOM      3  C   UNL     1       1.353   1.562   0.079  0.00  0.00    +0.065 C 
ATOM      4  C   UNL     1      -0.075   1.102   0.041  0.00  0.00    +0.092 C 
ATOM      5  C   UNL     1      -0.796   1.471   1.313  0.00  0.00    +0.024 C 
ATOM      6  C   UNL     1      -0.298   2.417   2.139  0.00  0.00    +0.016 C 
ATOM      7  N   UNL     1       0.880   3.047   1.842  0.00  0.00    -0.321 N 
ATOM      8  C   UNL     1      -1.024   2.805   3.403  0.00  0.00    +0.060 C 
ATOM      9  C   UNL     1      -1.790   1.597   3.947  0.00  0.00    +0.035 C 
ATOM     10  C   UNL     1      -2.766   1.114   2.870  0.00  0.00    +0.088 C 
ATOM     11  C   UNL     1      -1.997   0.805   1.615  0.00  0.00    +0.162 C 
ATOM     12  O   UNL     1      -2.421  -0.036   0.847  0.00  0.00    -0.292 OA
ATOM     13  H   UNL     1       1.114   4.008   2.325  0.00  0.00    +0.152 HD
ENDROOT
BRANCH   9  14
ATOM     14  C   UNL     1      -2.555   1.993   5.184  0.00  0.00    -0.002 A 
ATOM     15  C   UNL     1      -3.501   2.999   5.119  0.00  0.00    +0.007 A 
ATOM     16  C   UNL     1      -4.204   3.362   6.252  0.00  0.00    +0.001 A 
ATOM     17  C   UNL     1      -3.963   2.720   7.453  0.00  0.00    +0.004 A 
ATOM     18  C   UNL     1      -3.020   1.714   7.523  0.00  0.00    +0.046 A 
ATOM     19  C   UNL     1      -2.316   1.344   6.386  0.00  0.00    +0.124 A 
BRANCH  19  20
ATOM     20  O   UNL     1      -1.391   0.350   6.451  0.00  0.00    -0.495 OA
ATOM     21  C   UNL     1      -1.197  -0.273   7.722  0.00  0.00    +0.277 C 
ENDBRANCH  19  20
ENDBRANCH   9  14
BRANCH   4  22
ATOM     22  C   UNL     1      -0.773   1.749  -1.127  0.00  0.00    -0.035 A 
ATOM     23  C   UNL     1      -0.876   3.126  -1.193  0.00  0.00    +0.008 A 
ATOM     24  C   UNL     1      -1.510   3.722  -2.266  0.00  0.00    +0.046 A 
ATOM     25  C   UNL     1      -2.054   2.937  -3.272  0.00  0.00    +0.132 A 
ATOM     26  C   UNL     1      -1.954   1.555  -3.201  0.00  0.00    +0.046 A 
ATOM     27  C   UNL     1      -1.313   0.965  -2.129  0.00  0.00    +0.008 A 
BRANCH  25  28
ATOM     28  O   UNL     1      -2.683   3.521  -4.326  0.00  0.00    -0.426 OA
BRANCH  28  29
ATOM     29  C   UNL     1      -1.906   4.055  -5.281  0.00  0.00    +0.309 C 
ATOM     30  O   UNL     1      -0.706   4.082  -5.139  0.00  0.00    -0.251 OA
ATOM     31  C   UNL     1      -2.529   4.621  -6.531  0.00  0.00    +0.136 C 
ENDBRANCH  28  29
ENDBRANCH  25  28
ENDBRANCH   4  22
BRANCH   3  32
ATOM     32  C   UNL     1       2.286   1.001  -0.824  0.00  0.00    +0.338 C 
ATOM     33  O   UNL     1       2.758  -0.099  -0.607  0.00  0.00    -0.245 OA
BRANCH  32  34
ATOM     34  O   UNL     1       2.652   1.687  -1.927  0.00  0.00    -0.458 OA
BRANCH  34  35
ATOM     35  C   UNL     1       3.599   1.061  -2.796  0.00  0.00    +0.177 C 
ATOM     36  C   UNL     1       5.031   1.483  -2.409  0.00  0.00    +0.044 C 
ATOM     37  C   UNL     1       5.768   1.614  -3.765  0.00  0.00    +0.004 C 
ATOM     38  C   UNL     1       4.683   2.224  -4.687  0.00  0.00    +0.004 C 
ATOM     39  C   UNL     1       3.377   1.532  -4.244  0.00  0.00    +0.044 C 
ENDBRANCH  34  35
ENDBRANCH  32  34
ENDBRANCH   3  32
TORSDOF 8
