REMARK  Name = ZINC67655130
REMARK  6 active torsions:
REMARK  status: ('A' for Active; 'I' for Inactive)
REMARK    1  A    between atoms: C_1  and  C_2
REMARK    2  A    between atoms: C_3  and  C_8
REMARK    3  A    between atoms: C_4  and  C_7
REMARK    4  A    between atoms: C_10  and  C_17
REMARK    5  A    between atoms: C_13  and  C_14
REMARK    6  A    between atoms: C_20  and  N_23
REMARK                            x       y       z     vdW  Elec       q    Type
REMARK                         _______ _______ _______ _____ _____    ______ ____
ROOT
ATOM      1  C   UNL     1      -0.005  -0.370  -2.556  0.00  0.00    +0.010 A 
ATOM      2  C   UNL     1       1.185  -0.136  -3.244  0.00  0.00    +0.038 A 
ATOM      3  C   UNL     1       1.133   0.296  -4.565  0.00  0.00    +0.074 A 
ATOM      4  N   UNL     1      -0.029   0.490  -5.180  0.00  0.00    -0.231 NA
ATOM      5  C   UNL     1      -1.185   0.283  -4.573  0.00  0.00    +0.135 A 
ATOM      6  C   UNL     1      -1.223  -0.161  -3.239  0.00  0.00    +0.099 A 
ATOM      7  N   UNL     1      -2.368   0.500  -5.258  0.00  0.00    -0.342 N 
ATOM      8  H   UNL     1      -2.346   0.802  -6.179  0.00  0.00    +0.144 HD
ATOM      9  H   UNL     1      -3.218   0.349  -4.816  0.00  0.00    +0.144 HD
ENDROOT
BRANCH   1  12
ATOM     10  C   UNL     1      -0.018   1.503   0.010  0.00  0.00    +0.070 C 
ATOM     11  C   UNL     1       0.002  -0.004   0.002  0.00  0.00    +0.089 A 
ATOM     12  C   UNL     1       0.008  -0.831  -1.149  0.00  0.00    +0.048 A 
ATOM     13  C   UNL     1       0.028  -2.125  -0.728  0.00  0.00    +0.142 A 
ATOM     14  O   UNL     1       0.034  -2.120   0.612  0.00  0.00    -0.359 OA
ATOM     15  N   UNL     1       0.023  -0.774   1.050  0.00  0.00    -0.083 NA
ATOM     16  C   UNL     1       0.040  -3.346  -1.611  0.00  0.00    +0.090 C 
ENDBRANCH   1  12
BRANCH   3  17
ATOM     17  C   UNL     1       2.396   0.546  -5.299  0.00  0.00    +0.001 A 
ATOM     18  C   UNL     1       3.623   0.342  -4.668  0.00  0.00    +0.012 A 
ATOM     19  C   UNL     1       4.796   0.575  -5.354  0.00  0.00    +0.027 A 
ATOM     20  C   UNL     1       4.757   1.012  -6.672  0.00  0.00    +0.047 A 
ATOM     21  C   UNL     1       3.536   1.217  -7.303  0.00  0.00    +0.027 A 
ATOM     22  C   UNL     1       2.360   0.980  -6.624  0.00  0.00    +0.012 A 
BRANCH  20  23
ATOM     23  N   UNL     1       5.950   1.248  -7.367  0.00  0.00    -0.306 N 
ATOM     24  C   UNL     1       6.068   1.684  -8.661  0.00  0.00    +0.112 A 
ATOM     25  C   UNL     1       7.385   1.775  -8.924  0.00  0.00    +0.130 A 
ATOM     26  N   UNL     1       8.058   1.406  -7.824  0.00  0.00    -0.244 NA
ATOM     27  C   UNL     1       7.210   1.093  -6.882  0.00  0.00    +0.204 A 
ENDBRANCH  20  23
ENDBRANCH   3  17
BRANCH   6  28
ATOM     28  C   UNL     1      -2.475  -0.392  -2.584  0.00  0.00    +0.103 C 
ATOM     29  N   UNL     1      -3.468  -0.574  -2.064  0.00  0.00    -0.191 NA
ENDBRANCH   6  28
TORSDOF 4
