REMARK  Name = ZINC14541985
REMARK  16 active torsions:
REMARK  status: ('A' for Active; 'I' for Inactive)
REMARK    1  A    between atoms: C_1  and  C_2
REMARK    2  A    between atoms: C_2  and  N_3
REMARK    3  A    between atoms: N_3  and  C_4
REMARK    4  A    between atoms: C_4  and  C_5
REMARK    5  A    between atoms: C_6  and  C_8
REMARK    6  A    between atoms: C_8  and  O_9
REMARK    7  A    between atoms: O_9  and  C_10
REMARK    8  A    between atoms: N_16  and  C_18
REMARK    9  A    between atoms: C_18  and  C_19
REMARK   10  A    between atoms: C_19  and  C_20
REMARK   11  A    between atoms: C_26  and  C_27
REMARK   12  A    between atoms: C_26  and  N_76
REMARK   13  A    between atoms: C_28  and  C_29
REMARK   14  A    between atoms: C_32  and  O_37
REMARK   15  A    between atoms: C_33  and  O_35
REMARK   16  A    between atoms: O_35  and  C_36
REMARK                            x       y       z     vdW  Elec       q    Type
REMARK                         _______ _______ _______ _____ _____    ______ ____
ROOT
ATOM      1  C   UNL     1      -1.150   0.111  -4.372  0.00  0.00    +0.120 C 
ATOM      2  C   UNL     1      -0.142   0.269  -5.494  0.00  0.00    -0.044 C 
ATOM      3  C   UNL     1       1.620   1.367  -4.228  0.00  0.00    +0.019 C 
ATOM      4  C   UNL     1       0.897   1.860  -2.992  0.00  0.00    +0.199 C 
ATOM      5  O   UNL     1       1.198   2.928  -2.502  0.00  0.00    -0.278 OA
ATOM      6  N   UNL     1      -0.067   1.120  -2.437  0.00  0.00    -0.300 N 
ATOM      7  C   UNL     1      -0.443  -0.168  -3.043  0.00  0.00    +0.137 C 
ATOM      8  N   UNL     1       0.683   1.487  -5.371  0.00  0.00    +0.389 N 
ATOM      9  H   UNL     1       0.065   2.290  -5.208  0.00  0.00    -0.081 HD
ENDROOT
BRANCH   1  10
ATOM     10  O   UNL     1      -2.026  -0.977  -4.676  0.00  0.00    -0.368 OA
BRANCH  10  11
ATOM     11  C   UNL     1      -3.349  -0.820  -4.160  0.00  0.00    +0.256 C 
BRANCH  11  13
ATOM     12  N   UNL     1      -5.471  -2.091  -4.156  0.00  0.00    -0.300 N 
ATOM     13  C   UNL     1      -4.181  -2.019  -4.538  0.00  0.00    +0.241 C 
ATOM     14  O   UNL     1      -3.689  -2.918  -5.186  0.00  0.00    -0.273 OA
BRANCH  12  16
ATOM     15  C   UNL     1      -6.164  -4.322  -3.433  0.00  0.00    +0.024 C 
ATOM     16  C   UNL     1      -6.280  -3.256  -4.524  0.00  0.00    +0.104 C 
ENDBRANCH  12  16
BRANCH  12  17
ATOM     17  C   UNL     1      -6.065  -1.004  -3.373  0.00  0.00    +0.104 C 
ATOM     18  C   UNL     1      -6.670   0.035  -4.319  0.00  0.00    +0.024 C 
ENDBRANCH  12  17
ENDBRANCH  11  13
ENDBRANCH  10  11
ENDBRANCH   1  10
BRANCH   6  19
ATOM     19  C   UNL     1      -0.753   1.593  -1.232  0.00  0.00    +0.112 C 
BRANCH  19  20
ATOM     20  C   UNL     1      -0.013   1.086   0.008  0.00  0.00    +0.054 C 
BRANCH  20  21
ATOM     21  C   UNL     1      -0.718   1.572   1.248  0.00  0.00    -0.046 A 
ATOM     22  C   UNL     1      -0.360   2.779   1.819  0.00  0.00    +0.004 A 
ATOM     23  C   UNL     1      -1.010   3.227   2.953  0.00  0.00    +0.000 A 
ATOM     24  C   UNL     1      -2.012   2.463   3.523  0.00  0.00    +0.000 A 
ATOM     25  C   UNL     1      -2.366   1.254   2.955  0.00  0.00    +0.000 A 
ATOM     26  C   UNL     1      -1.719   0.808   1.818  0.00  0.00    +0.004 A 
ENDBRANCH  20  21
ENDBRANCH  19  20
ENDBRANCH   6  19
BRANCH   8  27
ATOM     27  C   UNL     1       1.432   1.710  -6.617  0.00  0.00    -0.050 C 
BRANCH  27  28
ATOM     28  C   UNL     1       2.468   2.779  -6.380  0.00  0.00    -0.045 C 
ATOM     29  C   UNL     1       3.740   2.546  -6.673  0.00  0.00    +0.002 C 
BRANCH  29  30
ATOM     30  C   UNL     1       4.755   3.594  -6.440  0.00  0.00    -0.022 A 
ATOM     31  C   UNL     1       4.376   4.831  -5.917  0.00  0.00    +0.012 A 
ATOM     32  C   UNL     1       5.326   5.807  -5.696  0.00  0.00    +0.050 A 
ATOM     33  C   UNL     1       6.657   5.565  -6.001  0.00  0.00    +0.158 A 
ATOM     34  C   UNL     1       7.041   4.335  -6.529  0.00  0.00    +0.162 A 
ATOM     35  C   UNL     1       6.095   3.351  -6.749  0.00  0.00    +0.057 A 
BRANCH  34  36
ATOM     36  O   UNL     1       8.347   4.101  -6.828  0.00  0.00    -0.491 OA
ATOM     37  C   UNL     1       8.670   2.817  -7.365  0.00  0.00    +0.277 C 
ENDBRANCH  34  36
BRANCH  33  38
ATOM     38  O   UNL     1       7.589   6.532  -5.786  0.00  0.00    -0.503 OA
ATOM     39  H   UNL     1       7.726   7.121  -6.541  0.00  0.00    +0.292 HD
ENDBRANCH  33  38
ENDBRANCH  29  30
ENDBRANCH  27  28
ENDBRANCH   8  27
TORSDOF 13
