REMARK  Name = ZINC39545627
REMARK  6 active torsions:
REMARK  status: ('A' for Active; 'I' for Inactive)
REMARK    1  A    between atoms: C_1  and  C_2
REMARK    2  A    between atoms: C_2  and  O_3
REMARK    3  A    between atoms: O_3  and  N_4
REMARK    4  A    between atoms: N_4  and  C_5
REMARK    5  A    between atoms: C_10  and  O_11
REMARK    6  A    between atoms: C_12  and  C_14
REMARK                            x       y       z     vdW  Elec       q    Type
REMARK                         _______ _______ _______ _____ _____    ______ ____
ROOT
ATOM      1  C   UNL     1      -1.450  -1.819  -2.466  0.00  0.00    +0.152 C 
ATOM      2  C   UNL     1      -2.683  -0.904  -2.593  0.00  0.00    +0.076 C 
ATOM      3  C   UNL     1      -3.379  -1.395  -3.842  0.00  0.00    +0.032 C 
ATOM      4  C   UNL     1      -2.709  -2.398  -4.349  0.00  0.00    +0.085 C 
ATOM      5  N   UNL     1      -3.026  -3.094  -5.532  0.00  0.00    -0.303 N 
ATOM      6  C   UNL     1      -1.917  -3.499  -6.294  0.00  0.00    +0.037 A 
ATOM      7  C   UNL     1      -2.111  -4.090  -7.534  0.00  0.00    +0.023 A 
ATOM      8  C   UNL     1      -1.022  -4.497  -8.280  0.00  0.00    +0.002 A 
ATOM      9  C   UNL     1       0.257  -4.313  -7.785  0.00  0.00    +0.000 A 
ATOM     10  C   UNL     1       0.451  -3.720  -6.553  0.00  0.00    +0.007 A 
ATOM     11  C   UNL     1      -0.635  -3.305  -5.800  0.00  0.00    -0.010 A 
ATOM     12  C   UNL     1      -0.391  -2.639  -4.471  0.00  0.00    +0.124 C 
ATOM     13  N   UNL     1      -1.567  -2.743  -3.606  0.00  0.00    -0.369 NA
ATOM     14 BR   UNL     1      -4.972  -0.673  -4.561  0.00  0.00    -0.052 Br
ATOM     15  H   UNL     1      -3.940  -3.280  -5.799  0.00  0.00    +0.153 HD
ATOM     16  H   UNL     1      -1.654  -3.690  -3.268  0.00  0.00    +0.129 HD
ENDROOT
BRANCH   1  18
ATOM     17  N   UNL     1      -1.431  -1.912   0.005  0.00  0.00    -0.143 N 
ATOM     18  C   UNL     1      -1.486  -2.578  -1.165  0.00  0.00    +0.262 C 
ATOM     19  O   UNL     1      -1.566  -3.788  -1.171  0.00  0.00    -0.271 OA
BRANCH  17  20
ATOM     20  C   UNL     1      -1.466  -2.617   1.216  0.00  0.00    +0.106 A 
ATOM     21  C   UNL     1      -0.295  -3.131   1.754  0.00  0.00    +0.029 A 
ATOM     22  C   UNL     1      -0.331  -3.826   2.948  0.00  0.00    +0.002 A 
ATOM     23  C   UNL     1      -1.532  -4.012   3.608  0.00  0.00    +0.004 A 
ATOM     24  C   UNL     1      -2.703  -3.504   3.077  0.00  0.00    +0.047 A 
ATOM     25  C   UNL     1      -2.674  -2.800   1.883  0.00  0.00    +0.140 A 
BRANCH  25  26
ATOM     26  O   UNL     1      -3.824  -2.293   1.363  0.00  0.00    -0.505 OA
ATOM     27  H   UNL     1      -4.287  -2.900   0.769  0.00  0.00    +0.292 HD
ENDBRANCH  25  26
ENDBRANCH  17  20
BRANCH  17  28
ATOM     28  O   UNL     1      -1.339  -0.499   0.012  0.00  0.00    -0.273 OA
BRANCH  28  30
ATOM     29  C   UNL     1      -0.019   1.526   0.010  0.00  0.00    +0.036 C 
ATOM     30  C   UNL     1       0.002  -0.004   0.002  0.00  0.00    +0.187 C 
ENDBRANCH  28  30
ENDBRANCH  17  28
ENDBRANCH   1  18
TORSDOF 5
