REMARK  Name = ZINC20080467
REMARK  9 active torsions:
REMARK  status: ('A' for Active; 'I' for Inactive)
REMARK    1  A    between atoms: C_1  and  C_2
REMARK    2  A    between atoms: C_2  and  O_3
REMARK    3  A    between atoms: O_3  and  C_4
REMARK    4  A    between atoms: C_11  and  C_16
REMARK    5  A    between atoms: C_16  and  C_18
REMARK    6  A    between atoms: C_16  and  N_30
REMARK    7  A    between atoms: N_22  and  C_23
REMARK    8  A    between atoms: C_23  and  C_24
REMARK    9  A    between atoms: N_33  and  C_36
REMARK                            x       y       z     vdW  Elec       q    Type
REMARK                         _______ _______ _______ _____ _____    ______ ____
ROOT
ATOM      1  C   UNL     1       1.926   6.393  -1.845  0.00  0.00    +0.162 C 
ENDROOT
BRANCH   1   9
ATOM      2  C   UNL     1      -2.916   3.959  -4.856  0.00  0.00    +0.121 A 
ATOM      3  C   UNL     1      -3.783   5.026  -4.631  0.00  0.00    +0.047 A 
ATOM      4  C   UNL     1      -3.369   6.129  -3.919  0.00  0.00    +0.030 A 
ATOM      5  C   UNL     1      -2.073   6.185  -3.416  0.00  0.00    +0.049 A 
ATOM      6  C   UNL     1      -1.194   5.110  -3.640  0.00  0.00    +0.002 A 
ATOM      7  C   UNL     1      -1.626   3.995  -4.366  0.00  0.00    +0.055 A 
ATOM      8  C   UNL     1       0.167   5.182  -3.105  0.00  0.00    +0.021 A 
ATOM      9  C   UNL     1       0.532   6.287  -2.409  0.00  0.00    +0.042 A 
ATOM     10  C   UNL     1      -0.390   7.336  -2.207  0.00  0.00    +0.254 A 
ATOM     11  O   UNL     1      -0.043   8.318  -1.573  0.00  0.00    -0.268 OA
ATOM     12  N   UNL     1      -1.639   7.282  -2.699  0.00  0.00    -0.322 N 
ATOM     13  H   UNL     1      -2.320   8.129  -2.523  0.00  0.00    +0.169 HD
BRANCH   2  14
ATOM     14  O   UNL     1      -3.342   2.878  -5.562  0.00  0.00    -0.492 OA
BRANCH  14  16
ATOM     15  C   UNL     1      -4.983   1.614  -6.806  0.00  0.00    +0.048 C 
ATOM     16  C   UNL     1      -4.688   2.905  -6.041  0.00  0.00    +0.225 C 
ENDBRANCH  14  16
ENDBRANCH   2  14
ENDBRANCH   1   9
BRANCH   1  17
ATOM     17  N   UNL     1       2.585   7.588  -2.388  0.00  0.00    -0.292 NA
ATOM     18  C   UNL     1       2.599   7.560  -3.857  0.00  0.00    +0.067 C 
ATOM     19  C   UNL     1       3.220   8.856  -4.384  0.00  0.00    -0.063 C 
ATOM     20  N   UNL     1       4.582   8.995  -3.849  0.00  0.00    +0.383 N 
ATOM     21  C   UNL     1       4.568   9.023  -2.380  0.00  0.00    -0.063 C 
ATOM     22  C   UNL     1       3.946   7.727  -1.854  0.00  0.00    +0.067 C 
ATOM     23  H   UNL     1       5.163   8.117  -4.167  0.00  0.00    -0.081 HD
BRANCH  20  24
ATOM     24  C   UNL     1       5.241  10.190  -4.392  0.00  0.00    -0.068 C 
ATOM     25  C   UNL     1       4.420  11.431  -4.037  0.00  0.00    -0.015 C 
ATOM     26  C   UNL     1       5.106  12.676  -4.603  0.00  0.00    -0.002 C 
ATOM     27  C   UNL     1       5.213  12.553  -6.124  0.00  0.00    -0.000 C 
ATOM     28  C   UNL     1       6.034  11.312  -6.479  0.00  0.00    -0.002 C 
ATOM     29  C   UNL     1       5.348  10.067  -5.914  0.00  0.00    -0.015 C 
ENDBRANCH  20  24
ENDBRANCH   1  17
BRANCH   1  30
ATOM     30  C   UNL     1       2.716   5.167  -2.225  0.00  0.00    +0.173 A 
ATOM     31  N   UNL     1       3.133   4.846  -3.426  0.00  0.00    -0.111 NA
ATOM     32  N   UNL     1       3.769   3.729  -3.341  0.00  0.00    -0.023 NA
ATOM     33  N   UNL     1       3.774   3.332  -2.116  0.00  0.00    -0.044 NA
ATOM     34  N   UNL     1       3.130   4.189  -1.398  0.00  0.00    -0.223 N 
BRANCH  34  35
ATOM     35  C   UNL     1       2.897   4.115   0.046  0.00  0.00    +0.182 C 
BRANCH  35  36
ATOM     36  C   UNL     1       1.684   3.263   0.317  0.00  0.00    -0.026 A 
ATOM     37  C   UNL     1       1.808   1.888   0.393  0.00  0.00    +0.005 A 
ATOM     38  C   UNL     1       0.695   1.106   0.641  0.00  0.00    +0.000 A 
ATOM     39  C   UNL     1      -0.543   1.699   0.807  0.00  0.00    +0.000 A 
ATOM     40  C   UNL     1      -0.666   3.074   0.736  0.00  0.00    +0.000 A 
ATOM     41  C   UNL     1       0.447   3.856   0.488  0.00  0.00    +0.005 A 
ENDBRANCH  35  36
ENDBRANCH  34  35
ENDBRANCH   1  30
TORSDOF 8
