REMARK  Name = ZINC38773828
REMARK  4 active torsions:
REMARK  status: ('A' for Active; 'I' for Inactive)
REMARK    1  A    between atoms: C_12  and  C_16
REMARK    2  A    between atoms: N_18  and  C_19
REMARK    3  A    between atoms: C_19  and  C_20
REMARK    4  A    between atoms: C_20  and  N_21
REMARK                            x       y       z     vdW  Elec       q    Type
REMARK                         _______ _______ _______ _____ _____    ______ ____
ROOT
ATOM      1  C   UNL     1       7.418  -0.040  -0.324  0.00  0.00    +0.251 C 
ATOM      2  O   UNL     1       7.511   1.158  -0.130  0.00  0.00    -0.270 OA
ATOM      3  N   UNL     1       8.524  -0.774  -0.552  0.00  0.00    -0.313 N 
ATOM      4  H   UNL     1       8.450  -1.729  -0.707  0.00  0.00    +0.149 HD
ENDROOT
BRANCH   1  16
ATOM      5  C   UNL     1      -0.016   1.359   0.009  0.00  0.00    +0.001 A 
ATOM      6  C   UNL     1       1.167   2.090   0.002  0.00  0.00    +0.001 A 
ATOM      7  C   UNL     1       2.378   1.461  -0.014  0.00  0.00    +0.009 A 
ATOM      8  C   UNL     1       2.433   0.065  -0.022  0.00  0.00    -0.007 A 
ATOM      9  C   UNL     1       1.231  -0.683  -0.012  0.00  0.00    -0.017 A 
ATOM     10  C   UNL     1       0.002  -0.004   0.002  0.00  0.00    +0.008 A 
ATOM     11  C   UNL     1       1.288  -2.090  -0.016  0.00  0.00    +0.012 A 
ATOM     12  C   UNL     1       2.478  -2.744  -0.019  0.00  0.00    +0.047 A 
ATOM     13  C   UNL     1       3.694  -2.057  -0.028  0.00  0.00    +0.140 A 
ATOM     14  C   UNL     1       3.708  -0.654  -0.044  0.00  0.00    +0.026 A 
ATOM     15  C   UNL     1       4.932   0.043  -0.075  0.00  0.00    +0.032 A 
ATOM     16  C   UNL     1       6.096  -0.686  -0.308  0.00  0.00    +0.122 A 
ATOM     17  C   UNL     1       5.946  -2.133  -0.539  0.00  0.00    +0.350 A 
ATOM     18  O   UNL     1       6.767  -2.757  -1.184  0.00  0.00    -0.244 OA
ATOM     19  O   UNL     1       4.861  -2.744  -0.006  0.00  0.00    -0.422 OA
ENDBRANCH   1  16
BRANCH   3  20
ATOM     20  C   UNL     1       9.840  -0.130  -0.568  0.00  0.00    +0.086 C 
BRANCH  20  21
ATOM     21  C   UNL     1      10.918  -1.179  -0.847  0.00  0.00    -0.060 C 
BRANCH  21  22
ATOM     22  N   UNL     1      12.238  -0.533  -0.863  0.00  0.00    +0.383 N 
ATOM     23  C   UNL     1      12.304   0.414  -1.983  0.00  0.00    -0.059 C 
ATOM     24  C   UNL     1      13.635   1.171  -1.932  0.00  0.00    +0.088 C 
ATOM     25  N   UNL     1      14.729   0.188  -1.903  0.00  0.00    -0.313 N 
ATOM     26  C   UNL     1      14.660  -0.898  -0.912  0.00  0.00    +0.088 C 
ATOM     27  C   UNL     1      13.280  -1.557  -1.011  0.00  0.00    -0.059 C 
ATOM     28  C   UNL     1      15.792   0.282  -2.779  0.00  0.00    +0.162 A 
ATOM     29  N   UNL     1      16.014   1.180  -3.711  0.00  0.00    -0.225 NA
ATOM     30  C   UNL     1      17.108   1.149  -4.504  0.00  0.00    +0.080 A 
ATOM     31  C   UNL     1      17.464   2.046  -5.536  0.00  0.00    +0.032 A 
ATOM     32  C   UNL     1      18.619   1.870  -6.252  0.00  0.00    +0.040 A 
ATOM     33  C   UNL     1      19.479   0.810  -5.992  0.00  0.00    +0.125 A 
ATOM     34  C   UNL     1      19.161  -0.088  -4.987  0.00  0.00    +0.055 A 
ATOM     35  C   UNL     1      18.005   0.083  -4.266  0.00  0.00    +0.043 A 
ATOM     36  S   UNL     1      17.220  -0.782  -2.928  0.00  0.00    -0.052 S 
ATOM     37  F   UNL     1      20.611   0.656  -6.712  0.00  0.00    -0.205 F 
ATOM     38  H   UNL     1      12.378  -0.036   0.004  0.00  0.00    -0.082 HD
ENDBRANCH  21  22
ENDBRANCH  20  21
ENDBRANCH   3  20
TORSDOF 4
