REMARK  Name = ZINC09154326
REMARK  5 active torsions:
REMARK  status: ('A' for Active; 'I' for Inactive)
REMARK    1  A    between atoms: C_1  and  C_2
REMARK    2  A    between atoms: C_7  and  C_13
REMARK    3  A    between atoms: N_14  and  N_15
REMARK    4  A    between atoms: C_16  and  C_18
REMARK    5  A    between atoms: C_20  and  N_21
REMARK                            x       y       z     vdW  Elec       q    Type
REMARK                         _______ _______ _______ _____ _____    ______ ____
ROOT
ATOM      1  N   UNL     1      -2.454   4.248   9.294  0.00  0.00    -0.202 N 
ATOM      2  C   UNL     1      -1.705   4.463  10.393  0.00  0.00    +0.283 C 
ATOM      3  O   UNL     1      -0.506   4.261  10.361  0.00  0.00    -0.267 OA
ATOM      4  H   UNL     1      -3.539   4.430   9.324  0.00  0.00    +0.178 HD
ENDROOT
BRANCH   2   5
ATOM      5  C   UNL     1      -2.339   4.943  11.637  0.00  0.00    +0.149 A 
ATOM      6  C   UNL     1      -1.574   5.152  12.741  0.00  0.00    +0.094 A 
ATOM      7  C   UNL     1      -2.229   5.636  13.967  0.00  0.00    +0.067 A 
ATOM      8  C   UNL     1      -3.677   5.865  13.922  0.00  0.00    +0.100 A 
ATOM      9  C   UNL     1      -4.338   5.623  12.768  0.00  0.00    +0.150 A 
ATOM     10  N   UNL     1      -3.691   5.172  11.662  0.00  0.00    -0.228 NA
ATOM     11 CL   UNL     1      -6.053   5.883  12.702  0.00  0.00    -0.060 Cl
ATOM     12 CL   UNL     1      -4.526   6.435  15.324  0.00  0.00    -0.078 Cl
ATOM     13 CL   UNL     1       0.137   4.856  12.706  0.00  0.00    -0.079 Cl
BRANCH   7  14
ATOM     14  N   UNL     1      -1.537   5.856  15.071  0.00  0.00    -0.356 N 
ATOM     15  H   UNL     1      -2.046   6.218  15.976  0.00  0.00    +0.142 HD
ATOM     16  H   UNL     1      -0.451   5.678  15.084  0.00  0.00    +0.142 HD
ENDBRANCH   7  14
ENDBRANCH   2   5
BRANCH   1  18
ATOM     17  C   UNL     1      -2.575   3.585   7.055  0.00  0.00    +0.141 C 
ATOM     18  N   UNL     1      -1.853   3.792   8.114  0.00  0.00    -0.187 NA
BRANCH  17  25
ATOM     19  C   UNL     1      -0.022   1.031   0.025  0.00  0.00    +0.044 C 
ATOM     20  C   UNL     1      -0.726   1.522   1.263  0.00  0.00    -0.048 A 
ATOM     21  C   UNL     1      -2.103   1.738   1.228  0.00  0.00    +0.004 A 
ATOM     22  C   UNL     1      -2.768   2.175   2.333  0.00  0.00    +0.010 A 
ATOM     23  C   UNL     1      -2.057   2.424   3.519  0.00  0.00    +0.001 A 
ATOM     24  C   UNL     1      -2.711   2.881   4.676  0.00  0.00    +0.022 A 
ATOM     25  C   UNL     1      -1.943   3.106   5.814  0.00  0.00    +0.032 A 
ATOM     26  C   UNL     1      -0.554   2.870   5.769  0.00  0.00    +0.139 A 
ATOM     27  N   UNL     1       0.032   2.444   4.678  0.00  0.00    -0.235 NA
ATOM     28  C   UNL     1      -0.656   2.211   3.554  0.00  0.00    +0.073 A 
ATOM     29  C   UNL     1      -0.007   1.753   2.395  0.00  0.00    +0.031 A 
ATOM     30 CL   UNL     1       0.401   3.151   7.191  0.00  0.00    -0.061 Cl
ENDBRANCH  17  25
ENDBRANCH   1  18
TORSDOF 4
