REMARK  Name = ZINC59007123
REMARK  4 active torsions:
REMARK  status: ('A' for Active; 'I' for Inactive)
REMARK    1  A    between atoms: C_6  and  S_7
REMARK    2  A    between atoms: S_7  and  N_10
REMARK    3  A    between atoms: N_10  and  N_11
REMARK    4  A    between atoms: C_12  and  C_14
REMARK                            x       y       z     vdW  Elec       q    Type
REMARK                         _______ _______ _______ _____ _____    ______ ____
ROOT
ATOM      1  N   UNL     1      -1.606  -1.721  -1.426  0.00  0.00    -0.108 NA
ATOM      2  H   UNL     1      -2.343  -1.553  -2.033  0.00  0.00    +0.172 HD
ENDROOT
BRANCH   1   3
ATOM      3  N   UNL     1      -0.619  -2.656  -1.765  0.00  0.00    -0.227 N 
ATOM      4  C   UNL     1      -0.968  -3.919  -2.081  0.00  0.00    +0.265 C 
ATOM      5  O   UNL     1      -2.140  -4.248  -2.071  0.00  0.00    -0.268 OA
ATOM      6  H   UNL     1       0.315  -2.394  -1.773  0.00  0.00    +0.171 HD
BRANCH   4   7
ATOM      7  C   UNL     1       0.065  -4.898  -2.436  0.00  0.00    +0.076 A 
ATOM      8  C   UNL     1      -0.075  -6.221  -2.792  0.00  0.00    +0.024 A 
ATOM      9  C   UNL     1       1.098  -6.935  -3.056  0.00  0.00    -0.036 A 
ATOM     10  C   UNL     1       2.261  -6.274  -2.900  0.00  0.00    -0.006 A 
ATOM     11  S   UNL     1       1.830  -4.688  -2.529  0.00  0.00    -0.088 S 
ATOM     12  C   UNL     1       3.701  -6.726  -2.931  0.00  0.00    +0.043 C 
ATOM     13  C   UNL     1       3.833  -8.230  -3.172  0.00  0.00    +0.005 C 
ATOM     14  C   UNL     1       3.667  -8.560  -4.646  0.00  0.00    +0.000 C 
ATOM     15  C   UNL     1       2.608  -7.714  -5.324  0.00  0.00    +0.000 C 
ATOM     16  C   UNL     1       1.260  -8.389  -5.055  0.00  0.00    +0.005 C 
ATOM     17  C   UNL     1       0.986  -8.369  -3.552  0.00  0.00    +0.036 C 
ENDBRANCH   4   7
ENDBRANCH   1   3
BRANCH   1  18
ATOM     18  S   UNL     1      -1.513  -0.904   0.012  0.00  0.00    +0.076 S 
ATOM     19  O   UNL     1      -1.394  -1.887   1.031  0.00  0.00    -0.152 OA
ATOM     20  O   UNL     1      -2.557   0.059  -0.000  0.00  0.00    -0.152 OA
BRANCH  18  26
ATOM     21  C   UNL     1      -0.017   1.378   0.010  0.00  0.00    +0.037 A 
ATOM     22  C   UNL     1       1.169   2.086   0.002  0.00  0.00    -0.024 A 
ATOM     23  C   UNL     1       2.382   1.410  -0.013  0.00  0.00    +0.039 A 
ATOM     24  C   UNL     1       2.400   0.022  -0.022  0.00  0.00    +0.064 A 
ATOM     25  C   UNL     1       1.210  -0.683  -0.015  0.00  0.00    +0.151 A 
ATOM     26  C   UNL     1       0.002  -0.004   0.002  0.00  0.00    +0.142 A 
ATOM     27  F   UNL     1       1.225  -2.034  -0.024  0.00  0.00    -0.203 F 
ATOM     28  N   UNL     1       3.581   2.128  -0.019  0.00  0.00    -0.285 N 
ATOM     29  C   UNL     1       3.605   3.420   0.357  0.00  0.00    +0.218 C 
ATOM     30  O   UNL     1       4.651   4.033   0.332  0.00  0.00    -0.275 OA
ATOM     31  C   UNL     1       2.348   4.113   0.810  0.00  0.00    +0.101 C 
ATOM     32  C   UNL     1       1.151   3.593   0.011  0.00  0.00    +0.046 C 
ATOM     33  H   UNL     1       4.402   1.692  -0.296  0.00  0.00    +0.155 HD
ENDBRANCH  18  26
ENDBRANCH   1  18
TORSDOF 4
