REMARK  Name = ZINC19568225
REMARK  7 active torsions:
REMARK  status: ('A' for Active; 'I' for Inactive)
REMARK    1  A    between atoms: C_1  and  C_2
REMARK    2  A    between atoms: C_4  and  C_37
REMARK    3  A    between atoms: C_9  and  C_14
REMARK    4  A    between atoms: C_14  and  C_16
REMARK    5  A    between atoms: C_14  and  N_31
REMARK    6  A    between atoms: N_20  and  C_21
REMARK    7  A    between atoms: C_21  and  C_22
REMARK                            x       y       z     vdW  Elec       q    Type
REMARK                         _______ _______ _______ _____ _____    ______ ____
ROOT
ATOM      1  C   UNL     1       0.075  -5.086   3.602  0.00  0.00    +0.039 C 
ENDROOT
BRANCH   1  10
ATOM      2  C   UNL     1       0.401   2.360   3.340  0.00  0.00    +0.044 C 
ATOM      3  C   UNL     1       0.081   1.035   2.697  0.00  0.00    -0.050 A 
ATOM      4  C   UNL     1      -0.412   1.001   1.400  0.00  0.00    +0.008 A 
ATOM      5  C   UNL     1      -0.712  -0.199   0.793  0.00  0.00    -0.026 A 
ATOM      6  C   UNL     1      -0.518  -1.390   1.484  0.00  0.00    +0.052 A 
ATOM      7  C   UNL     1      -0.016  -1.352   2.799  0.00  0.00    -0.001 A 
ATOM      8  C   UNL     1       0.285  -0.122   3.394  0.00  0.00    +0.013 A 
ATOM      9  C   UNL     1       0.185  -2.611   3.519  0.00  0.00    +0.017 A 
ATOM     10  C   UNL     1      -0.121  -3.773   2.890  0.00  0.00    +0.011 A 
ATOM     11  C   UNL     1      -0.620  -3.756   1.570  0.00  0.00    +0.251 A 
ATOM     12  O   UNL     1      -0.888  -4.812   1.023  0.00  0.00    -0.268 OA
ATOM     13  N   UNL     1      -0.808  -2.605   0.901  0.00  0.00    -0.322 N 
ATOM     14  H   UNL     1      -1.154  -2.630  -0.005  0.00  0.00    +0.169 HD
ATOM     15  C   UNL     1      -1.248  -0.221  -0.616  0.00  0.00    +0.046 C 
ENDBRANCH   1  10
BRANCH   1  16
ATOM     16  N   UNL     1       0.951  -5.952   2.801  0.00  0.00    +0.389 N 
ATOM     17  C   UNL     1       1.133  -7.234   3.492  0.00  0.00    -0.077 C 
ATOM     18  C   UNL     1       1.978  -8.169   2.625  0.00  0.00    -0.019 C 
ATOM     19  C   UNL     1       3.344  -7.526   2.372  0.00  0.00    -0.004 C 
ATOM     20  C   UNL     1       3.139  -6.156   1.718  0.00  0.00    -0.019 C 
ATOM     21  C   UNL     1       2.251  -5.295   2.619  0.00  0.00    -0.077 C 
ATOM     22  H   UNL     1       0.528  -6.115   1.900  0.00  0.00    -0.080 HD
ENDBRANCH   1  16
BRANCH   1  23
ATOM     23  C   UNL     1      -1.261  -5.759   3.790  0.00  0.00    +0.143 A 
ATOM     24  N   UNL     1      -2.030  -6.247   2.849  0.00  0.00    -0.115 NA
ATOM     25  N   UNL     1      -3.082  -6.738   3.409  0.00  0.00    -0.023 NA
ATOM     26  N   UNL     1      -3.003  -6.575   4.683  0.00  0.00    -0.044 NA
ATOM     27  N   UNL     1      -1.892  -5.980   4.958  0.00  0.00    -0.226 N 
BRANCH  27  28
ATOM     28  C   UNL     1      -1.409  -5.610   6.291  0.00  0.00    +0.182 C 
BRANCH  28  29
ATOM     29  C   UNL     1      -2.021  -4.295   6.700  0.00  0.00    -0.022 A 
ATOM     30  C   UNL     1      -1.324  -3.118   6.498  0.00  0.00    +0.009 A 
ATOM     31  C   UNL     1      -1.881  -1.909   6.871  0.00  0.00    +0.050 A 
ATOM     32  C   UNL     1      -3.140  -1.875   7.449  0.00  0.00    +0.166 A 
ATOM     33  C   UNL     1      -3.842  -3.060   7.653  0.00  0.00    +0.167 A 
ATOM     34  C   UNL     1      -3.280  -4.268   7.271  0.00  0.00    +0.055 A 
ATOM     35  O   UNL     1      -5.042  -2.763   8.230  0.00  0.00    -0.453 OA
ATOM     36  C   UNL     1      -4.899  -1.428   8.751  0.00  0.00    +0.466 C 
ATOM     37  O   UNL     1      -3.901  -0.834   7.899  0.00  0.00    -0.453 OA
ENDBRANCH  28  29
ENDBRANCH  27  28
ENDBRANCH   1  23
TORSDOF 5
