REMARK  Name = ZINC36660351
REMARK  11 active torsions:
REMARK  status: ('A' for Active; 'I' for Inactive)
REMARK    1  A    between atoms: C_1  and  C_2
REMARK    2  A    between atoms: C_2  and  N_3
REMARK    3  A    between atoms: N_3  and  C_4
REMARK    4  A    between atoms: N_3  and  C_6
REMARK    5  A    between atoms: C_4  and  C_5
REMARK    6  A    between atoms: C_6  and  C_7
REMARK    7  A    between atoms: C_7  and  N_8
REMARK    8  A    between atoms: C_12  and  C_18
REMARK    9  A    between atoms: C_19  and  C_21
REMARK   10  A    between atoms: N_26  and  S_27
REMARK   11  A    between atoms: S_27  and  C_30
REMARK                            x       y       z     vdW  Elec       q    Type
REMARK                         _______ _______ _______ _____ _____    ______ ____
ROOT
ATOM      1  N   UNL     1       1.401  -3.582  -2.573  0.00  0.00    -0.251 N 
ATOM      2  C   UNL     1       0.272  -4.308  -2.913  0.00  0.00    +0.168 A 
ATOM      3  N   UNL     1      -0.150  -4.667  -4.103  0.00  0.00    -0.224 NA
ATOM      4  C   UNL     1      -1.281  -5.381  -4.288  0.00  0.00    +0.083 A 
ATOM      5  C   UNL     1      -1.842  -5.828  -5.507  0.00  0.00    -0.024 A 
ATOM      6  C   UNL     1      -3.007  -6.549  -5.519  0.00  0.00    +0.005 A 
ATOM      7  C   UNL     1      -3.675  -6.866  -4.345  0.00  0.00    +0.001 A 
ATOM      8  C   UNL     1      -3.155  -6.446  -3.135  0.00  0.00    +0.017 A 
ATOM      9  C   UNL     1      -1.988  -5.723  -3.113  0.00  0.00    +0.041 A 
ATOM     10  S   UNL     1      -0.979  -5.003  -1.841  0.00  0.00    -0.052 S 
ATOM     11  C   UNL     1      -1.151  -5.507  -6.807  0.00  0.00    +0.046 C 
ATOM     12  C   UNL     1       2.574  -4.214  -2.372  0.00  0.00    +0.240 C 
ATOM     13  O   UNL     1       3.540  -3.592  -1.984  0.00  0.00    -0.273 OA
ENDROOT
BRANCH  12  14
ATOM     14  C   UNL     1       2.686  -5.695  -2.630  0.00  0.00    +0.166 C 
ATOM     15  C   UNL     1       3.065  -5.944  -4.105  0.00  0.00    +0.031 C 
ATOM     16  C   UNL     1       4.602  -6.141  -4.040  0.00  0.00    +0.019 C 
ATOM     17  C   UNL     1       4.764  -6.879  -2.688  0.00  0.00    +0.110 C 
ATOM     18  N   UNL     1       3.754  -6.268  -1.799  0.00  0.00    -0.165 NA
BRANCH  18  19
ATOM     19  S   UNL     1       3.815  -6.231  -0.144  0.00  0.00    +0.062 S 
ATOM     20  O   UNL     1       5.183  -6.362   0.215  0.00  0.00    -0.153 OA
ATOM     21  O   UNL     1       3.021  -5.127   0.267  0.00  0.00    -0.153 OA
BRANCH  19  22
ATOM     22  C   UNL     1       3.001  -7.682   0.439  0.00  0.00    +0.106 A 
ATOM     23  C   UNL     1       1.641  -7.658   0.687  0.00  0.00    +0.031 A 
ATOM     24  C   UNL     1       1.002  -8.795   1.143  0.00  0.00    +0.040 A 
ATOM     25  C   UNL     1       1.724  -9.958   1.353  0.00  0.00    +0.124 A 
ATOM     26  C   UNL     1       3.086  -9.980   1.104  0.00  0.00    +0.040 A 
ATOM     27  C   UNL     1       3.722  -8.844   0.642  0.00  0.00    +0.031 A 
ATOM     28  F   UNL     1       1.100 -11.070   1.800  0.00  0.00    -0.205 F 
ENDBRANCH  19  22
ENDBRANCH  18  19
ENDBRANCH  12  14
BRANCH   1  29
ATOM     29  C   UNL     1       1.321  -2.126  -2.433  0.00  0.00    +0.097 C 
BRANCH  29  30
ATOM     30  C   UNL     1       0.971  -1.771  -0.986  0.00  0.00    -0.059 C 
BRANCH  30  31
ATOM     31  N   UNL     1       1.026  -0.314  -0.812  0.00  0.00    +0.380 N 
ATOM     32  H   UNL     1       1.927   0.027  -1.111  0.00  0.00    -0.082 HD
BRANCH  31  34
ATOM     33  C   UNL     1       0.107   1.838  -1.535  0.00  0.00    -0.017 C 
ATOM     34  C   UNL     1      -0.028   0.316  -1.618  0.00  0.00    -0.082 C 
ENDBRANCH  31  34
BRANCH  31  35
ATOM     35  C   UNL     1       0.824   0.018   0.605  0.00  0.00    -0.082 C 
ATOM     36  C   UNL     1       1.987  -0.536   1.430  0.00  0.00    -0.017 C 
ENDBRANCH  31  35
ENDBRANCH  30  31
ENDBRANCH  29  30
ENDBRANCH   1  29
TORSDOF 8
