REMARK  Name = ZINC14703238
REMARK  14 active torsions:
REMARK  status: ('A' for Active; 'I' for Inactive)
REMARK    1  A    between atoms: C_1  and  C_2
REMARK    2  A    between atoms: C_2  and  C_4
REMARK    3  A    between atoms: C_2  and  N_62
REMARK    4  A    between atoms: C_9  and  N_62
REMARK    5  A    between atoms: C_10  and  C_11
REMARK    6  A    between atoms: C_10  and  N_62
REMARK    7  A    between atoms: N_13  and  C_14
REMARK    8  A    between atoms: N_13  and  C_18
REMARK    9  A    between atoms: C_14  and  C_15
REMARK   10  A    between atoms: C_15  and  O_16
REMARK   11  A    between atoms: O_16  and  C_17
REMARK   12  A    between atoms: C_19  and  N_34
REMARK   13  A    between atoms: N_20  and  C_27
REMARK   14  A    between atoms: C_27  and  C_28
REMARK                            x       y       z     vdW  Elec       q    Type
REMARK                         _______ _______ _______ _____ _____    ______ ____
ROOT
ATOM      1  C   UNL     1      -0.210  -0.644   2.389  0.00  0.00    +0.140 A 
ATOM      2  C   UNL     1      -1.234  -1.569   2.401  0.00  0.00    +0.128 A 
ATOM      3  N   UNL     1      -2.008  -1.700   3.530  0.00  0.00    -0.276 N 
ATOM      4  C   UNL     1      -1.775  -0.929   4.608  0.00  0.00    +0.331 A 
ATOM      5  O   UNL     1      -2.474  -1.057   5.595  0.00  0.00    -0.246 OA
ATOM      6  N   UNL     1      -0.785  -0.019   4.613  0.00  0.00    -0.273 N 
ATOM      7  H   UNL     1      -0.634   0.542   5.427  0.00  0.00    +0.173 HD
ATOM      8  C   UNL     1       0.004   0.146   3.534  0.00  0.00    +0.277 A 
ATOM      9  O   UNL     1       0.900   0.974   3.549  0.00  0.00    -0.266 OA
ENDROOT
BRANCH   1  12
ATOM     10  C   UNL     1       1.915  -0.801   1.306  0.00  0.00    +0.203 C 
ATOM     11  O   UNL     1       2.377  -1.293   2.314  0.00  0.00    -0.277 OA
ATOM     12  N   UNL     1       0.604  -0.489   1.247  0.00  0.00    -0.264 N 
BRANCH  10  13
ATOM     13  C   UNL     1       2.806  -0.539   0.119  0.00  0.00    +0.020 C 
BRANCH  13  15
ATOM     14  C   UNL     1       4.756  -0.129   1.495  0.00  0.00    -0.095 C 
ATOM     15  N   UNL     1       4.176  -0.990   0.443  0.00  0.00    +0.388 N 
ATOM     16  H   UNL     1       4.137  -1.957   0.787  0.00  0.00    -0.081 HD
BRANCH  15  18
ATOM     17  C   UNL     1       4.441  -1.900  -1.814  0.00  0.00    -0.008 C 
ATOM     18  C   UNL     1       5.022  -0.946  -0.769  0.00  0.00    -0.034 C 
BRANCH  18  19
ATOM     19  C   UNL     1       6.418  -1.385  -0.408  0.00  0.00    -0.024 A 
ATOM     20  C   UNL     1       7.605  -0.902  -0.848  0.00  0.00    +0.009 A 
ATOM     21  C   UNL     1       8.775  -1.464  -0.373  0.00  0.00    +0.008 A 
ATOM     22  C   UNL     1       8.700  -2.488   0.511  0.00  0.00    +0.045 A 
ATOM     23  S   UNL     1       6.936  -2.683   0.703  0.00  0.00    -0.103 S 
ENDBRANCH  18  19
ENDBRANCH  15  18
ENDBRANCH  13  15
ENDBRANCH  10  13
BRANCH  12  24
ATOM     24  C   UNL     1       0.025   0.011  -0.003  0.00  0.00    +0.142 C 
BRANCH  24  25
ATOM     25  C   UNL     1      -0.013   1.540   0.029  0.00  0.00    +0.178 C 
BRANCH  25  26
ATOM     26  O   UNL     1       1.322   2.049   0.057  0.00  0.00    -0.381 OA
ATOM     27  C   UNL     1       1.400   3.475   0.088  0.00  0.00    +0.194 C 
ENDBRANCH  25  26
ENDBRANCH  24  25
ENDBRANCH  12  24
ENDBRANCH   1  12
BRANCH   2  28
ATOM     28  N   UNL     1      -1.475  -2.353   1.298  0.00  0.00    -0.343 N 
ATOM     29  H   UNL     1      -0.972  -2.209   0.481  0.00  0.00    +0.144 HD
ATOM     30  H   UNL     1      -2.148  -3.051   1.337  0.00  0.00    +0.144 HD
ENDBRANCH   2  28
BRANCH   3  31
ATOM     31  C   UNL     1      -3.095  -2.682   3.558  0.00  0.00    +0.163 C 
BRANCH  31  32
ATOM     32  C   UNL     1      -4.365  -2.039   3.061  0.00  0.00    -0.028 A 
ATOM     33  C   UNL     1      -5.220  -1.418   3.952  0.00  0.00    +0.005 A 
ATOM     34  C   UNL     1      -6.382  -0.825   3.495  0.00  0.00    +0.000 A 
ATOM     35  C   UNL     1      -6.694  -0.861   2.149  0.00  0.00    +0.000 A 
ATOM     36  C   UNL     1      -5.841  -1.487   1.259  0.00  0.00    +0.000 A 
ATOM     37  C   UNL     1      -4.677  -2.076   1.715  0.00  0.00    +0.005 A 
ENDBRANCH  31  32
ENDBRANCH   3  31
TORSDOF 11
